drugbank_target|Q8TCU5 Glutamate receptor ionotropic, NMDA 3A (DB00142; DB00392; DB00514; DB00721; DB00898; DB00915; DB01159; DB01173; DB01221; DB01520; DB01549; DB03575; DB04926; DB06151)
 OpenBabel12092119363D

  0  0  0     0  0            999 V3000
M  V30 BEGIN CTAB
M  V30 COUNTS 17636 17862 0 0 0
M  V30 BEGIN ATOM
M  V30 1 H -0.908 1.98254 -0.117106 0
M  V30 2 N 0 1.576 0 0
M  V30 3 C 0.933 2.03868 1.02534 0
M  V30 4 C 1.911 0.928543 1.3348 0
M  V30 5 O 3.095 1.19667 1.45644 0
M  V30 6 C 0.222 2.43627 2.35294 0
M  V30 7 C -0.732 3.65373 2.2001 0
M  V30 8 S 0.101 5.13292 1.52614 0
M  V30 9 C 1.257 5.56322 2.86805 0
M  V30 10 H 1.49 2.90518 0.631377 0
M  V30 11 H -0.977 1.52953 0.210867 0
M  V30 12 H 0.981 2.67203 3.11629 0
M  V30 13 H -0.358 1.57376 2.7183 0
M  V30 14 H -1.165 3.90944 3.18086 0
M  V30 15 H -1.563 3.418 1.51819 0
M  V30 16 H 0.729 5.58782 3.83104 0
M  V30 17 H 1.672 6.56266 2.65933 0
M  V30 18 H 2.08 4.83886 2.90714 0
M  V30 19 N 1.4781 -0.272755 1.55222 0
M  V30 20 C 2.8941 -0.619959 1.47067 0
M  V30 21 C 3.0941 -1.895 0.684978 0
M  V30 22 O 2.1501 -2.51675 0.203931 0
M  V30 23 C 3.4631 -0.746693 2.91282 0
M  V30 24 C 5.0111 -0.840731 3.01497 0
M  V30 25 C 5.4861 -0.99924 4.46967 0
M  V30 26 N 6.9771 -1.06476 4.50796 0
M  V30 27 C 7.7121 -1.20621 5.6057 0
M  V30 28 N 7.2081 -1.31483 6.80209 0
M  V30 29 N 9.0011 -1.23733 5.48312 0
M  V30 30 H 1.1521 0.564606 2.04758 0
M  V30 31 H 3.4151 0.191177 0.928523 0
M  V30 32 H 3.1211 0.119753 3.51496 0
M  V30 33 H 2.9951 -1.6269 3.40311 0
M  V30 34 H 5.3821 -1.69764 2.41379 0
M  V30 35 H 5.4631 0.0640874 2.5572 0
M  V30 36 H 5.1071 -0.146984 5.07687 0
M  V30 37 H 5.0371 -1.91871 4.90401 0
M  V30 38 H 7.5281 -0.993196 3.64615 0
M  V30 39 H 7.8411 -1.42111 7.59621 0
M  V30 40 H 6.1861 -1.28487 6.8302 0
M  V30 41 H 9.3771 -1.14877 4.53785 0
M  V30 42 H 9.5501 -1.34412 6.33906 0
M  V30 43 N 2.9562 -1.48159 -0.537278 0
M  V30 44 C 4.3722 -1.34118 -0.865129 0
M  V30 45 C 4.5722 -0.346678 -1.98495 0
M  V30 46 O 3.6282 0.234715 -2.51407 0
M  V30 47 C 4.9412 -2.73963 -1.23954 0
M  V30 48 C 6.4892 -2.82397 -1.34984 0
M  V30 49 C 6.9642 -4.22928 -1.75772 0
M  V30 50 N 8.4552 -4.25566 -1.82887 0
M  V30 51 C 9.1902 -5.31235 -2.15817 0
M  V30 52 N 8.6862 -6.47189 -2.47222 0
M  V30 53 N 10.4792 -5.18624 -2.16761 0
M  V30 54 H 2.6302 -2.1144 0.201715 0
M  V30 55 H 4.8932 -0.947598 0.0275949 0
M  V30 56 H 4.5992 -3.48264 -0.490381 0
M  V30 57 H 4.4732 -3.0702 -2.19132 0
M  V30 58 H 6.8602 -2.08356 -2.08978 0
M  V30 59 H 6.9412 -2.5297 -0.379448 0
M  V30 60 H 6.5852 -4.97482 -1.02341 0
M  V30 61 H 6.5152 -4.49794 -2.73848 0
M  V30 62 H 9.0062 -3.41924 -1.60924 0
M  V30 63 H 9.3192 -7.23564 -2.71433 0
M  V30 64 H 7.6642 -6.50476 -2.44757 0
M  V30 65 H 10.8552 -4.27056 -1.91679 0
M  V30 66 H 11.0282 -6.01078 -2.42093 0
M  V30 67 N 4.4343 0.785586 -1.36625 0
M  V30 68 C 5.3643 1.91259 -1.33949 0
M  V30 69 C 6.3453 1.68795 -0.210325 0
M  V30 70 O 7.5303 1.89854 -0.408561 0
M  V30 71 C 4.6603 3.28339 -1.13186 0
M  V30 72 C 3.6143 3.65335 -2.22967 0
M  V30 73 C 2.9403 5.00806 -1.87342 0
M  V30 74 C 4.2403 3.7352 -3.65075 0
M  V30 75 H 5.9343 1.93755 -2.28253 0
M  V30 76 H 3.4803 0.930788 -1.09874 0
M  V30 77 H 5.4333 4.06804 -1.09948 0
M  V30 78 H 4.1573 3.2624 -0.153332 0
M  V30 79 H 2.8163 2.89169 -2.25337 0
M  V30 80 H 2.4643 4.95233 -0.880545 0
M  V30 81 H 2.1643 5.26529 -2.60846 0
M  V30 82 H 3.6883 5.81687 -1.85667 0
M  V30 83 H 5.1023 4.42168 -3.64911 0
M  V30 84 H 3.4993 4.10731 -4.37516 0
M  V30 85 H 4.5693 2.74527 -3.99703 0
M  V30 86 N 5.9124 1.20967 1.01018 0
M  V30 87 C 7.1374 1.0503 1.78839 0
M  V30 88 C 7.5624 -0.395752 1.8389 0
M  V30 89 O 6.9204 -1.28529 1.27867 0
M  V30 90 C 6.9684 1.64602 3.2084 0
M  V30 91 O 6.0724 0.887988 4.02726 0
M  V30 92 H 5.4134 0.369987 0.551367 0
M  V30 93 H 7.9434 1.60399 1.27018 0
M  V30 94 H 7.9534 1.68607 3.71532 0
M  V30 95 H 6.6284 2.69841 3.16479 0
M  V30 96 H 5.2054 0.922648 3.61305 0
M  V30 97 N 7.3905 -1.2043 1.01659 0
M  V30 98 C 8.3205 -2.25466 0.607226 0
M  V30 99 C 9.3015 -1.65853 -0.377716 0
M  V30 100 O 10.4865 -1.92409 -0.263149 0
M  V30 101 C 7.6165 -3.47256 -0.0552949 0
M  V30 102 C 6.5705 -4.19462 0.850632 0
M  V30 103 C 5.8965 -5.34673 0.0538859 0
M  V30 104 C 7.1965 -4.75603 2.15868 0
M  V30 105 H 8.8905 -2.59962 1.48526 0
M  V30 106 H 6.4365 -1.2496 0.715605 0
M  V30 107 H 8.3895 -4.19917 -0.353233 0
M  V30 108 H 7.1135 -3.11924 -0.968045 0
M  V30 109 H 5.7725 -3.48667 1.13257 0
M  V30 110 H 5.4205 -4.95585 -0.860514 0
M  V30 111 H 5.1205 -5.83913 0.657192 0
M  V30 112 H 6.6445 -6.10138 -0.237598 0
M  V30 113 H 8.0585 -5.40083 1.92311 0
M  V30 114 H 6.4555 -5.3528 2.71284 0
M  V30 115 H 7.5255 -3.94346 2.82169 0
M  V30 116 N 8.8686 -0.792821 -1.36206 0
M  V30 117 C 10.1146 -0.376415 -1.99887 0
M  V30 118 C 10.4696 1.04127 -1.61788 0
M  V30 119 O 9.7626 1.71004 -0.864193 0
M  V30 120 C 9.9566 -0.481501 -3.54142 0
M  V30 121 C 9.7856 -1.90786 -4.07223 0
M  V30 122 C 8.5556 -2.53322 -4.37214 0
M  V30 123 C 10.7536 -2.87048 -4.26741 0
M  V30 124 N 8.7356 -3.8751 -4.7614 0
M  V30 125 C 10.1066 -4.06077 -4.6851 0
M  V30 126 C 12.1616 -2.8406 -4.08918 0
M  V30 127 C 10.8646 -5.22532 -4.94321 0
M  V30 128 C 12.8906 -3.99705 -4.35878 0
M  V30 129 C 12.2526 -5.1748 -4.77906 0
M  V30 130 H 8.3516 -0.185226 -0.759747 0
M  V30 131 H 10.9356 -1.03114 -1.65153 0
M  V30 132 H 9.1066 0.143154 -3.88136 0
M  V30 133 H 10.8386 -0.0410128 -4.04679 0
M  V30 134 H 7.5936 -2.04777 -4.2704 0
M  V30 135 H 8.0176 -4.5656 -4.99882 0
M  V30 136 H 12.6596 -1.94165 -3.75579 0
M  V30 137 H 10.3776 -6.1301 -5.2654 0
M  V30 138 H 13.9636 -3.98758 -4.23655 0
M  V30 139 H 12.8436 -6.05478 -4.98363 0
M  V30 140 N 10.3467 1.47872 -0.545128 0
M  V30 141 C 11.5927 2.03385 -0.0247951 0
M  V30 142 C 11.9477 1.41325 1.30556 0
M  V30 143 O 11.2407 0.5552 1.8338 0
M  V30 144 C 11.4347 3.57131 0.13867 0
M  V30 145 C 11.2637 4.34097 -1.17429 0
M  V30 146 C 10.0337 4.74458 -1.73831 0
M  V30 147 C 12.2317 4.6998 -2.08861 0
M  V30 148 N 10.2137 5.3602 -2.99258 0
M  V30 149 C 11.5847 5.31719 -3.18866 0
M  V30 150 C 13.6397 4.5191 -2.09003 0
M  V30 151 C 12.3427 5.77295 -4.29096 0
M  V30 152 C 14.3687 4.98477 -3.18237 0
M  V30 153 C 13.7307 5.60253 -4.26961 0
M  V30 154 H 9.8297 0.780339 -0.050943 0
M  V30 155 H 12.4137 1.80507 -0.729753 0
M  V30 156 H 10.5847 3.79802 0.812733 0
M  V30 157 H 12.3167 3.99282 0.659976 0
M  V30 158 H 9.0717 4.56037 -1.2778 0
M  V30 159 H 9.4957 5.71355 -3.63157 0
M  V30 160 H 14.1377 4.03516 -1.26234 0
M  V30 161 H 11.8557 6.24687 -5.12633 0
M  V30 162 H 15.4417 4.86274 -3.1942 0
M  V30 163 H 14.3217 5.95631 -5.10091 0
M  V30 164 N 11.8248 0.280983 1.55075 0
M  V30 165 C 12.7548 -0.597469 2.25727 0
M  V30 166 C 13.7358 -1.15417 1.24952 0
M  V30 167 O 14.9208 -1.18722 1.53684 0
M  V30 168 C 12.0508 -1.7789 2.98283 0
M  V30 169 C 11.0048 -1.35347 4.06036 0
M  V30 170 C 10.3308 -2.61846 4.66198 0
M  V30 171 C 11.6308 -0.499354 5.19907 0
M  V30 172 H 13.3248 -0.00824265 2.99399 0
M  V30 173 H 10.8708 -0.0025244 1.44 0
M  V30 174 H 12.8238 -2.39937 3.46422 0
M  V30 175 H 11.5478 -2.39405 2.22155 0
M  V30 176 H 10.2068 -0.756156 3.58717 0
M  V30 177 H 9.8548 -3.21632 3.86732 0
M  V30 178 H 9.5548 -2.3409 5.38958 0
M  V30 179 H 11.0788 -3.24732 5.1709 0
M  V30 180 H 12.4928 -1.02498 5.64063 0
M  V30 181 H 10.8898 -0.316424 5.99265 0
M  V30 182 H 11.9598 0.480459 4.82514 0
M  V30 183 N 13.3029 -1.57598 0.00835791 0
M  V30 184 C 14.2329 -2.1198 -0.979113 0
M  V30 185 C 15.2139 -1.03091 -1.35301 0
M  V30 186 O 16.3989 -1.30818 -1.43528 0
M  V30 187 C 13.5289 -2.62995 -2.26828 0
M  V30 188 C 12.4829 -3.76485 -2.03576 0
M  V30 189 C 11.8089 -4.13846 -3.38579 0
M  V30 190 C 13.1089 -5.0342 -1.39161 0
M  V30 191 H 14.8029 -2.94738 -0.526281 0
M  V30 192 H 12.3489 -1.41783 -0.251704 0
M  V30 193 H 14.3019 -2.99669 -2.96271 0
M  V30 194 H 13.0259 -1.7737 -2.7424 0
M  V30 195 H 11.6849 -3.40217 -1.36557 0
M  V30 196 H 11.3329 -3.25232 -3.83709 0
M  V30 197 H 11.0329 -4.90312 -3.23834 0
M  V30 198 H 12.5569 -4.53086 -4.09323 0
M  V30 199 H 13.9709 -5.37812 -1.98573 0
M  V30 200 H 12.3679 -5.84746 -1.34878 0
M  V30 201 H 13.4379 -4.83548 -0.361868 0
M  V30 202 N 14.781 0.264519 -1.55364 0
M  V30 203 C 16.006 1.01726 -1.80739 0
M  V30 204 C 16.431 1.78836 -0.583044 0
M  V30 205 O 15.789 1.75167 0.467566 0
M  V30 206 C 15.837 1.94482 -3.03659 0
M  V30 207 O 14.941 3.03386 -2.7934 0
M  V30 208 H 14.282 0.290395 -0.597132 0
M  V30 209 H 16.812 0.290854 -2.02522 0
M  V30 210 H 16.822 2.36278 -3.32621 0
M  V30 211 H 15.497 1.37772 -3.92418 0
M  V30 212 H 14.074 2.65844 -2.61498 0
M  V30 213 N 16.2591 1.48442 0.529413 0
M  V30 214 C 17.6751 1.34575 0.858004 0
M  V30 215 C 17.8751 0.3572 1.98309 0
M  V30 216 O 16.9311 -0.221379 2.51528 0
M  V30 217 C 18.2441 2.74617 1.22499 0
M  V30 218 C 19.7921 2.83109 1.33484 0
M  V30 219 C 20.2671 4.23854 1.73526 0
M  V30 220 N 21.7581 4.2653 1.80628 0
M  V30 221 C 22.4931 5.32372 2.12997 0
M  V30 222 N 21.9891 6.48491 2.43786 0
M  V30 223 N 23.7821 5.19766 2.14008 0
M  V30 224 H 15.9331 2.1133 -0.212925 0
M  V30 225 H 18.1961 0.947439 -0.0326199 0
M  V30 226 H 17.9021 3.4852 0.471905 0
M  V30 227 H 17.7761 3.08177 2.17501 0
M  V30 228 H 20.1631 2.09462 2.0787 0
M  V30 229 H 20.2441 2.53168 0.366027 0
M  V30 230 H 19.8881 4.98018 0.997013 0
M  V30 231 H 19.8181 4.5124 2.71459 0
M  V30 232 H 22.3091 3.42772 1.59108 0
M  V30 233 H 22.6221 7.24993 2.67592 0
M  V30 234 H 20.9671 6.51765 2.41304 0
M  V30 235 H 24.1581 4.28066 1.89412 0
M  V30 236 H 24.3311 6.02354 2.38902 0
M  V30 237 N 17.7372 -0.778329 1.37039 0
M  V30 238 C 18.9832 -1.53892 1.32079 0
M  V30 239 C 19.3162 -1.9396 -0.0965386 0
M  V30 240 O 18.5912 -1.63568 -1.05242 0
M  V30 241 C 18.8742 -2.80847 2.25382 0
M  V30 242 C 18.7272 -2.47076 3.75864 0
M  V30 243 C 20.0462 -3.82741 2.1725 0
M  V30 244 H 17.1652 -0.558303 0.48111 0
M  V30 245 H 19.8072 -0.893397 1.67685 0
M  V30 246 H 17.9572 -3.35931 1.95148 0
M  V30 247 H 19.6292 -1.97957 4.16666 0
M  V30 248 H 17.8722 -1.79863 3.94755 0
M  V30 249 H 18.5432 -3.37798 4.36574 0
M  V30 250 H 21.0192 -3.37133 2.43887 0
M  V30 251 H 19.8952 -4.69303 2.84686 0
M  V30 252 H 20.1562 -4.2652 1.16331 0
M  V30 253 N 19.2153 -1.21501 -1.00376 0
M  V30 254 C 20.4553 -1.04444 -1.75701 0
M  V30 255 C 20.8193 0.414644 -1.87469 0
M  V30 256 O 22.0203 0.705763 -2.59369 0
M  V30 257 C 20.2913 -1.72389 -3.13077 0
M  V30 258 S 21.8503 -1.70604 -4.04277 0
M  V30 259 H 18.6683 -0.374249 -0.604532 0
M  V30 260 H 21.2703 -1.54267 -1.20091 0
M  V30 261 H 19.9743 -2.77734 -3.02146 0
M  V30 262 H 19.5053 -1.22751 -3.73759 0
M  V30 263 H 21.5203 -0.748012 -4.9053 0
M  V30 264 N 20.6934 1.19889 -1.02296 0
M  V30 265 C 21.6234 2.25141 -0.619174 0
M  V30 266 C 22.6044 1.66051 0.368915 0
M  V30 267 O 23.7894 1.92546 0.252941 0
M  V30 268 C 20.9194 3.4728 0.0368783 0
M  V30 269 C 19.8734 4.19005 -0.872865 0
M  V30 270 C 19.1994 5.34637 -0.0822402 0
M  V30 271 C 20.4994 4.74452 -2.18387 0
M  V30 272 H 22.1934 2.59171 -1.49903 0
M  V30 273 H 19.7394 1.24579 -0.722222 0
M  V30 274 H 21.6924 4.20098 0.330958 0
M  V30 275 H 20.4164 3.12433 0.95149 0
M  V30 276 H 19.0754 3.48061 -1.15105 0
M  V30 277 H 18.7234 4.96034 0.83422 0
M  V30 278 H 18.4234 5.83557 -0.688149 0
M  V30 279 H 19.9474 6.10255 0.205238 0
M  V30 280 H 21.3614 5.39055 -1.95172 0
M  V30 281 H 19.7584 5.33834 -2.74119 0
M  V30 282 H 20.8284 3.92844 -2.84257 0
M  V30 283 N 22.1715 0.800033 1.35784 0
M  V30 284 C 23.1015 0.220184 2.3246 0
M  V30 285 C 24.0825 -0.65073 1.57161 0
M  V30 286 O 25.2675 -0.582359 1.85263 0
M  V30 287 C 22.3975 -0.637353 3.41402 0
M  V30 288 C 21.3515 0.134531 4.27789 0
M  V30 289 C 20.6775 -0.844285 5.27992 0
M  V30 290 C 21.9775 1.32979 5.05088 0
M  V30 291 H 23.6715 1.02787 2.81203 0
M  V30 292 H 21.2175 0.495717 1.35199 0
M  V30 293 H 23.1705 -1.05302 4.08031 0
M  V30 294 H 21.8945 -1.47785 2.91251 0
M  V30 295 H 20.5535 0.531296 3.6273 0
M  V30 296 H 20.2015 -1.68011 4.74111 0
M  V30 297 H 19.9015 -0.332184 5.8666 0
M  V30 298 H 21.4255 -1.2583 5.97494 0
M  V30 299 H 22.8395 0.98934 5.64699 0
M  V30 300 H 21.2365 1.77593 5.7322 0
M  V30 301 H 22.3065 2.11978 4.36111 0
M  V30 302 N 23.6496 -1.47581 0.552962 0
M  V30 303 C 24.5796 -2.32762 -0.185451 0
M  V30 304 C 25.5606 -1.43527 -0.912905 0
M  V30 305 O 26.7456 -1.72388 -0.894201 0
M  V30 306 C 23.8756 -3.25219 -1.21859 0
M  V30 307 C 22.8296 -4.23661 -0.607864 0
M  V30 308 C 22.1556 -5.05413 -1.74533 0
M  V30 309 C 23.4556 -5.20481 0.435582 0
M  V30 310 H 25.1496 -2.94749 0.525684 0
M  V30 311 H 22.6956 -1.41738 0.254251 0
M  V30 312 H 24.6486 -3.8365 -1.7433 0
M  V30 313 H 23.3726 -2.61279 -1.95961 0
M  V30 314 H 22.0316 -3.66451 -0.104489 0
M  V30 315 H 21.6796 -4.3788 -2.47529 0
M  V30 316 H 21.3796 -5.72059 -1.34249 0
M  V30 317 H 22.9036 -5.66701 -2.27338 0
M  V30 318 H 24.3176 -5.733 -0.00290157 0
M  V30 319 H 22.7146 -5.95305 0.757067 0
M  V30 320 H 23.7846 -4.66217 1.33303 0
M  V30 321 N 25.1277 -0.289203 -1.54924 0
M  V30 322 C 26.5387 0.205791 -1.85562 0
M  V30 323 C 26.8897 1.54351 -1.2112 0
M  V30 324 O 26.0147 2.10435 -0.504601 0
M  V30 325 C 26.6097 0.380177 -3.3666 0
M  V30 326 C 25.1687 0.819395 -3.67373 0
M  V30 327 C 24.3157 -0.079159 -2.77187 0
M  V30 328 H 27.2667 -0.510577 -1.50262 0
M  V30 329 H 27.2877 1.21659 -3.60526 0
M  V30 330 H 26.7997 -0.593589 -3.83534 0
M  V30 331 H 24.9007 1.80413 -3.26009 0
M  V30 332 H 25.0137 0.646957 -4.74712 0
M  V30 333 H 23.3777 0.439565 -2.50878 0
M  V30 334 H 24.1607 -1.04906 -3.26878 0
M  V30 335 N 26.6058 1.57591 -0.0167156 0
M  V30 336 C 28.0168 1.79201 0.523834 0
M  V30 337 C 28.3678 0.925796 1.72984 0
M  V30 338 O 27.4928 0.132792 2.15992 0
M  V30 339 C 28.0878 3.25 0.957091 0
M  V30 340 C 26.6468 3.47648 1.44283 0
M  V30 341 C 25.7938 2.74374 0.401757 0
M  V30 342 H 28.7448 1.56831 -0.242816 0
M  V30 343 H 28.7658 3.34031 1.82219 0
M  V30 344 H 28.2778 3.88019 0.0791415 0
M  V30 345 H 26.3788 2.89866 2.34113 0
M  V30 346 H 26.4918 4.56352 1.45877 0
M  V30 347 H 24.8558 2.39485 0.867121 0
M  V30 348 H 25.6388 3.40102 -0.467513 0
M  V30 349 N 28.0839 -0.256276 1.55502 0
M  V30 350 C 29.4949 -0.826068 1.67431 0
M  V30 351 C 29.8459 -1.86396 0.612446 0
M  V30 352 O 28.9709 -2.15031 -0.243025 0
M  V30 353 C 29.5659 -1.50512 3.03532 0
M  V30 354 C 28.1249 -2.02273 3.17431 0
M  V30 355 C 27.2719 -0.870548 2.63281 0
M  V30 356 H 30.2229 -0.0322728 1.58667 0
M  V30 357 H 30.2439 -2.37279 2.97454 0
M  V30 358 H 29.7559 -0.749484 3.80794 0
M  V30 359 H 27.8569 -2.80746 2.44974 0
M  V30 360 H 27.9699 -2.22655 4.24219 0
M  V30 361 H 26.3339 -1.26851 2.20864 0
M  V30 362 H 27.1169 -0.128149 3.43061 0
M  V30 363 N 29.562 -1.4872 -0.521534 0
M  V30 364 C 30.802 -1.58771 -1.28729 0
M  V30 365 C 31.166 -0.259394 -1.9024 0
M  V30 366 O 32.367 -0.234942 -2.67771 0
M  V30 367 C 30.638 -2.70039 -2.34124 0
M  V30 368 S 32.197 -2.9991 -3.20312 0
M  V30 369 H 29.015 -0.560251 -0.437767 0
M  V30 370 H 31.617 -1.86283 -0.593188 0
M  V30 371 H 30.321 -3.65101 -1.87429 0
M  V30 372 H 29.852 -2.44455 -3.08229 0
M  V30 373 H 31.867 -2.39855 -4.34378 0
M  V30 374 N 31.0401 0.771051 -1.3745 0
M  V30 375 C 32.0031 1.86598 -1.33093 0
M  V30 376 C 33.0031 1.59076 -0.234845 0
M  V30 377 O 34.1931 1.67145 -0.490732 0
M  V30 378 C 31.3251 3.23747 -1.06773 0
M  V30 379 H 32.5181 1.91873 -2.30488 0
M  V30 380 H 30.0711 0.970876 -1.2249 0
M  V30 381 H 30.8061 3.24148 -0.099129 0
M  V30 382 H 30.5911 3.45115 -1.86112 0
M  V30 383 H 32.0811 4.03824 -1.06377 0
M  V30 384 N 32.5182 1.22032 0.997298 0
M  V30 385 C 33.4482 1.01065 2.10495 0
M  V30 386 C 34.4292 -0.0669542 1.69968 0
M  V30 387 O 35.6142 0.0943987 1.9397 0
M  V30 388 C 32.7442 0.582874 3.42374 0
M  V30 389 C 31.6982 1.60592 3.96729 0
M  V30 390 C 31.0242 1.03412 5.24605 0
M  V30 391 C 32.3242 2.99478 4.27914 0
M  V30 392 H 34.0182 1.93708 2.28292 0
M  V30 393 H 31.5642 0.932761 1.09707 0
M  V30 394 H 33.5172 0.423332 4.19268 0
M  V30 395 H 32.2412 -0.379213 3.24391 0
M  V30 396 H 30.9002 1.75316 3.21963 0
M  V30 397 H 30.5482 0.063518 5.0296 0
M  V30 398 H 30.2482 1.71754 5.61938 0
M  V30 399 H 31.7722 0.886066 6.04137 0
M  V30 400 H 33.1862 2.88153 4.95622 0
M  V30 401 H 31.5832 3.64903 4.76409 0
M  V30 402 H 32.6532 3.49742 3.3587 0
M  V30 403 N 33.9963 -1.19345 1.0293 0
M  V30 404 C 35.2423 -1.89318 0.727083 0
M  V30 405 C 35.5753 -1.79446 -0.742483 0
M  V30 406 O 34.8503 -1.1871 -1.54072 0
M  V30 407 C 35.1333 -3.40238 1.17942 0
M  V30 408 C 34.9863 -3.58979 2.71024 0
M  V30 409 C 36.3053 -4.33479 0.760548 0
M  V30 410 H 33.4243 -0.687475 0.265606 0
M  V30 411 H 36.0663 -1.40477 1.2793 0
M  V30 412 H 34.2163 -3.81964 0.709608 0
M  V30 413 H 35.8883 -3.26421 3.25955 0
M  V30 414 H 34.1313 -3.02018 3.11396 0
M  V30 415 H 34.8023 -4.64823 2.9773 0
M  V30 416 H 37.2783 -3.99469 1.16464 0
M  V30 417 H 36.1543 -5.37664 1.10493 0
M  V30 418 H 36.4153 -4.40813 -0.337063 0
M  V30 419 N 35.4744 -0.807222 -1.35358 0
M  V30 420 C 36.4044 -0.232509 -2.3234 0
M  V30 421 C 37.3854 0.642386 -1.57504 0
M  V30 422 O 38.5704 0.572526 -1.85569 0
M  V30 423 C 35.7004 0.619238 -3.41735 0
M  V30 424 C 34.6544 -0.157215 -4.27711 0
M  V30 425 C 33.9804 0.816273 -5.28433 0
M  V30 426 C 35.2804 -1.35656 -5.04376 0
M  V30 427 H 36.9744 -1.04276 -2.80654 0
M  V30 428 H 34.5204 -0.50288 -1.34934 0
M  V30 429 H 36.4734 1.03137 -4.08584 0
M  V30 430 H 35.1974 1.46239 -2.92031 0
M  V30 431 H 33.8564 -0.550525 -3.62443 0
M  V30 432 H 33.5044 1.65494 -4.74996 0
M  V30 433 H 33.2044 0.301067 -5.86828 0
M  V30 434 H 34.7284 1.22659 -5.98153 0
M  V30 435 H 36.1424 -1.01927 -5.64166 0
M  V30 436 H 34.5394 -1.8063 -5.7227 0
M  V30 437 H 35.6094 -2.14288 -4.34981 0
M  V30 438 N 36.9525 1.47285 -0.560781 0
M  V30 439 C 37.9155 2.28535 0.174488 0
M  V30 440 C 38.9155 1.37153 0.839388 0
M  V30 441 O 40.1055 1.59748 0.694702 0
M  V30 442 C 37.2375 3.16934 1.25561 0
M  V30 443 H 38.4305 2.95012 -0.539262 0
M  V30 444 H 35.9835 1.53034 -0.317865 0
M  V30 445 H 36.7185 2.55157 2.00164 0
M  V30 446 H 36.5035 3.8419 0.783604 0
M  V30 447 H 37.9935 3.78143 1.77193 0
M  V30 448 N 38.4306 0.297415 1.54768 0
M  V30 449 C 39.6786 -0.312295 1.99673 0
M  V30 450 C 39.9996 -1.54686 1.18732 0
M  V30 451 O 39.2696 -1.93854 0.282382 0
M  V30 452 H 37.8496 -0.118381 0.73756 0
M  V30 453 H 40.5116 0.407915 1.90583 0
M  V30 454 H 39.6076 -0.586813 3.06534 0
M  V30 455 N 39.9087 -1.5758 0.0250728 0
M  V30 456 C 41.1547 -1.91917 -0.655413 0
M  V30 457 C 41.4877 -0.901433 -1.72011 0
M  V30 458 O 40.7627 0.0764069 -1.9435 0
M  V30 459 C 41.0457 -3.36751 -1.27558 0
M  V30 460 C 40.8987 -4.49258 -0.220719 0
M  V30 461 C 42.2177 -3.81469 -2.19475 0
M  V30 462 H 39.3367 -0.697925 -0.23679 0
M  V30 463 H 41.9787 -1.89825 0.0815036 0
M  V30 464 H 40.1287 -3.38664 -1.90365 0
M  V30 465 H 41.8007 -4.59478 0.409601 0
M  V30 466 H 40.0437 -4.31415 0.454264 0
M  V30 467 H 40.7147 -5.47618 -0.694175 0
M  V30 468 H 43.1907 -3.81266 -1.66659 0
M  V30 469 H 42.0667 -4.83512 -2.59822 0
M  V30 470 H 42.3277 -3.16744 -3.08424 0
M  V30 471 N 41.3868 0.248026 -1.55636 0
M  V30 472 C 42.7978 0.817177 -1.67866 0
M  V30 473 C 43.1488 1.86069 -0.622322 0
M  V30 474 O 42.2738 2.15157 0.231618 0
M  V30 475 C 42.8688 1.489 -3.04326 0
M  V30 476 C 41.4278 2.00587 -3.185 0
M  V30 477 C 40.5748 0.856573 -2.63739 0
M  V30 478 H 43.5258 0.0238579 -1.58682 0
M  V30 479 H 43.5468 2.35698 -2.98708 0
M  V30 480 H 43.0588 0.729279 -3.81186 0
M  V30 481 H 41.1598 2.79443 -2.4646 0
M  V30 482 H 41.2728 2.20402 -4.25393 0
M  V30 483 H 39.6368 1.25678 -2.21534 0
M  V30 484 H 40.4198 0.109953 -3.43124 0
M  V30 485 N 42.8649 1.48995 0.513639 0
M  V30 486 C 44.0899 1.61792 1.29762 0
M  V30 487 C 44.5149 0.284475 1.85936 0
M  V30 488 O 43.8729 -0.746185 1.65232 0
M  V30 489 C 43.9209 2.67993 2.41272 0
M  V30 490 O 43.0249 2.26287 3.44772 0
M  V30 491 H 42.3659 0.541963 0.38363 0
M  V30 492 H 44.8959 1.95097 0.616307 0
M  V30 493 H 44.9059 2.89772 2.87221 0
M  V30 494 H 43.5809 3.64791 1.9975 0
M  V30 495 H 42.1579 2.14788 3.04829 0
M  V30 496 N 44.343 -0.763751 1.37857 0
M  V30 497 C 45.568 -1.55805 1.36893 0
M  V30 498 C 45.993 -1.88054 -0.0416135 0
M  V30 499 O 45.351 -1.49825 -1.02089 0
M  V30 500 C 45.399 -2.84012 2.22192 0
M  V30 501 O 44.503 -3.78732 1.63204 0
M  V30 502 H 43.844 -0.471638 0.46739 0
M  V30 503 H 46.374 -0.944657 1.81487 0
M  V30 504 H 46.384 -3.33037 2.35691 0
M  V30 505 H 45.059 -2.59869 3.24716 0
M  V30 506 H 43.636 -3.37402 1.58791 0
M  V30 507 N 45.8211 -1.22559 -0.990812 0
M  V30 508 C 47.0461 -1.07862 -1.77145 0
M  V30 509 C 47.4711 0.366447 -1.84496 0
M  V30 510 O 46.8291 1.26478 -1.29896 0
M  V30 511 C 46.8771 -1.69686 -3.18181 0
M  V30 512 O 45.9811 -0.951946 -4.01263 0
M  V30 513 H 45.3221 -0.378712 -0.545411 0
M  V30 514 H 47.8521 -1.62399 -1.2445 0
M  V30 515 H 47.8621 -1.74496 -3.68802 0
M  V30 516 H 46.5371 -2.74841 -3.12146 0
M  V30 517 H 45.1141 -0.980011 -3.59792 0
M  V30 518 N 47.2992 1.18797 -1.03562 0
M  V30 519 C 48.5242 1.9314 -0.755764 0
M  V30 520 C 48.9492 1.7537 0.68022 0
M  V30 521 O 48.3072 1.06046 1.47051 0
M  V30 522 C 48.3552 3.42747 -1.12058 0
M  V30 523 O 47.4592 4.11683 -0.243124 0
M  V30 524 H 46.8002 0.602724 -0.278604 0
M  V30 525 H 49.3302 1.50678 -1.3841 0
M  V30 526 H 49.3402 3.93437 -1.08035 0
M  V30 527 H 48.0152 3.55002 -2.16672 0
M  V30 528 H 46.5922 3.71323 -0.342539 0
M  V30 529 N 48.7773 0.814389 1.34928 0
M  V30 530 C 49.7273 0.202752 2.27097 0
M  V30 531 C 50.7113 -0.62799 1.48139 0
M  V30 532 O 51.9033 -0.483969 1.70255 0
M  V30 533 C 49.0323 -0.64146 3.37254 0
M  V30 534 C 48.1183 0.19944 4.23631 0
M  V30 535 N 48.5093 1.26628 4.89693 0
M  V30 536 C 46.8073 -0.0176433 4.45997 0
M  V30 537 C 47.5083 1.78031 5.53787 0
M  V30 538 N 46.4843 1.08553 5.32651 0
M  V30 539 H 50.2863 1.01893 2.75672 0
M  V30 540 H 47.8003 0.656332 1.48546 0
M  V30 541 H 49.7973 -1.09575 4.02243 0
M  V30 542 H 48.4573 -1.4559 2.9023 0
M  V30 543 H 49.4683 1.64901 4.90946 0
M  V30 544 H 46.1453 -0.800601 4.09752 0
M  V30 545 H 47.5353 2.67236 6.16469 0
M  V30 546 N 50.2554 -1.46986 0.568584 0
M  V30 547 C 51.6664 -1.86188 0.138219 0
M  V30 548 C 52.0174 -1.47388 -1.29504 0
M  V30 549 O 51.1424 -0.88219 -1.97602 0
M  V30 550 C 51.7374 -3.3792 0.244065 0
M  V30 551 C 50.2964 -3.76171 -0.131335 0
M  V30 552 C 49.4434 -2.71027 0.586465 0
M  V30 553 H 52.3944 -1.38342 0.777645 0
M  V30 554 H 52.4154 -3.76729 -0.534351 0
M  V30 555 H 51.9274 -3.66128 1.28731 0
M  V30 556 H 50.0284 -3.5358 -1.17526 0
M  V30 557 H 50.1414 -4.78523 0.235146 0
M  V30 558 H 48.5054 -2.54684 0.0282722 0
M  V30 559 H 49.2884 -3.02077 1.63109 0
M  V30 560 N 51.7335 -0.305618 -1.54608 0
M  V30 561 C 52.6655 0.602161 -2.21149 0
M  V30 562 C 53.6785 1.09394 -1.20569 0
M  V30 563 O 54.8675 1.0106 -1.47136 0
M  V30 564 C 51.9675 1.83692 -2.84799 0
M  V30 565 C 51.1405 1.48686 -4.11353 0
M  V30 566 C 50.1995 2.57725 -4.58764 0
M  V30 567 O 49.2255 2.22623 -5.23858 0
M  V30 568 N 50.4275 3.88346 -4.31471 0
M  V30 569 H 53.1925 0.0324966 -2.99682 0
M  V30 570 H 50.7535 -0.128021 -1.61393 0
M  V30 571 H 52.7455 2.55994 -3.13448 0
M  V30 572 H 51.3155 2.31486 -2.10078 0
M  V30 573 H 50.5355 0.596269 -3.89664 0
M  V30 574 H 51.8235 1.22842 -4.93748 0
M  V30 575 H 51.2215 4.19671 -3.79331 0
M  V30 576 H 49.7785 4.56932 -4.64818 0
M  V30 577 N 53.2116 1.57565 -0.0334293 0
M  V30 578 C 54.6226 1.79746 0.504798 0
M  V30 579 C 54.9736 0.944091 1.71992 0
M  V30 580 O 54.0986 0.155694 2.15839 0
M  V30 581 C 54.6936 3.25997 0.922567 0
M  V30 582 C 53.2526 3.49159 1.40588 0
M  V30 583 C 52.3996 2.74785 0.372633 0
M  V30 584 H 55.3506 1.56565 -0.259436 0
M  V30 585 H 55.3716 3.35945 1.78666 0
M  V30 586 H 54.8836 3.88081 0.0379825 0
M  V30 587 H 52.9846 2.92332 2.31025 0
M  V30 588 H 53.0976 4.57873 1.41028 0
M  V30 589 H 51.4616 2.40391 0.841672 0
M  V30 590 H 52.2446 3.39587 -0.503559 0
M  V30 591 N 54.6897 -0.239769 1.55765 0
M  V30 592 C 55.9297 -0.974076 1.79697 0
M  V30 593 C 56.2937 -1.82249 0.604088 0
M  V30 594 O 57.4947 -2.58913 0.722324 0
M  V30 595 C 55.7657 -1.80595 3.08416 0
M  V30 596 S 57.3247 -2.59838 3.53596 0
M  V30 597 H 54.1427 -0.327524 0.63107 0
M  V30 598 H 56.7447 -0.241277 1.94005 0
M  V30 599 H 55.4487 -1.17249 3.93295 0
M  V30 600 H 54.9797 -2.58137 2.96865 0
M  V30 601 H 56.9947 -3.82987 3.15492 0
M  V30 602 N 56.1678 -1.49265 -0.50573 0
M  V30 603 C 57.0998 -1.617 -1.62437 0
M  V30 604 C 58.1128 -0.499924 -1.54934 0
M  V30 605 O 59.3018 -0.771785 -1.60953 0
M  V30 606 C 56.4018 -1.5533 -3.01207 0
M  V30 607 C 55.5748 -2.8249 -3.33943 0
M  V30 608 C 54.6338 -2.69238 -4.52103 0
M  V30 609 O 53.6598 -3.43167 -4.5412 0
M  V30 610 N 54.8618 -1.80468 -5.51735 0
M  V30 611 H 57.6268 -2.58177 -1.52199 0
M  V30 612 H 55.1878 -1.46294 -0.693511 0
M  V30 613 H 57.1798 -1.44125 -3.78167 0
M  V30 614 H 55.7498 -0.667297 -3.05395 0
M  V30 615 H 54.9698 -3.08081 -2.45926 0
M  V30 616 H 56.2578 -3.66802 -3.5261 0
M  V30 617 H 55.6558 -1.19653 -5.52901 0
M  V30 618 H 54.2128 -1.75188 -6.27816 0
M  V30 619 N 57.6459 0.756429 -1.3826 0
M  V30 620 C 58.8949 1.51082 -1.3363 0
M  V30 621 C 59.2079 1.95467 0.0720068 0
M  V30 622 O 60.4139 2.7043 0.240834 0
M  V30 623 C 58.8699 2.72893 -2.34644 0
M  V30 624 C 58.4779 2.35544 -3.81081 0
M  V30 625 C 60.2219 3.50791 -2.39052 0
M  V30 626 C 58.1289 3.53948 -4.73787 0
M  V30 627 H 57.0589 0.56727 -0.49671 0
M  V30 628 H 59.7099 0.827147 -1.638 0
M  V30 629 H 58.0919 3.43227 -1.97513 0
M  V30 630 H 59.2659 1.72894 -4.27135 0
M  V30 631 H 57.5809 1.70786 -3.79764 0
M  V30 632 H 60.1779 4.38823 -3.05513 0
M  V30 633 H 60.5209 3.91745 -1.40861 0
M  V30 634 H 61.0539 2.87467 -2.74968 0
M  V30 635 H 57.7929 3.18064 -5.73163 0
M  V30 636 H 57.3129 4.15651 -4.32428 0
M  V30 637 H 58.9919 4.20566 -4.91663 0
M  V30 638 N 59.124 1.23083 0.984299 0
M  V30 639 C 60.054 1.03292 2.09411 0
M  V30 640 C 61.035 -0.048923 1.7003 0
M  V30 641 O 62.22 0.114967 1.93859 0
M  V30 642 C 59.35 0.619155 3.41736 0
M  V30 643 C 58.304 1.64791 3.95004 0
M  V30 644 C 57.63 1.0897 5.23478 0
M  V30 645 C 58.93 3.03999 4.24714 0
M  V30 646 H 60.624 1.96119 2.26225 0
M  V30 647 H 58.17 0.944344 1.08711 0
M  V30 648 H 60.123 0.467777 4.18796 0
M  V30 649 H 58.847 -0.344786 3.24775 0
M  V30 650 H 57.506 1.78721 3.20085 0
M  V30 651 H 57.154 0.11686 5.02864 0
M  V30 652 H 56.854 1.77704 5.60085 0
M  V30 653 H 58.378 0.950093 6.03163 0
M  V30 654 H 59.792 2.93393 4.92538 0
M  V30 655 H 58.189 3.69936 4.72512 0
M  V30 656 H 59.259 3.53285 3.32142 0
M  V30 657 N 60.6021 -1.18246 1.0419 0
M  V30 658 C 61.5491 -2.2192 0.634037 0
M  V30 659 C 62.5191 -1.62179 -0.358765 0
M  V30 660 O 63.7041 -1.89122 -0.252466 0
M  V30 661 C 60.8441 -3.451 0.00445535 0
M  V30 662 C 59.9571 -4.19174 1.04487 0
M  V30 663 C 59.0921 -5.29813 0.383676 0
M  V30 664 C 58.1311 -5.9566 1.4091 0
M  V30 665 N 57.2681 -6.97834 0.772784 0
M  V30 666 H 62.1081 -2.56164 1.52263 0
M  V30 667 H 59.6451 -1.25843 0.761701 0
M  V30 668 H 61.6031 -4.15485 -0.377919 0
M  V30 669 H 60.2331 -3.11472 -0.847652 0
M  V30 670 H 59.2851 -3.47604 1.54518 0
M  V30 671 H 60.5971 -4.64267 1.82368 0
M  V30 672 H 59.7511 -6.06677 -0.0528366 0
M  V30 673 H 58.4901 -4.85825 -0.427208 0
M  V30 674 H 57.4951 -5.17535 1.85574 0
M  V30 675 H 58.7201 -6.4173 2.22171 0
M  V30 676 H 56.6661 -6.55998 -0.0177708 0
M  V30 677 H 56.5831 -7.41186 1.48928 0
M  V30 678 H 57.8511 -7.78665 0.36071 0
M  V30 679 N 62.0802 -0.821533 -1.34494 0
M  V30 680 C 63.4962 -0.507117 -1.51329 0
M  V30 681 C 63.6962 0.968964 -1.76673 0
M  V30 682 O 62.7522 1.75348 -1.81685 0
M  V30 683 C 64.0652 -1.36544 -2.67911 0
M  V30 684 C 65.6132 -1.36242 -2.81793 0
M  V30 685 C 66.0882 -2.2052 -4.01416 0
M  V30 686 N 67.5792 -2.18136 -4.08621 0
M  V30 687 C 68.3142 -2.80095 -5.00334 0
M  V30 688 N 67.8102 -3.51039 -5.9728 0
M  V30 689 N 69.6032 -2.69656 -4.93196 0
M  V30 690 H 61.7542 -1.77729 -1.16302 0
M  V30 691 H 64.0172 -0.757291 -0.570276 0
M  V30 692 H 63.7232 -2.41361 -2.55808 0
M  V30 693 H 63.5972 -1.02917 -3.62888 0
M  V30 694 H 65.9842 -0.322041 -2.93338 0
M  V30 695 H 66.0652 -1.73866 -1.87628 0
M  V30 696 H 65.7092 -3.24607 -3.90631 0
M  V30 697 H 65.6392 -1.80247 -4.94791 0
M  V30 698 H 68.1302 -1.6653 -3.39229 0
M  V30 699 H 68.4432 -3.95565 -6.63889 0
M  V30 700 H 66.7882 -3.55145 -5.97409 0
M  V30 701 H 69.9792 -2.13808 -4.16418 0
M  V30 702 H 70.1522 -3.1823 -5.64476 0
M  V30 703 N 63.5583 1.46682 -0.576371 0
M  V30 704 C 64.8073 2.01619 -0.0572825 0
M  V30 705 C 65.1203 1.45417 1.30818 0
M  V30 706 O 66.3263 1.92133 1.91825 0
M  V30 707 C 64.7823 3.59863 -0.0518371 0
M  V30 708 C 64.3903 4.25059 -1.41523 0
M  V30 709 C 66.1343 4.2248 0.413639 0
M  V30 710 C 64.0413 5.75364 -1.36785 0
M  V30 711 H 62.9713 0.753794 -0.0176448 0
M  V30 712 H 65.6223 1.68481 -0.727076 0
M  V30 713 H 64.0043 3.90048 0.683994 0
M  V30 714 H 65.1783 4.06491 -2.17029 0
M  V30 715 H 63.4933 3.7451 -1.8202 0
M  V30 716 H 66.0903 5.3265 0.467779 0
M  V30 717 H 66.4333 3.90976 1.42982 0
M  V30 718 H 66.9663 3.96897 -0.267929 0
M  V30 719 H 63.7053 6.11518 -2.36063 0
M  V30 720 H 63.2253 5.96214 -0.654895 0
M  V30 721 H 64.9043 6.37955 -1.07805 0
M  V30 722 N 65.0364 0.313813 1.54444 0
M  V30 723 C 66.2844 -0.291099 1.99993 0
M  V30 724 C 66.6054 -1.53418 1.20366 0
M  V30 725 O 65.8754 -1.93544 0.302927 0
M  V30 726 H 64.4554 -0.110552 0.738774 0
M  V30 727 H 67.1174 0.428106 1.9014 0
M  V30 728 H 66.2134 -0.554268 3.07139 0
M  V30 729 N 66.5145 -1.57545 0.0417849 0
M  V30 730 C 67.4645 -2.07483 -0.945247 0
M  V30 731 C 68.4485 -0.977983 -1.27767 0
M  V30 732 O 69.6405 -1.24142 -1.26166 0
M  V30 733 C 66.7695 -2.61576 -2.22335 0
M  V30 734 C 65.8555 -3.78213 -1.91874 0
M  V30 735 N 66.2465 -4.88344 -1.31733 0
M  V30 736 C 64.5445 -3.8694 -2.21796 0
M  V30 737 C 65.2455 -5.69462 -1.1869 0
M  V30 738 N 64.2215 -5.16771 -1.68666 0
M  V30 739 H 68.0235 -2.90029 -0.475441 0
M  V30 740 H 65.5375 -1.61581 -0.162911 0
M  V30 741 H 67.5345 -2.95651 -2.93932 0
M  V30 742 H 66.1945 -1.80465 -2.69931 0
M  V30 743 H 67.2055 -5.08335 -0.990729 0
M  V30 744 H 63.8825 -3.16757 -2.71977 0
M  V30 745 H 65.2725 -6.68023 -0.720793 0
M  V30 746 N 67.9926 0.231505 -1.5589 0
M  V30 747 C 68.9556 1.27028 -1.90779 0
M  V30 748 C 69.9556 1.40308 -0.785507 0
M  V30 749 O 71.1456 1.38744 -1.05336 0
M  V30 750 C 68.2776 2.64566 -2.14983 0
M  V30 751 H 69.4706 0.973017 -2.83677 0
M  V30 752 H 67.0236 0.471486 -1.49019 0
M  V30 753 H 67.7586 2.99406 -1.24604 0
M  V30 754 H 67.5436 2.56305 -2.96732 0
M  V30 755 H 69.0336 3.39543 -2.43105 0
M  V30 756 N 69.4707 1.49531 0.497807 0
M  V30 757 C 70.7167 1.59415 1.25358 0
M  V30 758 C 71.0497 0.281422 1.9215 0
M  V30 759 O 70.3247 -0.715249 1.80871 0
M  V30 760 C 70.6077 2.75566 2.3181 0
M  V30 761 C 70.4607 4.16642 1.69498 0
M  V30 762 C 71.7797 2.87347 3.33346 0
M  V30 763 H 68.8987 0.580244 0.454408 0
M  V30 764 H 71.5407 1.81827 0.551262 0
M  V30 765 H 69.6907 2.56587 2.91711 0
M  V30 766 H 71.3627 4.47145 1.13399 0
M  V30 767 H 69.6057 4.22141 0.998978 0
M  V30 768 H 70.2767 4.93792 2.46725 0
M  V30 769 H 72.7527 3.04634 2.83438 0
M  V30 770 H 71.6287 3.70289 4.05188 0
M  V30 771 H 71.8897 1.96834 3.95865 0
M  V30 772 N 70.9488 -0.749086 1.3866 0
M  V30 773 C 72.3648 -1.05276 1.19955 0
M  V30 774 C 72.5648 -2.01435 0.05134 0
M  V30 775 O 71.6208 -2.45232 -0.60147 0
M  V30 776 C 72.9338 -1.62853 2.52783 0
M  V30 777 C 74.4818 -1.75002 2.59506 0
M  V30 778 C 74.9568 -2.35991 3.92521 0
M  V30 779 N 76.4478 -2.43416 3.94085 0
M  V30 780 C 77.1828 -2.91511 4.9377 0
M  V30 781 N 76.6788 -3.39608 6.03853 0
M  V30 782 N 78.4718 -2.90592 4.81157 0
M  V30 783 H 70.6228 -0.111066 2.12109 0
M  V30 784 H 72.8858 -0.111901 0.941373 0
M  V30 785 H 72.5918 -0.99664 3.37283 0
M  V30 786 H 72.4658 -2.61854 2.715 0
M  V30 787 H 74.8528 -2.37317 1.75398 0
M  V30 788 H 74.9338 -0.74693 2.44652 0
M  V30 789 H 74.5778 -1.74308 4.77053 0
M  V30 790 H 74.5078 -3.3695 4.04688 0
M  V30 791 H 76.9988 -2.09405 3.14576 0
M  V30 792 H 77.3118 -3.74775 6.75843 0
M  V30 793 H 75.6568 -3.37653 6.07466 0
M  V30 794 H 78.8478 -2.52332 3.94267 0
M  V30 795 H 79.0208 -3.27762 5.58996 0
M  V30 796 N 72.4269 -1.23603 -0.977757 0
M  V30 797 C 73.6729 -1.07129 -1.72195 0
M  V30 798 C 74.0059 0.390501 -1.90233 0
M  V30 799 O 73.2809 1.28902 -1.45653 0
M  V30 800 C 73.5639 -1.80031 -3.11867 0
M  V30 801 C 73.4169 -3.33899 -3.01383 0
M  V30 802 C 74.7359 -1.56492 -4.11337 0
M  V30 803 H 71.8549 -0.390571 -0.624999 0
M  V30 804 H 74.4969 -1.52142 -1.13811 0
M  V30 805 H 72.6469 -1.41768 -3.6171 0
M  V30 806 H 74.3189 -3.81699 -2.59043 0
M  V30 807 H 72.5619 -3.62796 -2.37827 0
M  V30 808 H 73.2329 -3.801 -4.00285 0
M  V30 809 H 75.7089 -1.89757 -3.70313 0
M  V30 810 H 74.5849 -2.09973 -5.07151 0
M  V30 811 H 74.8459 -0.500874 -4.39254 0
M  V30 812 N 73.905 1.17692 -1.04816 0
M  V30 813 C 75.153 1.87488 -0.754497 0
M  V30 814 C 75.474 1.81205 0.720407 0
M  V30 815 O 74.744 1.23544 1.52032 0
M  V30 816 H 73.324 0.694101 -0.276102 0
M  V30 817 H 75.986 1.42793 -1.32651 0
M  V30 818 H 75.082 2.93328 -1.06606 0
M  V30 819 N 75.3831 0.828654 1.34056 0
M  V30 820 C 76.3461 0.259927 2.27721 0
M  V30 821 C 77.3461 -0.565478 1.50529 0
M  V30 822 O 78.5361 -0.38075 1.69988 0
M  V30 823 C 75.6681 -0.634944 3.34935 0
M  V30 824 H 76.8611 1.0863 2.79534 0
M  V30 825 H 74.4141 0.600951 1.44285 0
M  V30 826 H 75.1491 -1.48416 2.88346 0
M  V30 827 H 74.9341 -0.0444999 3.92075 0
M  V30 828 H 76.4241 -1.02648 4.04788 0
M  V30 829 N 76.8612 -1.46375 0.584142 0
M  V30 830 C 78.1072 -2.02678 0.0703716 0
M  V30 831 C 78.4402 -1.4545 -1.28678 0
M  V30 832 O 77.7152 -0.62014 -1.84349 0
M  V30 833 C 77.9982 -3.60099 0.00614674 0
M  V30 834 C 77.8512 -4.27709 1.3923 0
M  V30 835 C 79.1702 -4.34598 -0.693742 0
M  V30 836 H 76.2892 -0.736504 0.027047 0
M  V30 837 H 78.9312 -1.74501 0.751615 0
M  V30 838 H 77.0812 -3.84236 -0.574009 0
M  V30 839 H 78.7532 -4.14832 2.01773 0
M  V30 840 H 76.9962 -3.87016 1.95962 0
M  V30 841 H 77.6672 -5.36478 1.29982 0
M  V30 842 H 80.1432 -4.15615 -0.200869 0
M  V30 843 H 79.0192 -5.44318 -0.707714 0
M  V30 844 H 79.2802 -4.05759 -1.75533 0
M  V30 845 N 78.3393 -0.321999 -1.54275 0
M  V30 846 C 79.2893 0.560185 -2.21011 0
M  V30 847 C 80.2733 1.08283 -1.19011 0
M  V30 848 O 81.4653 1.02011 -1.44647 0
M  V30 849 C 78.5943 1.72137 -2.97025 0
M  V30 850 C 77.6803 1.21369 -4.06363 0
M  V30 851 N 78.0713 0.425566 -5.04007 0
M  V30 852 C 76.3693 1.49255 -4.20284 0
M  V30 853 C 77.0703 0.152601 -5.815 0
M  V30 854 N 76.0463 0.738294 -5.38563 0
M  V30 855 H 79.8483 -0.049265 -2.93859 0
M  V30 856 H 77.3623 -0.127779 -1.61897 0
M  V30 857 H 79.3593 2.36512 -3.43319 0
M  V30 858 H 78.0193 2.33431 -2.25699 0
M  V30 859 H 79.0303 0.068551 -5.17855 0
M  V30 860 H 75.7073 2.11145 -3.60172 0
M  V30 861 H 77.0973 -0.481764 -6.70171 0
M  V30 862 N 79.8174 1.5752 -0.0501392 0
M  V30 863 C 80.7474 2.14502 0.922566 0
M  V30 864 C 81.7284 1.06642 1.3252 0
M  V30 865 O 82.9134 1.34577 1.4001 0
M  V30 866 C 80.0434 2.68916 2.19776 0
M  V30 867 C 78.9974 3.8175 1.93523 0
M  V30 868 C 78.3234 4.22677 3.27487 0
M  V30 869 C 79.6234 5.06932 1.25765 0
M  V30 870 H 81.3174 2.9603 0.447952 0
M  V30 871 H 78.8634 1.42401 0.214024 0
M  V30 872 H 80.8164 3.07419 2.88222 0
M  V30 873 H 79.5404 1.84578 2.69441 0
M  V30 874 H 78.1994 3.43718 1.27489 0
M  V30 875 H 77.8474 3.35291 3.74952 0
M  V30 876 H 77.5474 4.98725 3.1072 0
M  V30 877 H 79.0714 4.63779 3.97166 0
M  V30 878 H 80.4854 5.42888 1.84244 0
M  V30 879 H 78.8824 5.88116 1.19328 0
M  V30 880 H 79.9524 4.84337 0.233536 0
M  V30 881 N 81.2955 -0.223234 1.56011 0
M  V30 882 C 82.2275 -1.30006 1.88762 0
M  V30 883 C 83.2405 -1.43129 0.775746 0
M  V30 884 O 84.4295 -1.44057 1.05403 0
M  V30 885 C 81.5295 -2.67589 2.07965 0
M  V30 886 C 80.7025 -2.76434 3.38973 0
M  V30 887 C 79.7615 -3.95019 3.47629 0
M  V30 888 O 78.7875 -3.83436 4.20672 0
M  V30 889 N 79.9895 -5.09249 2.78649 0
M  V30 890 H 82.7545 -1.02238 2.81722 0
M  V30 891 H 80.3155 -0.413278 1.56536 0
M  V30 892 H 82.3075 -3.45297 2.11073 0
M  V30 893 H 80.8775 -2.87964 1.21638 0
M  V30 894 H 80.0975 -1.85216 3.47978 0
M  V30 895 H 81.3855 -2.79313 4.25278 0
M  V30 896 H 80.7835 -5.21556 2.19081 0
M  V30 897 H 79.3405 -5.85007 2.8742 0
M  V30 898 N 82.7736 -1.49793 -0.48987 0
M  V30 899 C 84.1846 -1.52914 -1.07118 0
M  V30 900 C 84.5356 -0.321738 -1.93544 0
M  V30 901 O 83.6606 0.567338 -2.08831 0
M  V30 902 C 84.2556 -2.771 -1.94938 0
M  V30 903 C 82.8146 -2.82963 -2.48212 0
M  V30 904 C 81.9616 -2.46972 -1.26096 0
M  V30 905 H 84.9126 -1.56329 -0.273289 0
M  V30 906 H 84.9336 -2.57892 -2.79771 0
M  V30 907 H 84.4456 -3.64959 -1.32009 0
M  V30 908 H 82.5466 -1.99411 -3.14748 0
M  V30 909 H 82.6596 -3.85406 -2.84603 0
M  V30 910 H 81.0236 -1.98994 -1.58976 0
M  V30 911 H 81.8066 -3.37118 -0.648581 0
M  V30 912 N 84.2517 0.741722 -1.39055 0
M  V30 913 C 85.4977 1.50234 -1.37118 0
M  V30 914 C 85.8527 1.92368 0.0350439 0
M  V30 915 O 85.1457 1.63422 1.00019 0
M  V30 916 C 85.3397 2.7592 -2.27163 0
M  V30 917 C 85.1687 2.46074 -3.76401 0
M  V30 918 C 83.9387 2.38704 -4.45364 0
M  V30 919 C 86.1367 2.12062 -4.68545 0
M  V30 920 N 84.1187 2.01258 -5.79973 0
M  V30 921 C 85.4897 1.85005 -5.91754 0
M  V30 922 C 87.5447 1.98473 -4.56632 0
M  V30 923 C 86.2477 1.4573 -7.04383 0
M  V30 924 C 88.2737 1.60599 -5.69176 0
M  V30 925 C 87.6357 1.34423 -6.91455 0
M  V30 926 H 83.7347 0.548858 -0.557027 0
M  V30 927 H 86.3187 0.862642 -1.74547 0
M  V30 928 H 84.4897 3.3768 -1.91904 0
M  V30 929 H 86.2217 3.42068 -2.16267 0
M  V30 930 H 82.9767 2.55574 -3.98721 0
M  V30 931 H 83.4007 1.85147 -6.51191 0
M  V30 932 H 88.0427 2.17381 -3.62637 0
M  V30 933 H 85.7607 1.25562 -7.98286 0
M  V30 934 H 89.3467 1.507 -5.61944 0
M  V30 935 H 88.2267 1.05555 -7.77064 0
M  V30 936 N 85.7298 1.2412 0.971189 0
M  V30 937 C 86.9578 1.10575 1.74874 0
M  V30 938 C 87.3728 -0.342017 1.85676 0
M  V30 939 O 86.7298 -1.23617 1.34258 0
M  V30 940 C 86.7808 1.73579 3.171 0
M  V30 941 O 86.5018 3.12695 3.06844 0
M  V30 942 C 88.0028 1.65598 4.11208 0
M  V30 943 H 85.2228 0.386504 0.548503 0
M  V30 944 H 87.7668 1.64156 1.21955 0
M  V30 945 H 85.9218 1.24009 3.67016 0
M  V30 946 H 86.3358 3.43412 3.96445 0
M  V30 947 H 87.8098 2.1437 5.08674 0
M  V30 948 H 88.2868 0.616532 4.34851 0
M  V30 949 H 88.8928 2.14578 3.67201 0
M  V30 950 N 87.2079 -1.17134 1.05439 0
M  V30 951 C 88.4359 -1.91372 0.786414 0
M  V30 952 C 88.8509 -1.76955 -0.658202 0
M  V30 953 O 88.2079 -1.10838 -1.44987 0
M  V30 954 C 88.2589 -3.42356 1.1608 0
M  V30 955 O 87.9799 -3.56332 2.54871 0
M  V30 956 C 89.4809 -4.33663 0.919322 0
M  V30 957 H 86.7009 -0.607118 0.285743 0
M  V30 958 H 89.2449 -1.48525 1.40572 0
M  V30 959 H 87.3999 -3.82939 0.586191 0
M  V30 960 H 87.8139 -4.49896 2.69618 0
M  V30 961 H 89.2879 -5.38099 1.231 0
M  V30 962 H 89.7649 -4.38959 -0.145359 0
M  V30 963 H 90.3709 -3.98796 1.47789 0
M  V30 964 N 88.686 -0.835752 -1.33615 0
M  V30 965 C 89.649 -0.272 -2.2758 0
M  V30 966 C 90.649 0.557487 -1.50827 0
M  V30 967 O 91.839 0.37173 -1.70188 0
M  V30 968 C 88.971 0.617173 -3.35267 0
M  V30 969 H 90.164 -1.10111 -2.78954 0
M  V30 970 H 87.717 -0.608594 -1.43965 0
M  V30 971 H 88.452 1.46884 -2.89129 0
M  V30 972 H 88.237 0.0237066 -3.92093 0
M  V30 973 H 89.727 1.005 -4.05326 0
M  V30 974 N 90.1641 1.46063 -0.591896 0
M  V30 975 C 91.5751 1.85944 -0.167822 0
M  V30 976 C 91.9261 1.49429 1.27143 0
M  V30 977 O 91.0511 0.913515 1.96173 0
M  V30 978 C 91.6461 3.37489 -0.297794 0
M  V30 979 C 90.2051 3.76332 0.0714732 0
M  V30 980 C 89.3521 2.7006 -0.629509 0
M  V30 981 H 92.3031 1.37087 -0.799555 0
M  V30 982 H 92.3241 3.77532 0.474349 0
M  V30 983 H 91.8361 3.64034 -1.3454 0
M  V30 984 H 89.9371 3.55405 1.11886 0
M  V30 985 H 90.0501 4.78088 -0.311245 0
M  V30 986 H 88.4141 2.54607 -0.0687867 0
M  V30 987 H 89.1971 2.99444 -1.67894 0
M  V30 988 N 91.6422 0.330177 1.54103 0
M  V30 989 C 93.0582 -0.0222371 1.59585 0
M  V30 990 C 93.2582 -1.49902 1.34654 0
M  V30 991 O 92.3142 -2.25592 1.13421 0
M  V30 992 C 93.6272 0.401932 2.98002 0
M  V30 993 C 95.1752 0.353145 3.11001 0
M  V30 994 C 95.6502 0.752576 4.51775 0
M  V30 995 N 97.1412 0.706239 4.57784 0
M  V30 996 C 97.8762 0.987417 5.64834 0
M  V30 997 N 97.3722 1.33607 6.79795 0
M  V30 998 N 99.1652 0.91254 5.54643 0
M  V30 999 H 91.3162 1.29228 1.68564 0
M  V30 1000 H 93.5792 0.525906 0.78875 0
M  V30 1001 H 93.2852 1.4311 3.21267 0
M  V30 1002 H 93.1592 -0.229699 3.765 0
M  V30 1003 H 95.5462 -0.666822 2.87467 0
M  V30 1004 H 95.6272 1.0198 2.34593 0
M  V30 1005 H 95.2712 1.77049 4.76042 0
M  V30 1006 H 95.2012 0.0635409 5.26562 0
M  V30 1007 H 97.6922 0.44889 3.75224 0
M  V30 1008 H 98.0052 1.53582 7.57385 0
M  V30 1009 H 96.3502 1.37439 6.81275 0
M  V30 1010 H 99.5412 0.639601 4.6371 0
M  V30 1011 H 99.7142 1.13503 6.37982 0
M  V30 1012 N 93.1203 -1.57491 0.0584922 0
M  V30 1013 C 94.0833 -2.1085 -0.898617 0
M  V30 1014 C 95.0833 -1.02964 -1.23511 0
M  V30 1015 O 96.2733 -1.29007 -1.17059 0
M  V30 1016 C 93.4053 -2.59881 -2.20623 0
M  V30 1017 H 94.5983 -2.96715 -0.435936 0
M  V30 1018 H 92.1513 -1.55141 -0.190023 0
M  V30 1019 H 92.8863 -1.77431 -2.71457 0
M  V30 1020 H 92.6713 -3.38727 -1.97501 0
M  V30 1021 H 94.1613 -3.01285 -2.89166 0
M  V30 1022 N 94.5984 0.214957 -1.56127 0
M  V30 1023 C 95.5614 1.24997 -1.92116 0
M  V30 1024 C 96.5614 1.39467 -0.800344 0
M  V30 1025 O 97.7514 1.37619 -1.06802 0
M  V30 1026 C 94.8834 2.62271 -2.17777 0
M  V30 1027 H 96.0764 0.942875 -2.84693 0
M  V30 1028 H 93.6294 0.455654 -1.49511 0
M  V30 1029 H 94.3644 2.98068 -1.27773 0
M  V30 1030 H 94.1494 2.53143 -2.99434 0
M  V30 1031 H 95.6394 3.36946 -2.46693 0
M  V30 1032 N 96.0765 1.50051 0.48192 0
M  V30 1033 C 97.3015 1.64508 1.26301 0
M  V30 1034 C 97.7265 0.323851 1.85291 0
M  V30 1035 O 97.0845 -0.710969 1.66778 0
M  V30 1036 C 97.1325 2.7305 2.35533 0
M  V30 1037 O 96.2365 2.3355 3.39895 0
M  V30 1038 H 95.5775 0.549978 0.372048 0
M  V30 1039 H 98.1075 1.9636 0.574786 0
M  V30 1040 H 98.1175 2.95799 2.8101 0
M  V30 1041 H 96.7925 3.68946 1.91967 0
M  V30 1042 H 95.3695 2.21205 3.00204 0
M  V30 1043 N 97.5546 -0.734337 1.39446 0
M  V30 1044 C 98.9706 -1.03997 1.21065 0
M  V30 1045 C 99.1706 -2.01369 0.0727019 0
M  V30 1046 O 98.2266 -2.45856 -0.575426 0
M  V30 1047 C 99.5396 -1.60163 2.54496 0
M  V30 1048 C 101.088 -1.7224 2.61347 0
M  V30 1049 C 101.563 -2.31814 3.95002 0
M  V30 1050 N 103.054 -2.39223 3.96644 0
M  V30 1051 C 103.789 -2.86258 4.96834 0
M  V30 1052 N 103.285 -3.33184 6.07421 0
M  V30 1053 N 105.078 -2.85473 4.84213 0
M  V30 1054 H 97.2286 -0.0885624 2.12215 0
M  V30 1055 H 99.4916 -0.10191 0.942506 0
M  V30 1056 H 99.1976 -0.960811 3.38321 0
M  V30 1057 H 99.0716 -2.5896 2.74262 0
M  V30 1058 H 101.459 -2.35443 1.77906 0
M  V30 1059 H 101.54 -0.720939 2.4543 0
M  V30 1060 H 101.184 -1.69238 4.78875 0
M  V30 1061 H 101.114 -3.32638 4.08239 0
M  V30 1062 H 103.605 -2.06057 3.16779 0
M  V30 1063 H 103.918 -3.67586 6.7978 0
M  V30 1064 H 102.263 -3.31191 6.11013 0
M  V30 1065 H 105.454 -2.48136 3.96921 0
M  V30 1066 H 105.627 -3.21814 5.62441 0
M  V30 1067 N 99.0327 -1.24633 -0.964593 0
M  V30 1068 C 99.9957 -1.0424 -2.04124 0
M  V30 1069 C 100.996 0.00137563 -1.608 0
M  V30 1070 O 102.186 -0.239883 -1.7254 0
M  V30 1071 C 99.3177 -0.580588 -3.3592 0
M  V30 1072 H 100.511 -1.99803 -2.23649 0
M  V30 1073 H 98.0637 -1.06899 -1.14027 0
M  V30 1074 H 98.7987 0.3781 -3.22088 0
M  V30 1075 H 98.5837 -1.33398 -3.6871 0
M  V30 1076 H 100.074 -0.459034 -4.15069 0
M  V30 1077 N 100.511 1.16574 -1.06058 0
M  V30 1078 C 101.922 1.68662 -0.800632 0
M  V30 1079 C 102.273 1.84184 0.67608 0
M  V30 1080 O 101.398 1.53568 1.52466 0
M  V30 1081 C 101.993 3.06356 -1.44676 0
M  V30 1082 C 100.552 3.55575 -1.23465 0
M  V30 1083 C 99.6988 2.31616 -1.52477 0
M  V30 1084 H 102.65 1.00969 -1.22438 0
M  V30 1085 H 102.671 3.70636 -0.860788 0
M  V30 1086 H 102.183 2.95027 -2.52152 0
M  V30 1087 H 100.284 3.72167 -0.179527 0
M  V30 1088 H 100.397 4.37812 -1.94571 0
M  V30 1089 H 98.7608 2.36512 -0.945209 0
M  V30 1090 H 99.5438 2.22887 -2.61106 0
M  V30 1091 N 101.989 0.842826 1.3317 0
M  V30 1092 C 103.266 0.362216 1.92217 0
M  V30 1093 C 103.646 -1.15289 1.76838 0
M  V30 1094 O 102.994 -1.96914 1.15919 0
M  V30 1095 C 103.204 0.813495 3.39387 0
M  V30 1096 C 104.552 0.823804 4.16532 0
M  V30 1097 O 105.576 0.757358 3.48055 0
M  V30 1098 O 104.435 0.915193 5.38782 0
M  V30 1099 H 101.529 0.103317 0.820521 0
M  V30 1100 H 104.075 0.928942 1.42017 0
M  V30 1101 H 102.847 1.85624 3.4447 0
M  V30 1102 H 102.47 0.223561 3.96971 0
M  V30 1103 N 103.467 -1.45747 0.599634 0
M  V30 1104 C 104.744 -1.95585 0.0240846 0
M  V30 1105 C 105.124 -1.54217 -1.44154 0
M  V30 1106 O 104.472 -0.800903 -2.14004 0
M  V30 1107 C 104.682 -3.48344 0.21385 0
M  V30 1108 C 106.03 -4.24504 0.0904902 0
M  V30 1109 O 107.054 -3.55911 0.143558 0
M  V30 1110 O 105.913 -5.46491 -0.0310766 0
M  V30 1111 H 103.007 -0.82602 -0.0402478 0
M  V30 1112 H 105.553 -1.55951 0.669139 0
M  V30 1113 H 104.325 -3.71397 1.23206 0
M  V30 1114 H 103.948 -3.9485 -0.466842 0
M  V30 1115 N 104.945 -0.338344 -1.53925 0
M  V30 1116 C 106.17 0.263987 -2.05713 0
M  V30 1117 C 106.595 1.43847 -1.21201 0
M  V30 1118 O 105.953 1.79904 -0.224535 0
M  V30 1119 C 106.001 0.662 -3.54471 0
M  V30 1120 O 105.105 1.76265 -3.72833 0
M  V30 1121 H 104.446 0.0448722 -0.662482 0
M  V30 1122 H 106.976 -0.491048 -1.9862 0
M  V30 1123 H 106.986 0.940594 -3.9701 0
M  V30 1124 H 105.661 -0.196937 -4.15433 0
M  V30 1125 H 104.238 1.48173 -3.42198 0
M  V30 1126 N 106.423 1.57458 -0.0668435 0
M  V30 1127 C 107.839 1.56947 0.289772 0
M  V30 1128 C 108.039 1.07584 1.70376 0
M  V30 1129 O 107.095 0.739486 2.41429 0
M  V30 1130 C 108.408 3.0052 0.103943 0
M  V30 1131 C 109.956 3.12517 0.173857 0
M  V30 1132 C 110.431 4.57997 0.0163682 0
M  V30 1133 N 111.922 4.63144 0.0721352 0
M  V30 1134 C 112.657 5.73394 -0.0253794 0
M  V30 1135 N 112.153 6.92576 -0.176133 0
M  V30 1136 N 113.946 5.62091 0.0313305 0
M  V30 1137 H 106.097 1.87863 -0.991027 0
M  V30 1138 H 108.36 0.86583 -0.38606 0
M  V30 1139 H 108.066 3.40729 -0.871572 0
M  V30 1140 H 107.94 3.67304 0.858366 0
M  V30 1141 H 110.327 2.72197 1.13985 0
M  V30 1142 H 110.408 2.48381 -0.611586 0
M  V30 1143 H 110.052 4.99005 -0.946374 0
M  V30 1144 H 109.982 5.20158 0.821153 0
M  V30 1145 H 112.473 3.77436 0.187263 0
M  V30 1146 H 112.786 7.72418 -0.242821 0
M  V30 1147 H 111.131 6.94678 -0.211429 0
M  V30 1148 H 114.322 4.67867 0.147773 0
M  V30 1149 H 114.495 6.47982 -0.048121 0
M  V30 1150 N 107.901 -0.206675 1.56239 0
M  V30 1151 C 108.864 -1.23976 1.92776 0
M  V30 1152 C 109.864 -1.39041 0.807729 0
M  V30 1153 O 111.054 -1.37051 1.0753 0
M  V30 1154 C 108.186 -2.61112 2.19165 0
M  V30 1155 H 109.379 -0.927764 2.85189 0
M  V30 1156 H 106.932 -0.447718 1.4975 0
M  V30 1157 H 107.667 -2.97386 1.29352 0
M  V30 1158 H 107.452 -2.51552 3.00772 0
M  V30 1159 H 108.942 -3.35633 2.48476 0
M  V30 1160 N 109.379 -1.50304 -0.473955 0
M  V30 1161 C 110.627 -1.60832 -1.22382 0
M  V30 1162 C 110.948 -0.30939 -1.9253 0
M  V30 1163 O 110.218 0.67296 -1.83978 0
M  V30 1164 H 108.798 -0.592652 -0.454723 0
M  V30 1165 H 111.46 -1.87068 -0.546968 0
M  V30 1166 H 110.556 -2.41803 -1.97327 0
M  V30 1167 N 110.857 0.726932 -1.39834 0
M  V30 1168 C 111.82 1.82269 -1.38962 0
M  V30 1169 C 112.82 1.58248 -0.285334 0
M  V30 1170 O 114.01 1.65499 -0.54366 0
M  V30 1171 C 111.142 3.20186 -1.17019 0
M  V30 1172 H 112.335 1.84443 -2.36476 0
M  V30 1173 H 109.888 0.931416 -1.25516 0
M  V30 1174 H 110.623 3.23669 -0.202204 0
M  V30 1175 H 110.408 3.3902 -1.96998 0
M  V30 1176 H 111.898 4.00235 -1.1917 0
M  V30 1177 N 112.336 1.25143 0.95797 0
M  V30 1178 C 113.268 1.01023 2.05735 0
M  V30 1179 C 114.281 -0.0236902 1.62783 0
M  V30 1180 O 115.47 0.21448 1.77207 0
M  V30 1181 C 112.57 0.504595 3.35122 0
M  V30 1182 C 111.743 1.6039 4.06932 0
M  V30 1183 C 110.802 1.09922 5.14591 0
M  V30 1184 O 109.828 1.79293 5.40225 0
M  V30 1185 N 111.03 -0.0612545 5.80468 0
M  V30 1186 H 113.795 1.95683 2.26998 0
M  V30 1187 H 111.356 1.16303 1.12629 0
M  V30 1188 H 113.348 0.151516 4.04416 0
M  V30 1189 H 111.918 -0.347989 3.10657 0
M  V30 1190 H 111.138 2.12872 3.31782 0
M  V30 1191 H 112.426 2.34252 4.51667 0
M  V30 1192 H 111.824 -0.640985 5.62057 0
M  V30 1193 H 110.381 -0.355395 6.5083 0
M  V30 1194 N 113.814 -1.1601 1.06675 0
M  V30 1195 C 115.23 -1.38622 0.790948 0
M  V30 1196 C 115.43 -1.92109 -0.607965 0
M  V30 1197 O 114.486 -2.12239 -1.36787 0
M  V30 1198 C 115.799 -2.36347 1.85905 0
M  V30 1199 C 117.347 -2.50023 1.88301 0
M  V30 1200 C 117.822 -3.51033 2.94176 0
M  V30 1201 N 119.313 -3.58563 2.93235 0
M  V30 1202 C 120.048 -4.36521 3.71803 0
M  V30 1203 N 119.544 -5.17869 4.602 0
M  V30 1204 N 121.337 -4.31541 3.60178 0
M  V30 1205 H 113.488 -0.796294 1.96908 0
M  V30 1206 H 115.751 -0.412597 0.853503 0
M  V30 1207 H 115.457 -2.04147 2.86386 0
M  V30 1208 H 115.331 -3.36042 1.71334 0
M  V30 1209 H 117.718 -2.81524 0.884769 0
M  V30 1210 H 117.799 -1.5035 2.06951 0
M  V30 1211 H 117.443 -3.20268 3.94196 0
M  V30 1212 H 117.373 -4.50445 2.72776 0
M  V30 1213 H 119.864 -3.00496 2.29152 0
M  V30 1214 H 120.177 -5.74578 5.16797 0
M  V30 1215 H 118.522 -5.17199 4.64253 0
M  V30 1216 H 121.713 -3.67051 2.90502 0
M  V30 1217 H 121.886 -4.9205 4.21653 0
M  V30 1218 N 115.292 -0.849877 -1.32721 0
M  V30 1219 C 116.569 -0.372405 -1.92022 0
M  V30 1220 C 116.949 1.1435 -1.77447 0
M  V30 1221 O 116.297 1.96296 -1.16962 0
M  V30 1222 C 116.507 -0.831482 -3.3895 0
M  V30 1223 C 117.855 -0.845882 -4.16089 0
M  V30 1224 O 118.879 -0.775806 -3.47649 0
M  V30 1225 O 117.738 -0.943753 -5.38289 0
M  V30 1226 H 114.832 -0.107667 -0.819961 0
M  V30 1227 H 117.378 -0.93646 -1.41522 0
M  V30 1228 H 116.15 -1.87448 -3.4348 0
M  V30 1229 H 115.773 -0.24461 -3.96847 0
M  V30 1230 N 116.77 1.45427 -0.607355 0
M  V30 1231 C 117.68 2.34325 0.113463 0
M  V30 1232 C 118.696 1.51226 0.860617 0
M  V30 1233 O 119.872 1.84029 0.818255 0
M  V30 1234 C 116.937 3.28839 1.09844 0
M  V30 1235 C 115.998 4.27844 0.353271 0
M  V30 1236 C 115.231 5.17842 1.29133 0
M  V30 1237 O 115.454 5.11264 2.52913 0
M  V30 1238 O 114.388 5.96713 0.788523 0
M  V30 1239 H 118.214 2.97364 -0.617094 0
M  V30 1240 H 115.799 1.44807 -0.367619 0
M  V30 1241 H 117.681 3.8708 1.66575 0
M  V30 1242 H 116.356 2.68365 1.81003 0
M  V30 1243 H 115.263 3.7322 -0.256494 0
M  V30 1244 H 116.596 4.91173 -0.317822 0
M  V30 1245 N 118.248 0.346503 1.53744 0
M  V30 1246 C 119.659 -0.136779 1.86198 0
M  V30 1247 C 120.01 -1.49749 1.26766 0
M  V30 1248 O 119.135 -2.08417 0.582355 0
M  V30 1249 C 119.73 -0.254966 3.37839 0
M  V30 1250 C 118.289 -0.682482 3.70161 0
M  V30 1251 C 117.436 0.181981 2.76702 0
M  V30 1252 H 120.387 0.565994 1.48264 0
M  V30 1253 H 120.408 -1.08195 3.64793 0
M  V30 1254 H 119.92 0.735526 3.81066 0
M  V30 1255 H 118.021 -1.68189 3.3248 0
M  V30 1256 H 118.134 -0.470326 4.76786 0
M  V30 1257 H 116.498 -0.34615 2.52337 0
M  V30 1258 H 117.281 1.16966 3.2276 0
M  V30 1259 N 119.726 -1.57421 0.075193 0
M  V30 1260 C 120.636 -2.1642 -0.905511 0
M  V30 1261 C 121.652 -1.12828 -1.32461 0
M  V30 1262 O 122.828 -1.45109 -1.39661 0
M  V30 1263 C 119.893 -2.71693 -2.15369 0
M  V30 1264 C 118.954 -3.90171 -1.79068 0
M  V30 1265 C 118.187 -4.42798 -2.97936 0
M  V30 1266 O 118.41 -3.94416 -4.12058 0
M  V30 1267 O 117.344 -5.34085 -2.77555 0
M  V30 1268 H 121.17 -3.00588 -0.433626 0
M  V30 1269 H 118.755 -1.48664 -0.148067 0
M  V30 1270 H 120.637 -3.07104 -2.88557 0
M  V30 1271 H 119.312 -1.90582 -2.61649 0
M  V30 1272 H 118.219 -3.59606 -1.03122 0
M  V30 1273 H 119.552 -4.72584 -1.37569 0
M  V30 1274 N 121.204 0.198386 -1.56346 0
M  V30 1275 C 122.615 0.763358 -1.70381 0
M  V30 1276 C 122.966 1.83995 -0.681203 0
M  V30 1277 O 122.091 2.15785 0.16305 0
M  V30 1278 C 122.686 1.39143 -3.08909 0
M  V30 1279 C 121.245 1.90352 -3.2472 0
M  V30 1280 C 120.392 0.772233 -2.6633 0
M  V30 1281 H 123.343 -0.0266377 -1.58678 0
M  V30 1282 H 123.364 2.26076 -3.06055 0
M  V30 1283 H 122.876 0.607638 -3.83314 0
M  V30 1284 H 120.977 2.71461 -2.55225 0
M  V30 1285 H 121.09 2.06757 -4.3219 0
M  V30 1286 H 119.454 1.18566 -2.2542 0
M  V30 1287 H 120.237 0.00073556 -3.433 0
M  V30 1288 N 122.682 1.50554 0.465978 0
M  V30 1289 C 123.93 1.61479 1.21528 0
M  V30 1290 C 124.251 0.319596 1.92363 0
M  V30 1291 O 123.521 -0.663194 1.84333 0
M  V30 1292 H 122.101 0.595055 0.451573 0
M  V30 1293 H 124.763 1.87355 0.53704 0
M  V30 1294 H 123.859 2.42846 1.96042 0
M  V30 1295 N 124.16 -0.719506 1.40217 0
M  V30 1296 C 125.388 -1.50864 1.41589 0
M  V30 1297 C 125.803 -1.88794 0.0145275 0
M  V30 1298 O 125.16 -1.55174 -0.960594 0
M  V30 1299 C 125.211 -2.78646 2.30302 0
M  V30 1300 O 124.932 -2.42321 3.64983 0
M  V30 1301 C 126.433 -3.72569 2.40224 0
M  V30 1302 H 123.653 -0.465709 0.48307 0
M  V30 1303 H 126.197 -0.88785 1.84221 0
M  V30 1304 H 124.352 -3.37019 1.91042 0
M  V30 1305 H 124.766 -3.24514 4.12057 0
M  V30 1306 H 126.24 -4.5908 3.06512 0
M  V30 1307 H 126.717 -4.15403 1.42608 0
M  V30 1308 H 127.323 -3.20109 2.80019 0
M  V30 1309 N 125.638 -1.25649 -0.95132 0
M  V30 1310 C 127.054 -1.02542 -1.223 0
M  V30 1311 C 127.254 0.255715 -1.99871 0
M  V30 1312 O 126.31 0.967558 -2.33226 0
M  V30 1313 C 127.623 -2.25065 -1.99415 0
M  V30 1314 C 129.171 -2.29861 -2.12446 0
M  V30 1315 C 129.646 -3.52048 -2.92961 0
M  V30 1316 N 131.137 -3.52465 -3.00538 0
M  V30 1317 C 131.872 -4.43672 -3.63239 0
M  V30 1318 N 131.368 -5.45157 -4.27523 0
M  V30 1319 N 133.161 -4.31346 -3.60412 0
M  V30 1320 H 125.312 -2.07951 -0.432471 0
M  V30 1321 H 127.575 -0.91339 -0.253816 0
M  V30 1322 H 127.281 -3.18194 -1.49817 0
M  V30 1323 H 127.155 -2.28502 -3.00111 0
M  V30 1324 H 129.542 -1.37252 -2.61239 0
M  V30 1325 H 129.623 -2.3044 -1.11044 0
M  V30 1326 H 129.267 -4.44981 -2.44856 0
M  V30 1327 H 129.197 -3.48715 -3.94596 0
M  V30 1328 H 131.688 -2.79056 -2.54826 0
M  V30 1329 H 132.001 -6.10958 -4.73234 0
M  V30 1330 H 130.346 -5.49025 -4.26141 0
M  V30 1331 H 133.537 -3.51288 -3.09377 0
M  V30 1332 H 133.71 -5.02624 -4.0899 0
M  V30 1333 N 127.117 1.15442 -1.07289 0
M  V30 1334 C 128.533 1.38201 -0.798288 0
M  V30 1335 C 128.733 1.92429 0.597769 0
M  V30 1336 O 127.789 2.12962 1.3566 0
M  V30 1337 C 129.102 2.35357 -1.87156 0
M  V30 1338 C 130.65 2.49021 -1.89624 0
M  V30 1339 C 131.125 3.49468 -2.96034 0
M  V30 1340 N 132.616 3.57003 -2.95132 0
M  V30 1341 C 133.351 4.34543 -3.74112 0
M  V30 1342 N 132.847 5.15421 -4.6294 0
M  V30 1343 N 134.64 4.29625 -3.62462 0
M  V30 1344 H 126.791 0.78584 -1.97328 0
M  V30 1345 H 129.054 0.408065 -0.855679 0
M  V30 1346 H 128.76 2.02626 -2.87464 0
M  V30 1347 H 128.634 3.35129 -1.73114 0
M  V30 1348 H 131.021 2.81051 -0.899687 0
M  V30 1349 H 131.102 1.4925 -2.07745 0
M  V30 1350 H 130.746 3.18173 -3.95889 0
M  V30 1351 H 130.676 4.48992 -2.75161 0
M  V30 1352 H 133.167 2.99276 -2.30743 0
M  V30 1353 H 133.48 5.7183 -5.19837 0
M  V30 1354 H 131.825 5.14729 -4.66989 0
M  V30 1355 H 135.016 3.65505 -2.92444 0
M  V30 1356 H 135.189 4.89807 -4.24256 0
M  V30 1357 N 128.595 0.856903 1.32268 0
M  V30 1358 C 129.82 0.474569 2.01897 0
M  V30 1359 C 130.245 -0.921766 1.63967 0
M  V30 1360 O 129.603 -1.60589 0.84148 0
M  V30 1361 C 129.651 0.623799 3.55164 0
M  V30 1362 O 128.755 -0.342459 4.10976 0
M  V30 1363 H 128.096 0.190422 0.63611 0
M  V30 1364 H 130.626 1.15672 1.68764 0
M  V30 1365 H 130.636 0.512169 4.04773 0
M  V30 1366 H 129.311 1.64202 3.82113 0
M  V30 1367 H 127.888 -0.18688 3.72431 0
M  V30 1368 N 130.073 -1.45103 0.615059 0
M  V30 1369 C 131.484 -1.85654 0.197383 0
M  V30 1370 C 131.835 -1.51433 -1.24749 0
M  V30 1371 O 130.96 -0.944608 -1.94695 0
M  V30 1372 C 131.555 -3.36972 0.351448 0
M  V30 1373 C 130.114 -3.76398 -0.011593 0
M  V30 1374 C 129.261 -2.69024 0.672394 0
M  V30 1375 H 132.212 -1.35797 0.821263 0
M  V30 1376 H 132.233 -3.78239 -0.414227 0
M  V30 1377 H 131.745 -3.61847 1.40314 0
M  V30 1378 H 129.846 -3.5714 -1.06217 0
M  V30 1379 H 129.959 -4.77532 0.387265 0
M  V30 1380 H 128.323 -2.54465 0.109284 0
M  V30 1381 H 129.106 -2.96735 1.72636 0
M  V30 1382 N 131.551 -0.354651 -1.53558 0
M  V30 1383 C 132.514 0.484566 -2.24019 0
M  V30 1384 C 133.514 1.01861 -1.24422 0
M  V30 1385 O 134.704 0.906097 -1.4878 0
M  V30 1386 C 131.836 1.67615 -2.96847 0
M  V30 1387 H 133.029 -0.131843 -2.9961 0
M  V30 1388 H 130.582 -0.106165 -1.55939 0
M  V30 1389 H 131.317 2.33095 -2.25471 0
M  V30 1390 H 131.102 1.30029 -3.69912 0
M  V30 1391 H 132.592 2.27114 -3.50441 0
M  V30 1392 N 133.029 1.57378 -0.0835403 0
M  V30 1393 C 134.44 1.81261 0.447358 0
M  V30 1394 C 134.791 0.998331 1.68902 0
M  V30 1395 O 133.916 0.224282 2.15235 0
M  V30 1396 C 134.511 3.28767 0.818386 0
M  V30 1397 C 133.07 3.53455 1.29409 0
M  V30 1398 C 132.217 2.75831 0.285024 0
M  V30 1399 H 135.168 1.5566 -0.309115 0
M  V30 1400 H 135.189 3.41459 1.67887 0
M  V30 1401 H 134.701 3.88006 -0.0855019 0
M  V30 1402 H 132.802 2.99534 2.21608 0
M  V30 1403 H 132.915 4.62128 1.2639 0
M  V30 1404 H 131.279 2.42947 0.764767 0
M  V30 1405 H 132.062 3.37813 -0.611341 0
M  V30 1406 N 134.507 -0.190092 1.56449 0
M  V30 1407 C 135.732 -0.929864 1.85387 0
M  V30 1408 C 136.157 -1.7585 0.667704 0
M  V30 1409 O 135.515 -1.77198 -0.383459 0
M  V30 1410 C 135.563 -1.79773 3.12593 0
M  V30 1411 O 134.667 -2.89713 2.93496 0
M  V30 1412 H 134.008 -0.261574 0.610307 0
M  V30 1413 H 136.538 -0.193896 2.03679 0
M  V30 1414 H 136.548 -2.20139 3.43515 0
M  V30 1415 H 135.223 -1.18892 3.98544 0
M  V30 1416 H 133.8 -2.53065 2.73884 0
M  V30 1417 N 135.985 -1.50799 -0.457987 0
M  V30 1418 C 137.396 -1.55152 -1.0385 0
M  V30 1419 C 137.747 -0.362719 -1.92818 0
M  V30 1420 O 136.872 0.522915 -2.09987 0
M  V30 1421 C 137.467 -2.81173 -1.89017 0
M  V30 1422 C 136.026 -2.88164 -2.42154 0
M  V30 1423 C 135.173 -2.49591 -1.20829 0
M  V30 1424 H 138.124 -1.56874 -0.240068 0
M  V30 1425 H 138.145 -2.63769 -2.74238 0
M  V30 1426 H 137.657 -3.67677 -1.24238 0
M  V30 1427 H 135.758 -2.06042 -3.10447 0
M  V30 1428 H 135.871 -3.91356 -2.76364 0
M  V30 1429 H 134.235 -2.02322 -1.54719 0
M  V30 1430 H 135.018 -3.38418 -0.576927 0
M  V30 1431 N 137.463 0.71206 -1.40597 0
M  V30 1432 C 138.711 1.46907 -1.38791 0
M  V30 1433 C 139.032 1.94998 0.00780391 0
M  V30 1434 O 138.302 1.70587 0.963174 0
M  V30 1435 H 136.882 0.545043 -0.51082 0
M  V30 1436 H 139.544 0.843882 -1.75683 0
M  V30 1437 H 138.64 2.34021 -2.06496 0
M  V30 1438 N 138.941 1.26152 0.944643 0
M  V30 1439 C 139.904 1.07474 2.0244 0
M  V30 1440 C 140.904 0.0242064 1.60782 0
M  V30 1441 O 142.094 0.267302 1.72137 0
M  V30 1442 C 139.226 0.633956 3.34953 0
M  V30 1443 H 140.419 2.03336 2.20442 0
M  V30 1444 H 137.972 1.087 1.12312 0
M  V30 1445 H 138.707 -0.326811 3.22649 0
M  V30 1446 H 138.492 1.39247 3.66542 0
M  V30 1447 H 139.982 0.52501 4.14287 0
M  V30 1448 N 140.419 -1.14872 1.07899 0
M  V30 1449 C 141.835 -1.37776 0.805606 0
M  V30 1450 C 142.035 -1.92743 -0.587555 0
M  V30 1451 O 141.091 -2.13678 -1.34528 0
M  V30 1452 C 142.404 -2.34361 1.88402 0
M  V30 1453 C 143.952 -2.48012 1.90942 0
M  V30 1454 C 144.427 -3.47893 2.97883 0
M  V30 1455 N 145.918 -3.55433 2.97021 0
M  V30 1456 C 146.653 -4.32553 3.76412 0
M  V30 1457 N 146.149 -5.12959 4.65666 0
M  V30 1458 N 147.942 -4.27697 3.64735 0
M  V30 1459 H 140.093 -0.775365 1.97742 0
M  V30 1460 H 142.356 -0.403521 0.857831 0
M  V30 1461 H 142.062 -2.01098 2.88535 0
M  V30 1462 H 141.936 -3.34206 1.74889 0
M  V30 1463 H 144.323 -2.8057 0.914579 0
M  V30 1464 H 144.404 -1.48147 2.08534 0
M  V30 1465 H 144.048 -3.16069 3.97571 0
M  V30 1466 H 143.978 -4.47527 2.77538 0
M  V30 1467 H 146.469 -2.98048 2.32326 0
M  V30 1468 H 146.782 -5.69065 5.22862 0
M  V30 1469 H 145.127 -5.12245 4.69712 0
M  V30 1470 H 148.318 -3.63949 2.94378 0
M  V30 1471 H 148.491 -4.8755 4.26848 0
M  V30 1472 N 141.898 -0.863906 -1.31812 0
M  V30 1473 C 143.144 -0.481841 -1.9761 0
M  V30 1474 C 143.499 0.954048 -1.6708 0
M  V30 1475 O 142.792 1.66182 -0.953624 0
M  V30 1476 C 142.986 -0.668547 -3.51091 0
M  V30 1477 C 142.815 -2.12103 -3.96538 0
M  V30 1478 C 141.585 -2.76141 -4.23171 0
M  V30 1479 C 143.783 -3.09265 -4.10925 0
M  V30 1480 N 141.765 -4.12205 -4.54929 0
M  V30 1481 C 143.136 -4.30341 -4.46326 0
M  V30 1482 C 145.191 -3.05337 -3.93286 0
M  V30 1483 C 143.894 -5.48 -4.65928 0
M  V30 1484 C 145.92 -4.22248 -4.14078 0
M  V30 1485 C 145.282 -5.42085 -4.49804 0
M  V30 1486 H 141.381 -0.225238 -0.74886 0
M  V30 1487 H 143.965 -1.11723 -1.59455 0
M  V30 1488 H 142.136 -0.0627898 -3.88349 0
M  V30 1489 H 143.868 -0.255467 -4.03893 0
M  V30 1490 H 140.623 -2.27125 -4.15585 0
M  V30 1491 H 141.047 -4.82416 -4.74978 0
M  V30 1492 H 145.689 -2.138 -3.64759 0
M  V30 1493 H 143.407 -6.40059 -4.93305 0
M  V30 1494 H 146.993 -4.20654 -4.01922 0
M  V30 1495 H 145.873 -6.31044 -4.65567 0
M  V30 1496 N 143.376 1.44774 -0.622745 0
M  V30 1497 C 144.306 2.33382 0.0741861 0
M  V30 1498 C 145.287 1.47719 0.843387 0
M  V30 1499 O 146.472 1.76458 0.810934 0
M  V30 1500 C 143.602 3.30663 1.06204 0
M  V30 1501 C 142.556 4.26079 0.405037 0
M  V30 1502 C 141.882 5.13165 1.5022 0
M  V30 1503 C 143.182 5.1781 -0.683414 0
M  V30 1504 H 144.876 2.91905 -0.665713 0
M  V30 1505 H 142.422 1.40363 -0.321587 0
M  V30 1506 H 144.375 3.9153 1.55827 0
M  V30 1507 H 143.099 2.70331 1.83272 0
M  V30 1508 H 141.758 3.66532 -0.0704683 0
M  V30 1509 H 141.406 4.49191 2.26355 0
M  V30 1510 H 141.106 5.77812 1.06803 0
M  V30 1511 H 142.63 5.76902 2.00041 0
M  V30 1512 H 144.044 5.72661 -0.270631 0
M  V30 1513 H 142.441 5.91015 -1.04023 0
M  V30 1514 H 143.511 4.59326 -1.55395 0
M  V30 1515 N 144.854 0.36279 1.53368 0
M  V30 1516 C 146.102 -0.227326 2.00817 0
M  V30 1517 C 146.423 -1.49511 1.25186 0
M  V30 1518 O 145.693 -1.92482 0.364348 0
M  V30 1519 H 144.273 -0.0869923 0.741917 0
M  V30 1520 H 146.935 0.488381 1.88682 0
M  V30 1521 H 146.031 -0.456273 3.08747 0
M  V30 1522 N 146.332 -1.57332 0.0918853 0
M  V30 1523 C 147.557 -1.98995 -0.584442 0
M  V30 1524 C 147.982 -0.970528 -1.61128 0
M  V30 1525 O 147.34 0.0613904 -1.81196 0
M  V30 1526 C 147.388 -3.39636 -1.21161 0
M  V30 1527 O 146.492 -3.40447 -2.32744 0
M  V30 1528 H 145.833 -0.647165 -0.148572 0
M  V30 1529 H 148.363 -2.03873 0.172347 0
M  V30 1530 H 148.373 -3.7726 -1.55367 0
M  V30 1531 H 147.048 -4.13356 -0.459313 0
M  V30 1532 H 145.625 -3.14614 -2.0018 0
M  V30 1533 N 147.81 0.181792 -1.56548 0
M  V30 1534 C 149.038 0.915947 -1.85521 0
M  V30 1535 C 149.453 1.76282 -0.676016 0
M  V30 1536 O 148.81 1.79012 0.355077 0
M  V30 1537 C 148.861 1.80126 -3.13427 0
M  V30 1538 O 148.582 0.988562 -4.26801 0
M  V30 1539 C 150.083 2.64597 -3.55673 0
M  V30 1540 H 147.303 0.26661 -0.61576 0
M  V30 1541 H 149.847 0.185039 -2.03661 0
M  V30 1542 H 148.002 2.48563 -2.97145 0
M  V30 1543 H 148.416 1.59308 -4.99721 0
M  V30 1544 H 149.89 3.2235 -4.48101 0
M  V30 1545 H 150.367 3.38958 -2.79292 0
M  V30 1546 H 150.973 2.0151 -3.74532 0
M  V30 1547 N 149.288 1.51039 0.449983 0
M  V30 1548 C 150.218 1.74379 1.55288 0
M  V30 1549 C 151.199 0.593236 1.5942 0
M  V30 1550 O 152.384 0.834625 1.7535 0
M  V30 1551 C 149.514 1.85728 2.93466 0
M  V30 1552 C 148.468 3.01078 3.04197 0
M  V30 1553 C 147.794 2.97595 4.44231 0
M  V30 1554 C 149.094 4.41254 2.7945 0
M  V30 1555 H 150.788 2.66725 1.36008 0
M  V30 1556 H 148.334 1.2835 0.652864 0
M  V30 1557 H 150.287 2.0064 3.70569 0
M  V30 1558 H 149.011 0.900207 3.13949 0
M  V30 1559 H 147.67 2.85851 2.29531 0
M  V30 1560 H 147.318 1.99691 4.61663 0
M  V30 1561 H 147.018 3.75046 4.52343 0
M  V30 1562 H 148.542 3.14583 5.23326 0
M  V30 1563 H 149.956 4.56897 3.46292 0
M  V30 1564 H 148.353 5.20315 2.98985 0
M  V30 1565 H 149.423 4.52164 1.75144 0
M  V30 1566 N 150.766 -0.704594 1.40972 0
M  V30 1567 C 151.716 -1.81051 1.38581 0
M  V30 1568 C 152.7 -1.58759 0.261585 0
M  V30 1569 O 153.892 -1.69745 0.501556 0
M  V30 1570 C 151.021 -3.19279 1.26157 0
M  V30 1571 C 150.107 -3.47296 2.43405 0
M  V30 1572 N 150.498 -3.46064 3.68881 0
M  V30 1573 C 148.796 -3.77804 2.37023 0
M  V30 1574 C 149.497 -3.72733 4.46592 0
M  V30 1575 N 148.473 -3.9203 3.76581 0
M  V30 1576 H 152.275 -1.78448 2.33525 0
M  V30 1577 H 149.789 -0.904198 1.349 0
M  V30 1578 H 151.786 -3.98488 1.22526 0
M  V30 1579 H 150.446 -3.231 0.321902 0
M  V30 1580 H 151.457 -3.26656 4.01891 0
M  V30 1581 H 148.134 -3.8905 1.51481 0
M  V30 1582 H 149.524 -3.77993 5.55492 0
M  V30 1583 N 152.244 -1.26651 -0.937939 0
M  V30 1584 C 153.492 -1.12165 -1.68118 0
M  V30 1585 C 153.813 0.334983 -1.92101 0
M  V30 1586 O 153.083 1.23583 -1.52 0
M  V30 1587 H 151.663 -0.412093 -0.623048 0
M  V30 1588 H 154.325 -1.59027 -1.12678 0
M  V30 1589 H 153.421 -1.64289 -2.6536 0
M  V30 1590 N 153.722 1.14298 -1.08507 0
M  V30 1591 C 155.138 1.37347 -0.812901 0
M  V30 1592 C 155.338 1.93052 0.577325 0
M  V30 1593 O 154.394 2.14389 1.33393 0
M  V30 1594 C 155.707 2.33359 -1.89642 0
M  V30 1595 C 157.255 2.46996 -1.92255 0
M  V30 1596 C 157.73 3.46309 -2.99724 0
M  V30 1597 N 159.221 3.53853 -2.98902 0
M  V30 1598 C 159.956 4.3055 -3.787 0
M  V30 1599 N 159.452 5.10482 -4.6838 0
M  V30 1600 N 161.245 4.25757 -3.66998 0
M  V30 1601 H 153.396 0.764867 -1.9815 0
M  V30 1602 H 155.659 0.398966 -0.859959 0
M  V30 1603 H 155.365 1.99565 -2.89597 0
M  V30 1604 H 155.239 3.33274 -1.76659 0
M  V30 1605 H 157.626 2.80081 -0.929445 0
M  V30 1606 H 157.707 1.47039 -2.09316 0
M  V30 1607 H 157.351 3.13957 -3.99241 0
M  V30 1608 H 157.281 4.46049 -2.79907 0
M  V30 1609 H 159.772 2.96812 -2.33904 0
M  V30 1610 H 160.085 5.66284 -5.25873 0
M  V30 1611 H 158.43 5.09747 -4.72422 0
M  V30 1612 H 161.621 3.62383 -2.96304 0
M  V30 1613 H 161.794 4.85279 -4.29427 0
M  V30 1614 N 155.201 0.870884 1.31352 0
M  V30 1615 C 156.449 0.48132 1.96285 0
M  V30 1616 C 156.77 -0.969813 1.69173 0
M  V30 1617 O 156.04 -1.67998 1.00764 0
M  V30 1618 H 154.62 0.175002 0.726212 0
M  V30 1619 H 157.282 1.11087 1.60143 0
M  V30 1620 H 156.378 0.639825 3.05471 0
M  V30 1621 N 156.679 -1.44442 0.630414 0
M  V30 1622 C 158.09 -1.85434 0.217063 0
M  V30 1623 C 158.441 -1.52748 -1.23136 0
M  V30 1624 O 157.566 -0.965205 -1.93682 0
M  V30 1625 C 158.161 -3.36581 0.387168 0
M  V30 1626 C 156.72 -3.76389 0.0283297 0
M  V30 1627 C 155.867 -2.68296 0.700889 0
M  V30 1628 H 158.818 -1.34919 0.83562 0
M  V30 1629 H 158.839 -3.78657 -0.374086 0
M  V30 1630 H 158.351 -3.60339 1.44144 0
M  V30 1631 H 156.452 -3.58246 -1.02423 0
M  V30 1632 H 156.565 -4.77095 0.437892 0
M  V30 1633 H 154.929 -2.54335 0.136267 0
M  V30 1634 H 155.712 -2.94887 1.75774 0
M  V30 1635 N 158.157 -0.370918 -1.53173 0
M  V30 1636 C 159.568 0.107139 -1.86392 0
M  V30 1637 C 159.919 1.47714 -1.29132 0
M  V30 1638 O 159.044 2.07464 -0.615439 0
M  V30 1639 C 159.639 0.201187 -3.38202 0
M  V30 1640 C 158.198 0.623507 -3.712 0
M  V30 1641 C 157.345 -0.225978 -2.76378 0
M  V30 1642 H 160.296 -0.58951 -1.47345 0
M  V30 1643 H 160.317 1.02377 -3.66468 0
M  V30 1644 H 159.829 -0.796058 -3.79848 0
M  V30 1645 H 157.93 1.62879 -3.35114 0
M  V30 1646 H 158.043 0.394414 -4.77474 0
M  V30 1647 H 156.407 0.305962 -2.52856 0
M  V30 1648 H 157.19 -1.22086 -3.20858 0
M  V30 1649 N 159.635 1.57281 -0.100228 0
M  V30 1650 C 160.883 1.94153 0.561157 0
M  V30 1651 C 161.204 0.983157 1.68401 0
M  V30 1652 O 160.474 0.0361132 1.95867 0
M  V30 1653 H 159.054 0.716791 0.210283 0
M  V30 1654 H 161.716 1.94202 -0.164765 0
M  V30 1655 H 160.812 2.96709 0.968008 0
M  V30 1656 N 161.113 -0.173488 1.56642 0
M  V30 1657 C 162.338 -0.910149 1.86363 0
M  V30 1658 C 162.763 -1.75132 0.686318 0
M  V30 1659 O 162.121 -1.77595 -0.364643 0
M  V30 1660 C 162.169 -1.76447 3.14482 0
M  V30 1661 O 161.273 -2.86584 2.96553 0
M  V30 1662 H 160.614 -0.255086 0.613047 0
M  V30 1663 H 163.144 -0.172283 2.03873 0
M  V30 1664 H 163.154 -2.16483 3.45831 0
M  V30 1665 H 161.829 -1.14658 3.99783 0
M  V30 1666 H 160.406 -2.50146 2.76553 0
M  V30 1667 N 162.591 -1.51276 -0.441967 0
M  V30 1668 C 164.007 -1.39349 -0.778083 0
M  V30 1669 C 164.207 -0.472212 -1.95889 0
M  V30 1670 O 163.263 0.0743551 -2.5239 0
M  V30 1671 C 164.576 -2.81292 -1.0628 0
M  V30 1672 C 166.124 -2.9041 -1.16751 0
M  V30 1673 C 166.599 -4.33251 -1.48519 0
M  V30 1674 N 168.09 -4.36336 -1.55453 0
M  V30 1675 C 168.825 -5.43885 -1.81596 0
M  V30 1676 N 168.321 -6.61601 -2.05562 0
M  V30 1677 N 170.114 -5.3136 -1.8334 0
M  V30 1678 H 162.265 -2.09729 0.335774 0
M  V30 1679 H 164.528 -0.943925 0.0878028 0
M  V30 1680 H 164.234 -3.50678 -0.267905 0
M  V30 1681 H 164.108 -3.20334 -1.99163 0
M  V30 1682 H 166.495 -2.21225 -1.95304 0
M  V30 1683 H 166.576 -2.54871 -0.217801 0
M  V30 1684 H 166.22 -5.02984 -0.704958 0
M  V30 1685 H 166.15 -4.66299 -2.44689 0
M  V30 1686 H 168.641 -3.51466 -1.38853 0
M  V30 1687 H 168.954 -7.39361 -2.24867 0
M  V30 1688 H 167.299 -6.64725 -2.02894 0
M  V30 1689 H 170.49 -4.38382 -1.64132 0
M  V30 1690 H 170.663 -6.15258 -2.03377 0
M  V30 1691 N 164.069 0.697108 -1.41344 0
M  V30 1692 C 165.016 1.81106 -1.43071 0
M  V30 1693 C 165.986 1.63632 -0.285275 0
M  V30 1694 O 167.171 1.84504 -0.486091 0
M  V30 1695 C 164.311 3.18975 -1.31715 0
M  V30 1696 C 163.424 3.47892 -2.56115 0
M  V30 1697 C 162.559 4.75367 -2.37064 0
M  V30 1698 C 161.598 4.97247 -3.56948 0
M  V30 1699 N 160.735 6.15947 -3.36977 0
M  V30 1700 H 165.575 1.78965 -2.38276 0
M  V30 1701 H 163.112 0.873975 -1.18322 0
M  V30 1702 H 165.07 3.98615 -1.23133 0
M  V30 1703 H 163.7 3.20297 -0.401183 0
M  V30 1704 H 162.752 2.62669 -2.75153 0
M  V30 1705 H 164.064 3.59962 -3.45295 0
M  V30 1706 H 163.218 5.63059 -2.25941 0
M  V30 1707 H 161.957 4.65541 -1.45338 0
M  V30 1708 H 160.962 4.08004 -3.68527 0
M  V30 1709 H 162.187 5.08934 -4.49626 0
M  V30 1710 H 160.133 6.07336 -2.47949 0
M  V30 1711 H 160.05 6.28777 -4.19732 0
M  V30 1712 H 161.318 7.06377 -3.29623 0
M  V30 1713 N 165.547 1.27147 0.931209 0
M  V30 1714 C 166.958 1.12044 1.49342 0
M  V30 1715 C 167.309 -0.295795 1.93957 0
M  V30 1716 O 166.434 -1.18835 1.80852 0
M  V30 1717 C 167.029 2.02781 2.71414 0
M  V30 1718 C 165.588 1.91794 3.2387 0
M  V30 1719 C 164.735 1.95543 1.96617 0
M  V30 1720 H 167.686 1.40091 0.745672 0
M  V30 1721 H 167.707 1.58156 3.46074 0
M  V30 1722 H 167.219 3.05848 2.38911 0
M  V30 1723 H 165.32 0.916992 3.6114 0
M  V30 1724 H 165.433 2.77852 3.90302 0
M  V30 1725 H 163.797 1.39722 2.12955 0
M  V30 1726 H 164.58 3.00259 1.66432 0
M  V30 1727 N 167.025 -1.13721 1.09112 0
M  V30 1728 C 168.273 -1.84559 0.823562 0
M  V30 1729 C 168.594 -1.83754 -0.652658 0
M  V30 1730 O 167.864 -1.29102 -1.47342 0
M  V30 1731 H 166.444 -0.683376 0.301673 0
M  V30 1732 H 169.106 -1.37771 1.37859 0
M  V30 1733 H 168.202 -2.8917 1.17419 0
M  V30 1734 N 168.503 -0.877838 -1.30888 0
M  V30 1735 C 169.413 -0.343096 -2.32078 0
M  V30 1736 C 170.429 0.551022 -1.65045 0
M  V30 1737 O 171.605 0.445854 -1.96403 0
M  V30 1738 C 168.67 0.439905 -3.43898 0
M  V30 1739 C 167.731 -0.483111 -4.26573 0
M  V30 1740 C 166.964 0.262616 -5.33053 0
M  V30 1741 O 167.187 1.48967 -5.50604 0
M  V30 1742 O 166.121 -0.383593 -6.00676 0
M  V30 1743 H 169.947 -1.18203 -2.79753 0
M  V30 1744 H 167.532 -0.64145 -1.34929 0
M  V30 1745 H 169.414 0.883504 -4.12034 0
M  V30 1746 H 168.089 1.25526 -2.98371 0
M  V30 1747 H 166.996 -0.975374 -3.61161 0
M  V30 1748 H 168.329 -1.26427 -4.75686 0
M  V30 1749 N 169.982 1.44106 -0.638065 0
M  V30 1750 C 171.23 2.01579 -0.145043 0
M  V30 1751 C 171.551 1.50496 1.24 0
M  V30 1752 O 170.821 0.711374 1.82527 0
M  V30 1753 H 169.401 0.745282 -0.05063 0
M  V30 1754 H 172.063 1.76516 -0.826327 0
M  V30 1755 H 171.159 3.11877 -0.118039 0
M  V30 1756 N 171.46 0.379036 1.52974 0
M  V30 1757 C 172.423 -0.448865 2.24762 0
M  V30 1758 C 173.423 -0.998689 1.26027 0
M  V30 1759 O 174.613 -0.882313 1.50203 0
M  V30 1760 C 171.745 -1.62872 2.99476 0
M  V30 1761 H 172.938 0.179491 2.99362 0
M  V30 1762 H 170.491 0.13096 1.5575 0
M  V30 1763 H 171.226 -2.29479 2.29151 0
M  V30 1764 H 171.011 -1.24128 3.71934 0
M  V30 1765 H 172.501 -2.2151 3.5401 0
M  V30 1766 N 172.938 -1.57226 0.108567 0
M  V30 1767 C 174.354 -1.5766 -0.248058 0
M  V30 1768 C 174.554 -1.12063 -1.67464 0
M  V30 1769 O 173.61 -0.803236 -2.39383 0
M  V30 1770 C 174.923 -3.0069 -0.0242287 0
M  V30 1771 C 176.471 -3.12868 -0.0909372 0
M  V30 1772 C 176.946 -4.57879 0.105067 0
M  V30 1773 N 178.437 -4.63172 0.0506846 0
M  V30 1774 C 179.172 -5.73126 0.177396 0
M  V30 1775 N 178.668 -6.91866 0.359696 0
M  V30 1776 N 180.461 -5.61977 0.117709 0
M  V30 1777 H 172.612 -1.85169 1.04049 0
M  V30 1778 H 174.875 -0.85529 0.40888 0
M  V30 1779 H 174.581 -3.38299 0.961604 0
M  V30 1780 H 174.455 -3.6945 -0.76068 0
M  V30 1781 H 176.842 -2.75124 -1.06729 0
M  V30 1782 H 176.923 -2.46672 0.677225 0
M  V30 1783 H 176.567 -4.96321 1.07834 0
M  V30 1784 H 176.497 -5.22153 -0.682954 0
M  V30 1785 H 178.988 -3.778 -0.0871266 0
M  V30 1786 H 179.301 -7.71503 0.447529 0
M  V30 1787 H 177.646 -6.93874 0.395536 0
M  V30 1788 H 180.837 -4.68094 -0.0236741 0
M  V30 1789 H 181.01 -6.47627 0.219905 0
M  V30 1790 N 174.416 0.165178 -1.56732 0
M  V30 1791 C 175.379 1.18822 -1.95995 0
M  V30 1792 C 176.379 1.3685 -0.84431 0
M  V30 1793 O 177.569 1.34152 -1.11126 0
M  V30 1794 C 174.701 2.5521 -2.26011 0
M  V30 1795 H 175.894 0.851825 -2.87548 0
M  V30 1796 H 173.447 0.407857 -1.50885 0
M  V30 1797 H 174.182 2.93852 -1.37191 0
M  V30 1798 H 173.967 2.43489 -3.07336 0
M  V30 1799 H 175.457 3.28927 -2.57288 0
M  V30 1800 N 175.894 1.51508 0.433938 0
M  V30 1801 C 176.804 1.75917 1.5521 0
M  V30 1802 C 177.82 0.643545 1.61662 0
M  V30 1803 O 178.996 0.926183 1.7884 0
M  V30 1804 C 176.061 1.88213 2.91164 0
M  V30 1805 C 175.122 3.12074 2.94802 0
M  V30 1806 C 174.355 3.23774 4.24271 0
M  V30 1807 O 174.578 2.4133 5.16833 0
M  V30 1808 O 173.512 4.16774 4.34262 0
M  V30 1809 H 177.338 2.70777 1.37527 0
M  V30 1810 H 174.923 1.36051 0.617293 0
M  V30 1811 H 176.805 1.98267 3.71845 0
M  V30 1812 H 175.48 0.965413 3.08968 0
M  V30 1813 H 174.387 3.07497 2.13065 0
M  V30 1814 H 175.72 4.03446 2.81943 0
M  V30 1815 N 177.372 -0.689602 1.41712 0
M  V30 1816 C 178.335 -1.78521 1.43746 0
M  V30 1817 C 179.335 -1.57436 0.327191 0
M  V30 1818 O 180.525 -1.64 0.587348 0
M  V30 1819 C 177.657 -3.16971 1.25467 0
M  V30 1820 H 178.85 -1.78108 2.41283 0
M  V30 1821 H 176.403 -0.89781 1.27942 0
M  V30 1822 H 177.138 -3.23019 0.287948 0
M  V30 1823 H 176.923 -3.33678 2.05917 0
M  V30 1824 H 178.413 -3.96935 1.2974 0
M  V30 1825 N 178.85 -1.27639 -0.924453 0
M  V30 1826 C 179.78 -1.13166 -2.04244 0
M  V30 1827 C 180.761 -0.032256 -1.70069 0
M  V30 1828 O 181.946 -0.207328 -1.9309 0
M  V30 1829 C 179.076 -0.781496 -3.38393 0
M  V30 1830 C 178.03 -1.83449 -3.86692 0
M  V30 1831 C 177.356 -1.33822 -5.17683 0
M  V30 1832 C 178.656 -3.23917 -4.09726 0
M  V30 1833 H 180.35 -2.06689 -2.1661 0
M  V30 1834 H 177.896 -0.995136 -1.04082 0
M  V30 1835 H 179.849 -0.667057 -4.16087 0
M  V30 1836 H 178.573 0.189439 -3.2605 0
M  V30 1837 H 177.232 -1.93789 -3.11193 0
M  V30 1838 H 176.88 -0.35665 -5.01734 0
M  V30 1839 H 176.58 -2.04224 -5.50968 0
M  V30 1840 H 178.104 -1.23679 -5.97943 0
M  V30 1841 H 179.518 -3.16559 -4.77978 0
M  V30 1842 H 177.915 -3.92059 -4.54324 0
M  V30 1843 H 178.985 -3.68729 -3.14908 0
M  V30 1844 N 180.328 1.1314 -1.09713 0
M  V30 1845 C 181.574 1.84967 -0.846104 0
M  V30 1846 C 181.929 1.82082 0.621601 0
M  V30 1847 O 181.222 1.2501 1.452 0
M  V30 1848 C 181.416 3.32167 -1.3191 0
M  V30 1849 C 181.245 3.49386 -2.83125 0
M  V30 1850 C 180.015 3.63456 -3.51038 0
M  V30 1851 C 182.213 3.45179 -3.81256 0
M  V30 1852 N 180.195 3.68966 -4.9065 0
M  V30 1853 C 181.566 3.57094 -5.06837 0
M  V30 1854 C 183.621 3.28598 -3.74069 0
M  V30 1855 C 182.324 3.5414 -6.26081 0
M  V30 1856 C 184.35 3.26953 -4.92804 0
M  V30 1857 C 183.712 3.39422 -6.17229 0
M  V30 1858 H 179.811 0.692899 -0.362512 0
M  V30 1859 H 182.395 1.35506 -1.39808 0
M  V30 1860 H 180.566 3.80186 -0.794535 0
M  V30 1861 H 182.298 3.91815 -1.01308 0
M  V30 1862 H 179.053 3.65256 -3.01471 0
M  V30 1863 H 179.477 3.75404 -5.63383 0
M  V30 1864 H 184.119 3.17858 -2.78794 0
M  V30 1865 H 181.837 3.63653 -7.21653 0
M  V30 1866 H 185.423 3.15316 -4.88945 0
M  V30 1867 H 184.303 3.38114 -7.07565 0
M  V30 1868 N 181.806 0.884767 1.30421 0
M  V30 1869 C 183.217 0.553656 1.78302 0
M  V30 1870 C 183.568 -0.930153 1.7275 0
M  V30 1871 O 182.693 -1.72681 1.30423 0
M  V30 1872 C 183.288 0.998234 3.2376 0
M  V30 1873 C 181.847 0.71854 3.69478 0
M  V30 1874 C 180.994 1.18132 2.50879 0
M  V30 1875 H 183.945 1.06901 1.17294 0
M  V30 1876 H 183.966 0.327118 3.79091 0
M  V30 1877 H 183.478 2.0782 3.27769 0
M  V30 1878 H 181.579 -0.349444 3.70958 0
M  V30 1879 H 181.692 1.30595 4.60958 0
M  V30 1880 H 180.056 0.600669 2.47516 0
M  V30 1881 H 180.839 2.26902 2.57624 0
M  V30 1882 N 183.284 -1.43765 0.645699 0
M  V30 1883 C 184.7 -1.56509 0.312591 0
M  V30 1884 C 184.9 -1.6307 -1.18365 0
M  V30 1885 O 183.956 -1.58167 -1.96824 0
M  V30 1886 C 185.269 -2.82968 1.01733 0
M  V30 1887 C 186.817 -2.96701 0.996865 0
M  V30 1888 C 187.292 -4.25982 1.68236 0
M  V30 1889 N 188.783 -4.32829 1.64964 0
M  V30 1890 C 189.518 -5.31613 2.14885 0
M  V30 1891 N 189.014 -6.36718 2.73061 0
M  V30 1892 N 190.807 -5.23217 2.05428 0
M  V30 1893 H 182.958 -1.3775 1.61675 0
M  V30 1894 H 185.221 -0.661067 0.679481 0
M  V30 1895 H 184.927 -2.84156 2.0724 0
M  V30 1896 H 184.801 -3.72957 0.564177 0
M  V30 1897 H 187.188 -2.95058 -0.0497719 0
M  V30 1898 H 187.269 -2.08022 1.48865 0
M  V30 1899 H 186.913 -4.28386 2.72852 0
M  V30 1900 H 186.843 -5.13545 1.16529 0
M  V30 1901 H 189.334 -3.57493 1.22503 0
M  V30 1902 H 189.647 -7.08401 3.08848 0
M  V30 1903 H 187.992 -6.37362 2.77118 0
M  V30 1904 H 191.183 -4.40019 1.59689 0
M  V30 1905 H 191.356 -6.00045 2.44643 0
M  V30 1906 N 184.763 -0.387143 -1.52771 0
M  V30 1907 C 186.04 0.253197 -1.93954 0
M  V30 1908 C 186.42 1.64545 -1.32243 0
M  V30 1909 O 185.768 2.23191 -0.489699 0
M  V30 1910 C 185.978 0.281722 -3.47861 0
M  V30 1911 C 187.326 0.511715 -4.21505 0
M  V30 1912 O 188.35 0.362023 -3.54356 0
M  V30 1913 O 187.209 0.804847 -5.40541 0
M  V30 1914 H 184.303 0.156845 -0.811991 0
M  V30 1915 H 186.849 -0.441494 -1.63856 0
M  V30 1916 H 185.621 -0.693571 -3.85104 0
M  V30 1917 H 185.244 1.02142 -3.84256 0
M  V30 1918 N 186.241 1.57166 -0.116904 0
M  V30 1919 C 187.204 2.14039 0.819742 0
M  V30 1920 C 188.204 1.07477 1.19605 0
M  V30 1921 O 189.394 1.33263 1.1219 0
M  V30 1922 C 186.526 2.67891 2.10826 0
M  V30 1923 H 187.719 2.98128 0.325511 0
M  V30 1924 H 185.272 1.55739 0.132312 0
M  V30 1925 H 186.007 1.87384 2.64685 0
M  V30 1926 H 185.792 3.45823 1.84793 0
M  V30 1927 H 187.282 3.11809 2.77785 0
M  V30 1928 N 187.719 -0.156864 1.56817 0
M  V30 1929 C 188.649 -1.19589 2.00551 0
M  V30 1930 C 189.63 -1.4536 0.883426 0
M  V30 1931 O 190.815 -1.56449 1.15054 0
M  V30 1932 C 187.945 -2.53143 2.37773 0
M  V30 1933 C 186.899 -2.41913 3.53075 0
M  V30 1934 C 186.225 -3.80088 3.76081 0
M  V30 1935 C 187.525 -1.91157 4.86062 0
M  V30 1936 H 189.219 -0.832293 2.87599 0
M  V30 1937 H 186.765 -0.398918 1.38364 0
M  V30 1938 H 188.718 -3.26047 2.66967 0
M  V30 1939 H 187.442 -2.91319 1.4765 0
M  V30 1940 H 186.101 -1.71462 3.24031 0
M  V30 1941 H 185.749 -4.15683 2.83225 0
M  V30 1942 H 185.449 -3.73439 4.53671 0
M  V30 1943 H 186.973 -4.54556 4.0769 0
M  V30 1944 H 188.387 -2.53846 5.14038 0
M  V30 1945 H 186.784 -1.95422 5.67389 0
M  V30 1946 H 187.854 -0.866673 4.77092 0
M  V30 1947 N 189.197 -1.51736 -0.425897 0
M  V30 1948 C 190.127 -1.76827 -1.52494 0
M  V30 1949 C 191.108 -0.618524 -1.58456 0
M  V30 1950 O 192.293 -0.862416 -1.74 0
M  V30 1951 C 189.423 -1.90374 -2.90474 0
M  V30 1952 C 188.377 -3.0588 -2.99369 0
M  V30 1953 C 187.703 -3.04625 -4.3944 0
M  V30 1954 C 189.003 -4.45644 -2.72394 0
M  V30 1955 H 190.697 -2.68855 -1.31748 0
M  V30 1956 H 188.243 -1.29372 -0.632362 0
M  V30 1957 H 190.196 -2.0651 -3.6733 0
M  V30 1958 H 188.92 -0.95004 -3.12477 0
M  V30 1959 H 187.579 -2.89467 -2.24954 0
M  V30 1960 H 187.227 -2.0701 -4.58428 0
M  V30 1961 H 186.927 -3.82195 -4.46319 0
M  V30 1962 H 188.451 -3.22869 -5.18255 0
M  V30 1963 H 189.865 -4.62348 -3.38979 0
M  V30 1964 H 188.262 -5.25006 -2.9067 0
M  V30 1965 H 189.332 -4.54893 -1.67929 0
M  V30 1966 N 190.675 0.682077 -1.42076 0
M  V30 1967 C 191.922 1.44215 -1.42156 0
M  V30 1968 C 192.25 1.94468 -0.0354186 0
M  V30 1969 O 191.505 1.70816 0.955002 0
M  V30 1970 C 191.804 2.66036 -2.38662 0
M  V30 1971 C 191.47 2.34366 -3.85206 0
M  V30 1972 C 190.132 2.25439 -4.25124 0
M  V30 1973 C 192.484 2.08513 -4.77673 0
M  V30 1974 C 189.812 1.88775 -5.55501 0
M  V30 1975 C 192.164 1.73354 -6.08384 0
M  V30 1976 C 190.828 1.62933 -6.47309 0
M  V30 1977 H 190.098 0.527718 -0.520187 0
M  V30 1978 H 192.745 0.778387 -1.74967 0
M  V30 1979 H 191.05 3.3741 -1.99152 0
M  V30 1980 H 192.747 3.24205 -2.35991 0
M  V30 1981 H 189.337 2.42213 -3.53597 0
M  V30 1982 H 193.521 2.14346 -4.47626 0
M  V30 1983 H 188.777 1.7927 -5.84527 0
M  V30 1984 H 192.951 1.52373 -6.79526 0
M  V30 1985 H 190.578 1.34292 -7.48244 0
M  V30 1986 N 192.153 1.28127 0.917671 0
M  V30 1987 C 193.116 1.11744 2.00115 0
M  V30 1988 C 194.116 0.0583052 1.60694 0
M  V30 1989 O 195.306 0.303755 1.71531 0
M  V30 1990 C 192.438 0.704862 3.33533 0
M  V30 1991 H 193.631 2.07966 2.16079 0
M  V30 1992 H 191.184 1.11058 1.09981 0
M  V30 1993 H 191.919 -0.258299 3.2327 0
M  V30 1994 H 191.704 1.4699 3.63505 0
M  V30 1995 H 193.194 0.612768 4.1308 0
M  V30 1996 N 193.631 -1.12557 1.10312 0
M  V30 1997 C 194.877 -1.84311 0.846011 0
M  V30 1998 C 195.21 -1.83805 -0.626859 0
M  V30 1999 O 194.485 -1.28268 -1.46211 0
M  V30 2000 C 194.768 -3.32048 1.39341 0
M  V30 2001 C 194.621 -3.41016 2.93305 0
M  V30 2002 C 195.94 -4.27764 1.03468 0
M  V30 2003 H 193.059 -0.669192 0.30879 0
M  V30 2004 H 195.701 -1.32057 1.36605 0
M  V30 2005 H 193.851 -3.76678 0.951087 0
M  V30 2006 H 195.523 -3.05031 3.46055 0
M  V30 2007 H 193.766 -2.81603 3.29973 0
M  V30 2008 H 194.437 -4.44948 3.26689 0
M  V30 2009 H 196.913 -3.91253 1.41633 0
M  V30 2010 H 195.789 -5.29549 1.44463 0
M  V30 2011 H 196.05 -4.42064 -0.0560404 0
M  V30 2012 N 195.109 -0.891671 -1.2995 0
M  V30 2013 C 196.386 -0.433307 -1.9074 0
M  V30 2014 C 196.766 1.08646 -1.80995 0
M  V30 2015 O 196.114 1.92476 -1.23147 0
M  V30 2016 C 196.324 -0.938895 -3.36134 0
M  V30 2017 C 197.672 -0.977829 -4.13187 0
M  V30 2018 O 198.696 -0.886015 -3.45005 0
M  V30 2019 O 197.555 -1.11453 -5.35015 0
M  V30 2020 H 194.649 -0.133699 -0.816121 0
M  V30 2021 H 197.195 -0.981011 -1.38471 0
M  V30 2022 H 195.967 -1.98281 -3.37343 0
M  V30 2023 H 195.59 -0.37074 -3.95868 0
M  V30 2024 N 196.587 1.43421 -0.653314 0
M  V30 2025 C 197.535 2.32546 0.0501531 0
M  V30 2026 C 198.529 1.48617 0.812985 0
M  V30 2027 O 199.735 1.64825 0.723375 0
M  V30 2028 H 196.11 0.751185 0.0350032 0
M  V30 2029 H 198.081 2.89602 -0.719261 0
M  V30 2030 C 196.83 3.32925 1.00279 0
M  V30 2031 H 196.153 3.97532 0.425236 0
M  V30 2032 H 197.593 3.9792 1.46409 0
M  V30 2033 C 196.052 2.63532 2.09886 0
M  V30 2034 O 196.582 2.45092 3.18265 0
M  V30 2035 N 194.788 2.22905 1.86445 0
M  V30 2036 H 194.335 2.38103 0.98309 0
M  V30 2037 H 194.293 1.76805 2.59976 0
M  V30 2038 N 198.065 0.39524 1.52563 0
M  V30 2039 C 198.995 -0.428384 2.29537 0
M  V30 2040 C 199.976 -1.05831 1.33169 0
M  V30 2041 O 201.161 -1.06995 1.62067 0
M  V30 2042 C 198.291 -1.55274 3.10656 0
M  V30 2043 C 197.245 -1.04855 4.14957 0
M  V30 2044 C 196.571 -2.26543 4.84337 0
M  V30 2045 C 197.871 -0.112324 5.22179 0
M  V30 2046 H 199.565 0.213867 2.98635 0
M  V30 2047 H 197.111 0.104298 1.43622 0
M  V30 2048 H 199.064 -2.1358 3.63265 0
M  V30 2049 H 197.788 -2.22266 2.39302 0
M  V30 2050 H 196.447 -0.487985 3.63338 0
M  V30 2051 H 196.095 -2.92059 4.09525 0
M  V30 2052 H 195.795 -1.93466 5.54837 0
M  V30 2053 H 197.319 -2.85481 5.39753 0
M  V30 2054 H 198.733 -0.603752 5.70112 0
M  V30 2055 H 197.13 0.128968 5.99961 0
M  V30 2056 H 198.2 0.837052 4.77621 0
M  V30 2057 N 199.544 -1.57102 0.125237 0
M  V30 2058 C 200.492 -2.16905 -0.839927 0
M  V30 2059 C 201.486 -1.11998 -1.27094 0
M  V30 2060 O 202.692 -1.3029 -1.24195 0
M  V30 2061 H 199.067 -0.694252 -0.288995 0
M  V30 2062 H 201.038 -2.96774 -0.311115 0
M  V30 2063 C 199.787 -2.78795 -2.07771 0
M  V30 2064 H 199.11 -3.59221 -1.755 0
M  V30 2065 H 200.55 -3.2417 -2.73295 0
M  V30 2066 C 199.009 -1.76193 -2.87155 0
M  V30 2067 O 199.539 -1.21909 -3.82755 0
M  V30 2068 N 197.745 -1.45991 -2.51267 0
M  V30 2069 H 197.292 -1.90325 -1.73592 0
M  V30 2070 H 197.25 -0.775844 -3.04677 0
M  V30 2071 N 201.022 0.148545 -1.56898 0
M  V30 2072 C 202.438 0.501131 -1.51528 0
M  V30 2073 C 202.638 1.83458 -0.833399 0
M  V30 2074 O 201.694 2.49259 -0.40328 0
M  V30 2075 C 203.007 0.512864 -2.96294 0
M  V30 2076 C 204.555 0.598487 -3.07225 0
M  V30 2077 C 205.03 0.640897 -4.53494 0
M  V30 2078 N 206.521 0.703163 -4.57832 0
M  V30 2079 C 207.256 0.756935 -5.68382 0
M  V30 2080 N 206.752 0.770147 -6.88506 0
M  V30 2081 N 208.545 0.797698 -5.56411 0
M  V30 2082 H 200.696 -0.725532 -1.99624 0
M  V30 2083 H 202.959 -0.264358 -0.910395 0
M  V30 2084 H 202.665 -0.398691 -3.49433 0
M  V30 2085 H 202.539 1.35133 -3.52163 0
M  V30 2086 H 204.926 1.50046 -2.54106 0
M  V30 2087 H 205.007 -0.267093 -2.54402 0
M  V30 2088 H 204.651 -0.256915 -5.0725 0
M  V30 2089 H 204.581 1.52295 -5.04097 0
M  V30 2090 H 207.072 0.700314 -3.71354 0
M  V30 2091 H 207.385 0.812983 -7.68512 0
M  V30 2092 H 205.73 0.738049 -6.9107 0
M  V30 2093 H 208.921 0.784535 -4.61479 0
M  V30 2094 H 209.094 0.83614 -6.42583 0
M  V30 2095 N 202.5 1.5196 0.417844 0
M  V30 2096 C 203.746 1.65836 1.16732 0
M  V30 2097 C 204.079 0.382881 1.90388 0
M  V30 2098 O 203.354 -0.618368 1.84408 0
M  V30 2099 C 203.637 2.87466 2.16876 0
M  V30 2100 C 203.49 4.25041 1.47174 0
M  V30 2101 C 204.809 3.04613 3.17646 0
M  V30 2102 H 201.928 0.603515 0.423011 0
M  V30 2103 H 204.57 1.84494 0.454105 0
M  V30 2104 H 202.72 2.71689 2.777 0
M  V30 2105 H 204.392 4.52527 0.895376 0
M  V30 2106 H 202.635 4.26843 0.773806 0
M  V30 2107 H 203.306 5.06176 2.20204 0
M  V30 2108 H 205.782 3.1923 2.66892 0
M  V30 2109 H 204.658 3.91247 3.8499 0
M  V30 2110 H 204.919 2.17541 3.84874 0
M  V30 2111 N 203.978 -0.674533 1.42435 0
M  V30 2112 C 204.888 -1.81751 1.48337 0
M  V30 2113 C 205.904 -1.69975 0.372099 0
M  V30 2114 O 207.08 -1.91521 0.62304 0
M  V30 2115 C 204.145 -3.17895 1.38361 0
M  V30 2116 C 203.206 -3.41625 2.59982 0
M  V30 2117 C 202.439 -4.71274 2.50473 0
M  V30 2118 O 202.662 -5.49197 1.54075 0
M  V30 2119 O 201.596 -4.96254 3.4061 0
M  V30 2120 H 205.422 -1.79728 2.44809 0
M  V30 2121 H 203.007 -0.830312 1.24202 0
M  V30 2122 H 204.889 -3.99136 1.35161 0
M  V30 2123 H 203.564 -3.20555 0.450144 0
M  V30 2124 H 202.471 -2.60231 2.68757 0
M  V30 2125 H 203.804 -3.43796 3.52229 0
M  V30 2126 N 205.456 -1.28612 -0.910864 0
M  V30 2127 C 206.704 -1.15705 -1.65701 0
M  V30 2128 C 207.025 0.29416 -1.92769 0
M  V30 2129 O 206.295 1.20331 -1.54588 0
M  V30 2130 H 204.875 -0.425216 -0.614167 0
M  V30 2131 H 207.537 -1.61381 -1.0928 0
M  V30 2132 H 206.633 -1.6988 -2.61815 0
M  V30 2133 N 206.934 1.1197 -1.10907 0
M  V30 2134 C 207.864 2.19928 -0.784473 0
M  V30 2135 C 208.845 1.6833 0.244726 0
M  V30 2136 O 210.03 1.93892 0.109418 0
M  V30 2137 C 207.16 3.46597 -0.220827 0
M  V30 2138 C 206.114 4.11376 -1.18127 0
M  V30 2139 C 205.44 5.32554 -0.478594 0
M  V30 2140 C 206.74 4.56945 -2.52979 0
M  V30 2141 H 208.434 2.47337 -1.68715 0
M  V30 2142 H 205.98 1.18879 -0.812642 0
M  V30 2143 H 207.933 4.21396 0.0184278 0
M  V30 2144 H 206.657 3.1863 0.717113 0
M  V30 2145 H 205.316 3.38564 -1.40606 0
M  V30 2146 H 204.964 5.00856 0.463976 0
M  V30 2147 H 204.664 5.76844 -1.11912 0
M  V30 2148 H 206.188 6.10096 -0.248 0
M  V30 2149 H 207.602 5.23093 -2.3462 0
M  V30 2150 H 205.999 5.1203 -3.12962 0
M  V30 2151 H 207.069 3.70676 -3.12614 0
M  V30 2152 N 208.412 0.89855 1.29475 0
M  V30 2153 C 209.342 0.39201 2.30186 0
M  V30 2154 C 210.323 -0.532359 1.61555 0
M  V30 2155 O 211.508 -0.443331 1.89072 0
M  V30 2156 C 208.638 -0.382353 3.45189 0
M  V30 2157 C 207.592 0.451483 4.25612 0
M  V30 2158 C 206.918 -0.450307 5.328 0
M  V30 2159 C 208.218 1.70079 4.93832 0
M  V30 2160 H 209.912 1.23362 2.72804 0
M  V30 2161 H 207.458 0.594638 1.31149 0
M  V30 2162 H 209.411 -0.747451 4.14718 0
M  V30 2163 H 208.135 -1.25774 3.01411 0
M  V30 2164 H 206.794 0.798897 3.57789 0
M  V30 2165 H 206.442 -1.32379 4.85268 0
M  V30 2166 H 206.142 0.103902 5.87508 0
M  V30 2167 H 207.666 -0.811623 6.05182 0
M  V30 2168 H 209.08 1.40549 5.55805 0
M  V30 2169 H 207.477 2.19623 5.58467 0
M  V30 2170 H 208.547 2.43744 4.19186 0
M  V30 2171 N 209.89 -1.43072 0.660911 0
M  V30 2172 C 211.301 -1.84932 0.256348 0
M  V30 2173 C 211.652 -1.55325 -1.19868 0
M  V30 2174 O 210.777 -1.00607 -1.91591 0
M  V30 2175 C 211.372 -3.35684 0.458475 0
M  V30 2176 C 209.931 -3.76245 0.108161 0
M  V30 2177 C 209.078 -2.66749 0.757641 0
M  V30 2178 H 212.029 -1.33116 0.864051 0
M  V30 2179 H 212.05 -3.79365 -0.293683 0
M  V30 2180 H 211.562 -3.572 1.51755 0
M  V30 2181 H 209.663 -3.60338 -0.948014 0
M  V30 2182 H 209.776 -4.76058 0.538992 0
M  V30 2183 H 208.14 -2.53989 0.190185 0
M  V30 2184 H 208.923 -2.91092 1.81989 0
M  V30 2185 N 211.368 -0.403325 -1.52352 0
M  V30 2186 C 212.598 0.17376 -2.05868 0
M  V30 2187 C 213.006 1.39898 -1.27378 0
M  V30 2188 O 212.349 1.80939 -0.31729 0
M  V30 2189 C 212.411 0.594756 -3.54546 0
M  V30 2190 C 212.075 -0.518926 -4.54044 0
M  V30 2191 C 213.072 -1.3807 -5.01231 0
M  V30 2192 C 210.757 -0.689961 -4.97539 0
M  V30 2193 C 212.751 -2.39852 -5.90551 0
M  V30 2194 C 210.438 -1.71109 -5.86656 0
M  V30 2195 C 211.436 -2.56378 -6.33056 0
M  V30 2196 O 211.124 -3.56743 -7.20409 0
M  V30 2197 H 210.856 0.0264951 -0.675481 0
M  V30 2198 H 213.41 -0.571179 -1.97299 0
M  V30 2199 H 211.64 1.39189 -3.60782 0
M  V30 2200 H 213.329 1.0991 -3.90736 0
M  V30 2201 H 214.095 -1.25994 -4.68349 0
M  V30 2202 H 209.974 -0.035939 -4.60986 0
M  V30 2203 H 213.518 -3.06441 -6.26689 0
M  V30 2204 H 209.415 -1.83218 -6.18952 0
M  V30 2205 H 210.183 -3.52918 -7.38506 0
M  V30 2206 N 212.846 1.57033 -0.133567 0
M  V30 2207 C 213.794 2.17348 0.828412 0
M  V30 2208 C 214.788 1.12671 1.26498 0
M  V30 2209 O 215.994 1.30947 1.23502 0
M  V30 2210 H 212.369 0.695775 0.285309 0
M  V30 2211 H 214.34 2.96935 0.295372 0
M  V30 2212 C 213.089 2.79893 2.06289 0
M  V30 2213 H 212.412 3.60147 1.73592 0
M  V30 2214 H 213.852 3.25615 2.71572 0
M  V30 2215 C 212.311 1.77713 2.86216 0
M  V30 2216 O 212.841 1.23937 3.82103 0
M  V30 2217 N 211.047 1.47321 2.50489 0
M  V30 2218 H 210.594 1.91243 1.7258 0
M  V30 2219 H 210.552 0.79199 3.04261 0
M  V30 2220 N 214.325 -0.140222 1.56975 0
M  V30 2221 C 215.255 -1.17456 2.01808 0
M  V30 2222 C 216.236 -1.44415 0.898794 0
M  V30 2223 O 217.421 -1.5522 1.16707 0
M  V30 2224 C 214.551 -2.50607 2.40444 0
M  V30 2225 C 213.505 -2.38155 3.55621 0
M  V30 2226 C 212.831 -3.76078 3.80091 0
M  V30 2227 C 214.131 -1.85991 4.88062 0
M  V30 2228 H 215.825 -0.801743 2.88466 0
M  V30 2229 H 213.371 -0.38422 1.38779 0
M  V30 2230 H 215.324 -3.23197 2.7041 0
M  V30 2231 H 214.048 -2.89737 1.50732 0
M  V30 2232 H 212.707 -1.68016 3.25832 0
M  V30 2233 H 212.355 -4.12656 2.87618 0
M  V30 2234 H 212.055 -3.68606 4.57606 0
M  V30 2235 H 213.579 -4.50206 4.12488 0
M  V30 2236 H 214.993 -2.4838 5.16701 0
M  V30 2237 H 213.39 -1.89393 5.6943 0
M  V30 2238 H 214.46 -0.816023 4.77984 0
M  V30 2239 N 215.803 -1.52179 -0.40978 0
M  V30 2240 C 217.028 -1.70347 -1.18308 0
M  V30 2241 C 217.453 -0.411887 -1.83535 0
M  V30 2242 O 216.811 0.630587 -1.6998 0
M  V30 2243 C 216.859 -2.83977 -2.22238 0
M  V30 2244 O 215.963 -2.495 -3.28365 0
M  V30 2245 H 215.304 -0.567103 -0.345384 0
M  V30 2246 H 217.834 -1.98879 -0.480445 0
M  V30 2247 H 217.844 -3.0887 -2.66577 0
M  V30 2248 H 216.519 -3.77685 -1.74146 0
M  V30 2249 H 215.096 -2.35277 -2.89308 0
M  V30 2250 N 217.281 0.66697 -1.42791 0
M  V30 2251 C 218.211 1.79218 -1.49677 0
M  V30 2252 C 219.192 1.66405 -0.352623 0
M  V30 2253 O 220.377 1.85708 -0.567993 0
M  V30 2254 C 217.507 3.17565 -1.40605 0
M  V30 2255 C 216.461 3.45124 -2.53127 0
M  V30 2256 C 215.787 4.83127 -2.29112 0
M  V30 2257 C 217.087 3.41236 -3.95418 0
M  V30 2258 H 218.781 1.73713 -2.43853 0
M  V30 2259 H 216.327 0.83432 -1.17367 0
M  V30 2260 H 218.28 3.96022 -1.44029 0
M  V30 2261 H 217.004 3.23767 -0.429271 0
M  V30 2262 H 215.663 2.69031 -2.49034 0
M  V30 2263 H 215.311 4.85988 -1.29709 0
M  V30 2264 H 215.011 5.02528 -3.04531 0
M  V30 2265 H 216.535 5.63859 -2.34297 0
M  V30 2266 H 217.949 4.09651 -4.01073 0
M  V30 2267 H 216.346 3.72173 -4.70752 0
M  V30 2268 H 217.416 2.39665 -4.21532 0
M  V30 2269 N 218.759 1.29093 0.90403 0
M  V30 2270 C 219.669 1.15727 2.0407 0
M  V30 2271 C 220.685 0.0815308 1.73809 0
M  V30 2272 O 221.861 0.292749 1.99261 0
M  V30 2273 C 218.926 0.830424 3.36608 0
M  V30 2274 C 217.987 1.98955 3.80415 0
M  V30 2275 C 217.22 1.6782 5.06628 0
M  V30 2276 O 217.443 0.597105 5.67266 0
M  V30 2277 O 216.377 2.52486 5.46383 0
M  V30 2278 H 220.203 2.11171 2.18267 0
M  V30 2279 H 217.788 1.08504 1.027 0
M  V30 2280 H 219.67 0.662521 4.16159 0
M  V30 2281 H 218.345 -0.0942678 3.23563 0
M  V30 2282 H 217.252 2.21267 3.01648 0
M  V30 2283 H 218.585 2.89529 3.98037 0
M  V30 2284 N 220.237 -1.11381 1.11499 0
M  V30 2285 C 221.483 -1.83403 0.865512 0
M  V30 2286 C 221.816 -1.84459 -0.607329 0
M  V30 2287 O 221.091 -1.29811 -1.44842 0
M  V30 2288 C 221.374 -3.30552 1.42855 0
M  V30 2289 C 221.227 -3.37886 2.96906 0
M  V30 2290 C 222.546 -4.26643 1.08 0
M  V30 2291 H 219.665 -0.665879 0.31587 0
M  V30 2292 H 222.307 -1.30601 1.37998 0
M  V30 2293 H 220.457 -3.75648 0.990985 0
M  V30 2294 H 222.129 -3.01343 3.49271 0
M  V30 2295 H 220.372 -2.78088 3.32941 0
M  V30 2296 H 221.043 -4.41458 3.31389 0
M  V30 2297 H 223.519 -3.89729 1.45775 0
M  V30 2298 H 222.395 -5.27986 1.50072 0
M  V30 2299 H 222.656 -4.42099 -0.00915037 0
M  V30 2300 N 221.715 -0.905404 -1.28997 0
M  V30 2301 C 222.961 -0.535039 -1.95615 0
M  V30 2302 C 223.294 0.917404 -1.71165 0
M  V30 2303 O 222.569 1.65123 -1.02785 0
M  V30 2304 C 222.852 -0.834918 -3.50287 0
M  V30 2305 C 222.705 -2.33948 -3.84172 0
M  V30 2306 C 224.024 -0.325318 -4.38896 0
M  V30 2307 H 221.143 -0.195861 -0.710498 0
M  V30 2308 H 223.785 -1.13313 -1.52513 0
M  V30 2309 H 221.935 -0.325904 -3.87131 0
M  V30 2310 H 223.607 -2.91847 -3.57243 0
M  V30 2311 H 221.85 -2.79789 -3.31513 0
M  V30 2312 H 222.521 -2.49987 -4.92149 0
M  V30 2313 H 224.997 -0.761256 -4.09077 0
M  V30 2314 H 223.873 -0.564295 -5.45992 0
M  V30 2315 H 224.134 0.774144 -4.35269 0
M  V30 2316 N 223.193 1.4272 -0.668489 0
M  V30 2317 C 224.126 2.28111 0.0637898 0
M  V30 2318 C 225.104 1.40705 0.814912 0
M  V30 2319 O 226.288 1.70146 0.81134 0
M  V30 2320 C 223.415 3.20429 1.0974 0
M  V30 2321 C 222.461 4.24197 0.442579 0
M  V30 2322 S 223.294 5.29563 -0.795173 0
M  V30 2323 C 224.45 6.25449 0.237516 0
M  V30 2324 H 224.683 2.8987 -0.660521 0
M  V30 2325 H 222.216 1.47456 -0.457821 0
M  V30 2326 H 224.174 3.74158 1.68868 0
M  V30 2327 H 222.835 2.57818 1.79411 0
M  V30 2328 H 222.028 4.88954 1.22227 0
M  V30 2329 H 221.63 3.73925 -0.0749554 0
M  V30 2330 H 223.922 6.68524 1.09915 0
M  V30 2331 H 224.865 7.07104 -0.375421 0
M  V30 2332 H 225.273 5.61511 0.580167 0
M  V30 2333 N 224.671 0.411399 1.52136 0
M  V30 2334 C 225.634 -0.401089 2.25663 0
M  V30 2335 C 226.634 -0.971732 1.28117 0
M  V30 2336 O 227.824 -0.850254 1.52041 0
M  V30 2337 C 224.956 -1.56483 3.02863 0
M  V30 2338 H 226.149 0.24295 2.98914 0
M  V30 2339 H 223.702 0.163968 1.55438 0
M  V30 2340 H 224.437 -2.24567 2.33967 0
M  V30 2341 H 224.222 -1.16211 3.74483 0
M  V30 2342 H 225.712 -2.13951 3.58629 0
M  V30 2343 N 226.149 -1.5696 0.141893 0
M  V30 2344 C 227.398 -1.95135 -0.510427 0
M  V30 2345 C 227.711 -1.02896 -1.66348 0
M  V30 2346 O 228.917 -1.30629 -2.38009 0
M  V30 2347 C 227.373 -3.46876 -0.959427 0
M  V30 2348 C 226.981 -4.47691 0.166419 0
M  V30 2349 C 228.725 -3.93927 -1.58183 0
M  V30 2350 C 226.632 -5.90636 -0.300565 0
M  V30 2351 H 225.562 -0.728494 -0.194454 0
M  V30 2352 H 228.213 -1.8211 0.22542 0
M  V30 2353 H 226.595 -3.55215 -1.75038 0
M  V30 2354 H 227.769 -4.51043 0.94325 0
M  V30 2355 H 226.084 -4.10527 0.696905 0
M  V30 2356 H 228.681 -4.98158 -1.94275 0
M  V30 2357 H 229.024 -3.3519 -2.46888 0
M  V30 2358 H 229.557 -3.88484 -0.855863 0
M  V30 2359 H 226.296 -6.5318 0.550989 0
M  V30 2360 H 225.816 -5.90655 -1.04338 0
M  V30 2361 H 227.495 -6.42588 -0.754265 0
M  V30 2362 N 227.627 0.131896 -1.57047 0
M  V30 2363 C 228.537 1.1815 -2.02676 0
M  V30 2364 C 229.553 1.46113 -0.944824 0
M  V30 2365 O 230.729 1.57485 -1.25541 0
M  V30 2366 C 227.794 2.49139 -2.41103 0
M  V30 2367 C 226.855 2.28688 -3.63318 0
M  V30 2368 C 226.088 3.53431 -3.99903 0
M  V30 2369 O 226.311 4.60223 -3.36973 0
M  V30 2370 O 225.245 3.45198 -4.93074 0
M  V30 2371 H 229.071 0.824069 -2.92306 0
M  V30 2372 H 226.656 0.341745 -1.45439 0
M  V30 2373 H 228.538 3.26338 -2.66611 0
M  V30 2374 H 227.213 2.84382 -1.54624 0
M  V30 2375 H 226.12 1.4939 -3.42977 0
M  V30 2376 H 227.453 1.98355 -4.50462 0
M  V30 2377 N 229.106 1.52395 0.401703 0
M  V30 2378 C 230.069 1.75636 1.47257 0
M  V30 2379 C 231.069 0.62628 1.48103 0
M  V30 2380 O 232.259 0.894227 1.49497 0
M  V30 2381 C 229.391 1.84553 2.86624 0
M  V30 2382 H 230.584 2.71241 1.27938 0
M  V30 2383 H 228.137 1.42923 0.632662 0
M  V30 2384 H 228.872 0.908882 3.11303 0
M  V30 2385 H 228.657 2.66715 2.87412 0
M  V30 2386 H 230.147 2.04251 3.64241 0
M  V30 2387 N 230.584 -0.659388 1.43143 0
M  V30 2388 C 231.832 -1.41654 1.44147 0
M  V30 2389 C 232.153 -1.94893 0.0645739 0
M  V30 2390 O 231.423 -1.74044 -0.899198 0
M  V30 2391 H 230.003 -0.525708 0.530697 0
M  V30 2392 H 232.665 -0.778097 1.78694 0
M  V30 2393 H 231.761 -2.26195 2.1504 0
M  V30 2394 N 232.062 -1.29571 -0.897171 0
M  V30 2395 C 232.992 -1.17473 -2.01798 0
M  V30 2396 C 233.973 -0.068323 -1.69963 0
M  V30 2397 O 235.158 -0.248239 -1.92607 0
M  V30 2398 C 232.288 -0.853099 -3.36659 0
M  V30 2399 C 231.242 -1.9161 -3.82713 0
M  V30 2400 C 230.568 -1.44773 -5.14728 0
M  V30 2401 C 231.868 -3.32535 -4.02763 0
M  V30 2402 H 233.562 -2.11237 -2.12177 0
M  V30 2403 H 231.108 -1.01699 -1.01948 0
M  V30 2404 H 233.061 -0.755165 -4.14578 0
M  V30 2405 H 231.785 0.120236 -3.26379 0
M  V30 2406 H 230.444 -2.00346 -3.07013 0
M  V30 2407 H 230.092 -0.462995 -5.00865 0
M  V30 2408 H 229.792 -2.15865 -5.46513 0
M  V30 2409 H 231.316 -1.36334 -5.95185 0
M  V30 2410 H 232.73 -3.26626 -4.71156 0
M  V30 2411 H 231.127 -4.01607 -4.45905 0
M  V30 2412 H 232.197 -3.75326 -3.07016 0
M  V30 2413 N 233.54 1.10788 -1.12088 0
M  V30 2414 C 234.788 1.8231 -0.872205 0
M  V30 2415 C 235.109 1.85419 0.603709 0
M  V30 2416 O 234.379 1.32963 1.43867 0
M  V30 2417 H 232.959 0.675137 -0.319686 0
M  V30 2418 H 235.621 1.34068 -1.41463 0
M  V30 2419 H 234.717 2.85955 -1.25045 0
M  V30 2420 N 235.018 0.912232 1.28515 0
M  V30 2421 C 236.295 0.463597 1.90027 0
M  V30 2422 C 236.675 -1.05753 1.82701 0
M  V30 2423 O 236.023 -1.90492 1.26194 0
M  V30 2424 C 236.233 0.992253 3.34597 0
M  V30 2425 C 237.581 1.04344 4.11579 0
M  V30 2426 O 238.605 0.94079 3.43551 0
M  V30 2427 O 237.464 1.1995 5.33174 0
M  V30 2428 H 234.558 0.146666 0.813891 0
M  V30 2429 H 237.104 1.00292 1.36893 0
M  V30 2430 H 235.876 2.03623 3.34146 0
M  V30 2431 H 235.499 0.433672 3.95228 0
M  V30 2432 N 236.496 -1.42363 0.676048 0
M  V30 2433 C 237.426 -2.33497 0.0124832 0
M  V30 2434 C 238.407 -1.50748 -0.787981 0
M  V30 2435 O 239.592 -1.79346 -0.744884 0
M  V30 2436 C 236.722 -3.34377 -0.938582 0
M  V30 2437 C 235.676 -4.27289 -0.246622 0
M  V30 2438 C 235.002 -5.18386 -1.31071 0
M  V30 2439 C 236.302 -5.14916 0.875125 0
M  V30 2440 H 237.996 -2.89233 0.773593 0
M  V30 2441 H 235.542 -1.39073 0.37346 0
M  V30 2442 H 237.495 -3.97044 -1.41188 0
M  V30 2443 H 236.219 -2.76947 -1.73113 0
M  V30 2444 H 234.878 -3.66018 0.206456 0
M  V30 2445 H 234.526 -4.57282 -2.09528 0
M  V30 2446 H 234.226 -5.81378 -0.852839 0
M  V30 2447 H 235.75 -5.83929 -1.78492 0
M  V30 2448 H 237.164 -5.71262 0.482983 0
M  V30 2449 H 235.561 -5.86747 1.25887 0
M  V30 2450 H 236.631 -4.53242 1.72335 0
M  V30 2451 N 237.974 -0.419461 -1.51915 0
M  V30 2452 C 239.385 0.0477853 -1.86639 0
M  V30 2453 C 239.736 1.43531 -1.33766 0
M  V30 2454 O 238.861 2.05401 -0.68113 0
M  V30 2455 C 239.456 0.0934885 -3.38671 0
M  V30 2456 C 238.015 0.505097 -3.72996 0
M  V30 2457 C 237.162 -0.313792 -2.75519 0
M  V30 2458 H 240.113 -0.636088 -1.45395 0
M  V30 2459 H 240.134 0.906667 -3.6954 0
M  V30 2460 H 239.646 -0.916501 -3.77123 0
M  V30 2461 H 237.747 1.52135 -3.40126 0
M  V30 2462 H 237.86 0.242309 -4.78487 0
M  V30 2463 H 236.224 0.225363 -2.53701 0
M  V30 2464 H 237.007 -1.32232 -3.16812 0
M  V30 2465 N 239.452 1.56882 -0.150215 0
M  V30 2466 C 240.382 2.19935 0.784284 0
M  V30 2467 C 241.363 1.14854 1.25469 0
M  V30 2468 O 242.548 1.43209 1.31168 0
M  V30 2469 C 239.678 2.82349 2.02229 0
M  V30 2470 C 238.632 3.93285 1.68853 0
M  V30 2471 C 237.958 4.42649 2.99944 0
M  V30 2472 C 239.258 5.13904 0.932714 0
M  V30 2473 H 240.952 2.9828 0.258781 0
M  V30 2474 H 238.498 1.43473 0.123029 0
M  V30 2475 H 240.451 3.25126 2.68088 0
M  V30 2476 H 239.175 2.0134 2.57157 0
M  V30 2477 H 237.834 3.5113 1.05371 0
M  V30 2478 H 237.482 3.58458 3.52869 0
M  V30 2479 H 237.182 5.17476 2.78374 0
M  V30 2480 H 238.706 4.88099 3.66868 0
M  V30 2481 H 240.12 5.53506 1.49345 0
M  V30 2482 H 238.517 5.94515 0.81684 0
M  V30 2483 H 239.587 4.84842 -0.0749568 0
M  V30 2484 N 240.93 -0.123565 1.57115 0
M  V30 2485 C 241.86 -1.15309 2.03042 0
M  V30 2486 C 242.841 -1.43454 0.914061 0
M  V30 2487 O 244.026 -1.53973 1.18347 0
M  V30 2488 C 241.156 -2.48043 2.43089 0
M  V30 2489 C 240.11 -2.3437 3.58127 0
M  V30 2490 C 239.436 -3.72026 3.84059 0
M  V30 2491 C 240.736 -1.80804 4.90007 0
M  V30 2492 H 242.43 -0.771102 2.893 0
M  V30 2493 H 239.976 -0.369479 1.39179 0
M  V30 2494 H 241.929 -3.20311 2.73823 0
M  V30 2495 H 240.653 -2.88122 1.53796 0
M  V30 2496 H 239.312 -1.64551 3.27595 0
M  V30 2497 H 238.96 -4.09582 2.91979 0
M  V30 2498 H 238.66 -3.63732 4.6149 0
M  V30 2499 H 240.184 -4.45806 4.1724 0
M  V30 2500 H 241.598 -2.42886 5.19307 0
M  V30 2501 H 239.995 -1.83343 5.71407 0
M  V30 2502 H 241.065 -0.76528 4.78823 0
M  V30 2503 N 242.408 -1.52605 -0.393616 0
M  V30 2504 C 243.819 -1.59417 -0.971761 0
M  V30 2505 C 244.17 -0.444173 -1.91106 0
M  V30 2506 O 243.295 0.433382 -2.12016 0
M  V30 2507 C 243.89 -2.88936 -1.76921 0
M  V30 2508 C 242.449 -2.98175 -2.29714 0
M  V30 2509 C 241.596 -2.54491 -1.10135 0
M  V30 2510 H 244.547 -1.57751 -0.173317 0
M  V30 2511 H 244.568 -2.75163 -2.62804 0
M  V30 2512 H 244.08 -3.72616 -1.08532 0
M  V30 2513 H 242.181 -2.19024 -3.01429 0
M  V30 2514 H 242.294 -4.02726 -2.59517 0
M  V30 2515 H 240.658 -2.08702 -1.45999 0
M  V30 2516 H 241.441 -3.4056 -0.432874 0
M  V30 2517 N 243.887 0.651787 -1.4349 0
M  V30 2518 C 245.134 1.41167 -1.45183 0
M  V30 2519 C 245.462 1.94349 -0.0766601 0
M  V30 2520 O 244.717 1.72804 0.918555 0
M  V30 2521 C 245.016 2.60914 -2.44251 0
M  V30 2522 C 244.682 2.26142 -3.9009 0
M  V30 2523 C 243.344 2.16371 -4.2981 0
M  V30 2524 C 245.696 1.98334 -4.81989 0
M  V30 2525 C 243.024 1.7695 -5.5938 0
M  V30 2526 C 245.376 1.6041 -6.11924 0
M  V30 2527 C 244.04 1.49166 -6.5062 0
M  V30 2528 H 243.31 0.516566 -0.531263 0
M  V30 2529 H 245.957 0.741099 -1.76579 0
M  V30 2530 H 244.262 3.3311 -2.06265 0
M  V30 2531 H 245.959 3.19127 -2.42815 0
M  V30 2532 H 242.549 2.34658 -3.58655 0
M  V30 2533 H 246.733 2.04803 -4.52072 0
M  V30 2534 H 241.989 1.66831 -5.88198 0
M  V30 2535 H 246.163 1.37925 -6.82605 0
M  V30 2536 H 243.79 1.1839 -7.50925 0
M  V30 2537 N 245.365 1.30045 0.890287 0
M  V30 2538 C 246.59 1.21598 1.68014 0
M  V30 2539 C 247.015 -0.218678 1.86825 0
M  V30 2540 O 246.373 -1.15756 1.39536 0
M  V30 2541 C 246.421 1.94434 3.03691 0
M  V30 2542 O 245.525 1.2678 3.92429 0
M  V30 2543 H 244.866 0.420856 0.513592 0
M  V30 2544 H 247.396 1.71775 1.11151 0
M  V30 2545 H 247.406 2.03251 3.5377 0
M  V30 2546 H 246.081 2.98777 2.89318 0
M  V30 2547 H 244.658 1.26282 3.50866 0
M  V30 2548 N 246.843 -1.10192 1.12674 0
M  V30 2549 C 248.068 -1.86523 0.906853 0
M  V30 2550 C 248.493 -1.80221 -0.538711 0
M  V30 2551 O 247.851 -1.17396 -1.38158 0
M  V30 2552 C 247.899 -3.32758 1.3894 0
M  V30 2553 O 247.003 -4.08449 0.5695 0
M  V30 2554 H 246.344 -0.578678 0.325619 0
M  V30 2555 H 248.874 -1.39203 1.49946 0
M  V30 2556 H 248.884 -3.83608 1.38958 0
M  V30 2557 H 247.559 -3.36661 2.44197 0
M  V30 2558 H 246.136 -3.67427 0.636528 0
M  V30 2559 N 248.321 -0.919034 -1.28029 0
M  V30 2560 C 249.732 -0.600735 -1.76771 0
M  V30 2561 C 250.083 0.884024 -1.75156 0
M  V30 2562 O 249.208 1.69163 -1.34956 0
M  V30 2563 C 249.803 -1.08372 -3.21 0
M  V30 2564 C 248.362 -0.816248 -3.67443 0
M  V30 2565 C 247.509 -1.24742 -2.47658 0
M  V30 2566 H 250.46 -1.09974 -1.14418 0
M  V30 2567 H 250.481 -0.427512 -3.78091 0
M  V30 2568 H 249.993 -2.16437 -3.22144 0
M  V30 2569 H 248.094 0.250968 -3.71754 0
M  V30 2570 H 248.207 -1.4277 -4.57333 0
M  V30 2571 H 246.571 -0.666083 -2.45836 0
M  V30 2572 H 247.354 -2.33653 -2.51518 0
M  V30 2573 N 249.799 1.42003 -0.683588 0
M  V30 2574 C 251.024 2.06265 -0.216647 0
M  V30 2575 C 251.449 1.51059 1.12083 0
M  V30 2576 O 250.807 0.632638 1.69904 0
M  V30 2577 C 250.855 3.60191 -0.171759 0
M  V30 2578 O 249.959 4.03396 0.857069 0
M  V30 2579 H 249.3 0.65502 -0.108834 0
M  V30 2580 H 251.83 1.81982 -0.935077 0
M  V30 2581 H 251.84 4.08 0.0014303 0
M  V30 2582 H 250.515 3.99743 -1.14796 0
M  V30 2583 H 249.092 3.67117 0.654208 0
M  V30 2584 N 251.277 0.427512 1.51691 0
M  V30 2585 C 252.502 -0.143601 2.06902 0
M  V30 2586 C 252.927 -1.36536 1.29382 0
M  V30 2587 O 252.285 -1.78289 0.329043 0
M  V30 2588 C 252.333 -0.454207 3.57728 0
M  V30 2589 O 251.437 -1.54228 3.82475 0
M  V30 2590 H 250.778 -0.00617128 0.663971 0
M  V30 2591 H 253.308 0.606014 1.95419 0
M  V30 2592 H 253.318 -0.707525 4.01818 0
M  V30 2593 H 251.993 0.438812 4.13579 0
M  V30 2594 H 250.57 -1.2797 3.50254 0
M  V30 2595 N 252.755 -1.56801 0.158532 0
M  V30 2596 C 254.166 -1.83189 -0.360366 0
M  V30 2597 C 254.517 -1.07778 -1.63946 0
M  V30 2598 O 253.642 -0.326718 -2.13919 0
M  V30 2599 C 254.237 -3.32297 -0.660595 0
M  V30 2600 C 252.796 -3.59227 -1.12398 0
M  V30 2601 C 251.943 -2.76877 -0.153097 0
M  V30 2602 H 254.894 -1.54008 0.383031 0
M  V30 2603 H 254.915 -3.4908 -1.51405 0
M  V30 2604 H 254.427 -3.87156 0.270527 0
M  V30 2605 H 252.528 -3.09766 -2.07064 0
M  V30 2606 H 252.641 -4.67632 -1.04197 0
M  V30 2607 H 251.005 -2.46319 -0.647983 0
M  V30 2608 H 251.788 -3.34511 0.77182 0
M  V30 2609 N 254.233 0.115231 -1.57178 0
M  V30 2610 C 255.479 0.818565 -1.86202 0
M  V30 2611 C 255.834 1.77316 -0.746785 0
M  V30 2612 O 255.127 1.89923 0.25291 0
M  V30 2613 C 255.321 1.60324 -3.19423 0
M  V30 2614 C 255.15 0.726138 -4.43799 0
M  V30 2615 C 253.92 0.379535 -5.03873 0
M  V30 2616 C 256.118 0.0420774 -5.14283 0
M  V30 2617 N 254.1 -0.507841 -6.11796 0
M  V30 2618 C 255.471 -0.704152 -6.15988 0
M  V30 2619 C 257.526 -0.0339486 -4.97888 0
M  V30 2620 C 256.229 -1.51927 -7.03072 0
M  V30 2621 C 258.255 -0.835906 -5.85463 0
M  V30 2622 C 257.617 -1.57031 -6.86673 0
M  V30 2623 H 253.716 0.276343 -0.731545 0
M  V30 2624 H 256.3 0.0821032 -1.94527 0
M  V30 2625 H 254.471 2.31072 -3.12186 0
M  V30 2626 H 256.203 2.2522 -3.36241 0
M  V30 2627 H 252.958 0.722634 -4.68054 0
M  V30 2628 H 253.382 -0.94349 -6.70393 0
M  V30 2629 H 258.024 0.519496 -4.19596 0
M  V30 2630 H 255.742 -2.08386 -7.80769 0
M  V30 2631 H 259.328 -0.89714 -5.74841 0
M  V30 2632 H 258.208 -2.18088 -7.53264 0
M  V30 2633 N 255.711 1.52812 0.385517 0
M  V30 2634 C 256.936 1.72207 1.15583 0
M  V30 2635 C 257.361 0.441034 1.82857 0
M  V30 2636 O 256.719 -0.603465 1.70962 0
M  V30 2637 C 256.767 2.87476 2.17692 0
M  V30 2638 O 255.871 2.54693 3.24354 0
M  V30 2639 H 255.212 0.572526 0.336319 0
M  V30 2640 H 257.742 1.99618 0.448744 0
M  V30 2641 H 257.752 3.13072 2.6163 0
M  V30 2642 H 256.427 3.80408 1.68115 0
M  V30 2643 H 255.004 2.3985 2.85529 0
M  V30 2644 N 257.189 -0.644168 1.43834 0
M  V30 2645 C 258.414 -1.43642 1.49605 0
M  V30 2646 C 258.839 -1.8773 0.117913 0
M  V30 2647 O 258.197 -1.57938 -0.890239 0
M  V30 2648 C 258.245 -2.6416 2.45463 0
M  V30 2649 O 257.349 -3.63538 1.94714 0
M  V30 2650 H 256.69 -0.430329 0.50568 0
M  V30 2651 H 259.22 -0.787448 1.8884 0
M  V30 2652 H 259.23 -3.11864 2.63068 0
M  V30 2653 H 257.905 -2.31414 3.45572 0
M  V30 2654 H 256.482 -3.2273 1.86814 0
M  V30 2655 N 258.668 -1.30515 -0.883378 0
M  V30 2656 C 259.945 -1.10086 -1.6168 0
M  V30 2657 C 260.325 0.349269 -2.08191 0
M  V30 2658 O 259.673 1.34105 -1.85008 0
M  V30 2659 C 259.883 -2.10315 -2.78511 0
M  V30 2660 C 261.231 -2.42119 -3.48803 0
M  V30 2661 O 262.255 -2.08638 -2.88702 0
M  V30 2662 O 261.114 -2.99396 -4.57192 0
M  V30 2663 H 258.208 -0.422907 -0.710689 0
M  V30 2664 H 260.754 -1.41947 -0.930015 0
M  V30 2665 H 259.526 -3.07917 -2.41459 0
M  V30 2666 H 259.149 -1.79282 -3.54886 0
M  V30 2667 N 260.146 1.09593 -1.13257 0
M  V30 2668 C 261.557 1.63229 -0.906274 0
M  V30 2669 C 261.908 1.8811 0.557578 0
M  V30 2670 O 261.033 1.62953 1.42391 0
M  V30 2671 C 261.628 2.96535 -1.63867 0
M  V30 2672 C 260.187 3.47003 -1.45828 0
M  V30 2673 C 259.334 2.2145 -1.66898 0
M  V30 2674 H 262.285 0.92978 -1.28611 0
M  V30 2675 H 262.306 3.64411 -1.09476 0
M  V30 2676 H 261.818 2.78394 -2.70404 0
M  V30 2677 H 259.919 3.70272 -0.415848 0
M  V30 2678 H 260.032 4.24551 -2.2202 0
M  V30 2679 H 258.396 2.30022 -1.09371 0
M  V30 2680 H 259.179 2.0583 -2.74752 0
M  V30 2681 N 261.624 0.925811 1.2754 0
M  V30 2682 C 262.871 0.565255 1.94451 0
M  V30 2683 C 263.199 -0.89316 1.7278 0
M  V30 2684 O 262.454 -1.65213 1.04895 0
M  V30 2685 C 262.753 0.835296 3.47502 0
M  V30 2686 C 262.419 2.27515 3.89291 0
M  V30 2687 C 261.081 2.66879 4.00411 0
M  V30 2688 C 263.433 3.21158 4.10496 0
M  V30 2689 C 260.761 3.99014 4.30122 0
M  V30 2690 C 263.113 4.52871 4.4169 0
M  V30 2691 C 261.777 4.92072 4.51023 0
M  V30 2692 H 261.047 0.206841 0.711546 0
M  V30 2693 H 263.694 1.16942 1.51647 0
M  V30 2694 H 261.999 0.148442 3.91519 0
M  V30 2695 H 263.696 0.535322 3.97411 0
M  V30 2696 H 260.286 1.95976 3.81171 0
M  V30 2697 H 264.47 2.9195 4.01346 0
M  V30 2698 H 259.726 4.2907 4.35556 0
M  V30 2699 H 263.9 5.25436 4.57045 0
M  V30 2700 H 261.527 5.9449 4.738 0
M  V30 2701 N 263.102 -1.41638 0.69111 0
M  V30 2702 C 264.327 -2.06148 0.227583 0
M  V30 2703 C 264.752 -1.51652 -1.11281 0
M  V30 2704 O 264.11 -0.64164 -1.69566 0
M  V30 2705 C 264.158 -3.60095 0.190858 0
M  V30 2706 O 263.262 -4.03845 -0.835664 0
M  V30 2707 H 262.603 -0.654434 0.112306 0
M  V30 2708 H 265.133 -1.81484 0.944714 0
M  V30 2709 H 265.143 -4.07995 0.020207 0
M  V30 2710 H 263.818 -3.99129 1.16915 0
M  V30 2711 H 262.395 -3.67458 -0.63473 0
M  V30 2712 N 264.58 -0.43555 -1.51462 0
M  V30 2713 C 265.827 0.131514 -2.02072 0
M  V30 2714 C 266.155 1.42868 -1.31981 0
M  V30 2715 O 265.41 1.91076 -0.422883 0
M  V30 2716 C 265.709 0.39942 -3.55161 0
M  V30 2717 C 265.375 -0.81172 -4.43533 0
M  V30 2718 C 264.037 -1.14387 -4.67407 0
M  V30 2719 C 266.389 -1.61976 -4.95392 0
M  V30 2720 C 263.717 -2.28477 -5.40384 0
M  V30 2721 C 266.069 -2.75164 -5.6962 0
M  V30 2722 C 264.733 -3.08835 -5.91758 0
M  V30 2723 H 264.003 0.0481244 -0.739436 0
M  V30 2724 H 266.65 -0.58238 -1.8243 0
M  V30 2725 H 264.955 1.19519 -3.73125 0
M  V30 2726 H 266.652 0.85157 -3.91854 0
M  V30 2727 H 263.242 -0.542898 -4.25148 0
M  V30 2728 H 267.426 -1.37637 -4.76833 0
M  V30 2729 H 262.682 -2.5488 -5.55739 0
M  V30 2730 H 266.856 -3.38147 -6.08793 0
M  V30 2731 H 264.483 -3.97353 -6.48086 0
M  V30 2732 N 266.058 1.56714 -0.166846 0
M  V30 2733 C 266.988 2.20754 0.760913 0
M  V30 2734 C 267.969 1.16178 1.24244 0
M  V30 2735 O 269.154 1.44592 1.29641 0
M  V30 2736 C 266.284 2.84478 1.99223 0
M  V30 2737 C 265.238 3.95053 1.64672 0
M  V30 2738 C 264.564 4.45805 2.95232 0
M  V30 2739 C 265.864 5.14865 0.878155 0
M  V30 2740 H 267.558 2.98537 0.22713 0
M  V30 2741 H 265.104 1.43596 0.107805 0
M  V30 2742 H 267.057 3.27951 2.64624 0
M  V30 2743 H 265.781 2.04056 2.55007 0
M  V30 2744 H 264.44 3.52228 1.01641 0
M  V30 2745 H 264.088 3.62181 3.49047 0
M  V30 2746 H 263.788 5.204 2.7287 0
M  V30 2747 H 265.312 4.91962 3.6167 0
M  V30 2748 H 266.726 5.55059 1.43466 0
M  V30 2749 H 265.123 5.95348 0.753738 0
M  V30 2750 H 266.193 4.84735 -0.126377 0
M  V30 2751 N 267.536 -0.106894 1.57237 0
M  V30 2752 C 268.468 -1.15646 1.97885 0
M  V30 2753 C 269.481 -1.36981 0.879779 0
M  V30 2754 O 270.67 -1.35841 1.15799 0
M  V30 2755 C 267.77 -2.51425 2.27241 0
M  V30 2756 C 266.943 -2.50529 3.58545 0
M  V30 2757 C 266.002 -3.68145 3.75973 0
M  V30 2758 O 265.028 -3.51176 4.47956 0
M  V30 2759 N 266.23 -4.87177 3.15656 0
M  V30 2760 H 268.995 -0.81059 2.8853 0
M  V30 2761 H 266.556 -0.296024 1.59171 0
M  V30 2762 H 268.548 -3.28689 2.36105 0
M  V30 2763 H 267.118 -2.78147 1.42663 0
M  V30 2764 H 266.338 -1.58894 3.60758 0
M  V30 2765 H 267.626 -2.46997 4.44826 0
M  V30 2766 H 267.024 -5.03868 2.57165 0
M  V30 2767 H 265.581 -5.62075 3.30023 0
M  V30 2768 N 269.014 -1.53014 -0.377408 0
M  V30 2769 C 270.239 -1.72818 -1.14668 0
M  V30 2770 C 270.664 -0.450725 -1.8262 0
M  V30 2771 O 270.022 0.59439 -1.7128 0
M  V30 2772 C 270.07 -2.88627 -2.16164 0
M  V30 2773 O 269.174 -2.56409 -3.22998 0
M  V30 2774 H 268.515 -0.574301 -0.333278 0
M  V30 2775 H 271.045 -1.99853 -0.438152 0
M  V30 2776 H 271.055 -3.14455 -2.59966 0
M  V30 2777 H 269.73 -3.81294 -1.66095 0
M  V30 2778 H 268.307 -2.4136 -2.84253 0
M  V30 2779 N 270.492 0.636531 -1.44174 0
M  V30 2780 C 271.738 1.39826 -1.4689 0
M  V30 2781 C 272.071 1.93947 -0.0990585 0
M  V30 2782 O 271.346 1.73325 0.882544 0
M  V30 2783 C 271.629 2.56751 -2.5249 0
M  V30 2784 C 271.482 2.08014 -3.98811 0
M  V30 2785 C 272.801 3.58946 -2.54649 0
M  V30 2786 H 269.92 0.507075 -0.53483 0
M  V30 2787 H 272.562 0.720188 -1.75822 0
M  V30 2788 H 270.712 3.14597 -2.2795 0
M  V30 2789 H 272.384 1.5504 -4.34466 0
M  V30 2790 H 270.627 1.39242 -4.10846 0
M  V30 2791 H 271.298 2.92169 -4.68339 0
M  V30 2792 H 273.774 3.1089 -2.76563 0
M  V30 2793 H 272.65 4.38286 -3.3045 0
M  V30 2794 H 272.911 4.12655 -1.58646 0
M  V30 2795 N 271.97 1.30982 0.876444 0
M  V30 2796 C 273.21 1.21589 1.64303 0
M  V30 2797 C 273.574 -0.223962 1.90689 0
M  V30 2798 O 274.775 -0.44128 2.65153 0
M  V30 2799 C 273.046 2.03007 2.94148 0
M  V30 2800 S 274.605 2.10405 3.85065 0
M  V30 2801 H 271.423 0.433161 0.563819 0
M  V30 2802 H 274.025 1.65565 1.03964 0
M  V30 2803 H 272.729 3.06719 2.72675 0
M  V30 2804 H 272.26 1.59725 3.59515 0
M  V30 2805 H 274.275 1.23765 4.80517 0
M  V30 2806 N 273.449 -1.08991 1.13837 0
M  V30 2807 C 274.399 -2.1393 0.788535 0
M  V30 2808 C 275.383 -1.59396 -0.219516 0
M  V30 2809 O 276.575 -1.76985 -0.0227557 0
M  V30 2810 C 273.704 -3.42305 0.261147 0
M  V30 2811 C 272.79 -4.03736 1.29837 0
M  V30 2812 N 273.181 -4.39659 2.50067 0
M  V30 2813 C 271.479 -4.30993 1.1472 0
M  V30 2814 C 272.18 -4.88113 3.16419 0
M  V30 2815 N 271.156 -4.85846 2.43832 0
M  V30 2816 H 274.958 -2.39516 1.70322 0
M  V30 2817 H 272.472 -1.26263 1.02134 0
M  V30 2818 H 274.469 -4.16899 -0.0077405 0
M  V30 2819 H 273.129 -3.18172 -0.647805 0
M  V30 2820 H 274.14 -4.30878 2.8734 0
M  V30 2821 H 270.817 -4.16444 0.296773 0
M  V30 2822 H 272.207 -5.25336 4.18894 0
M  V30 2823 N 274.927 -0.932562 -1.27047 0
M  V30 2824 C 276.155 -0.592031 -1.98249 0
M  V30 2825 C 276.57 0.831062 -1.69525 0
M  V30 2826 O 275.927 1.55299 -0.958561 0
M  V30 2827 C 275.978 -0.814279 -3.5221 0
M  V30 2828 O 275.699 -2.18139 -3.7993 0
M  V30 2829 C 277.2 -0.483121 -4.4066 0
M  V30 2830 H 274.42 -0.223896 -0.632544 0
M  V30 2831 H 276.964 -1.25091 -1.61779 0
M  V30 2832 H 275.119 -0.20213 -3.86872 0
M  V30 2833 H 275.533 -2.235 -4.74498 0
M  V30 2834 H 277.007 -0.689298 -5.47679 0
M  V30 2835 H 277.484 0.581546 -4.35333 0
M  V30 2836 H 278.09 -1.07362 -4.11526 0
M  V30 2837 N 276.405 1.4127 -0.698611 0
M  V30 2838 C 277.651 2.01478 -0.231207 0
M  V30 2839 C 277.984 1.55215 1.16713 0
M  V30 2840 O 277.259 0.764672 1.78838 0
M  V30 2841 C 277.542 3.58912 -0.292281 0
M  V30 2842 C 277.395 4.15293 -1.72778 0
M  V30 2843 C 278.714 4.38736 0.346194 0
M  V30 2844 H 275.833 0.732025 -0.0854878 0
M  V30 2845 H 278.475 1.67977 -0.887906 0
M  V30 2846 H 276.625 3.87582 0.26686 0
M  V30 2847 H 278.297 3.97486 -2.341 0
M  V30 2848 H 276.54 3.7022 -2.26096 0
M  V30 2849 H 277.211 5.24452 -1.72202 0
M  V30 2850 H 279.687 4.15897 -0.130035 0
M  V30 2851 H 278.563 5.48221 0.272932 0
M  V30 2852 H 278.824 4.18425 1.42734 0
M  V30 2853 N 277.883 0.443576 1.51229 0
M  V30 2854 C 279.129 -0.120975 2.02439 0
M  V30 2855 C 279.462 -1.41815 1.32674 0
M  V30 2856 O 278.737 -1.89373 0.443622 0
M  V30 2857 C 279.02 -0.333291 3.58554 0
M  V30 2858 C 278.873 0.982968 4.38928 0
M  V30 2859 C 280.192 -1.10028 4.26124 0
M  V30 2860 H 277.311 -0.0424923 0.735774 0
M  V30 2861 H 279.953 0.583794 1.80809 0
M  V30 2862 H 278.103 -0.933614 3.77115 0
M  V30 2863 H 279.775 1.61775 4.32003 0
M  V30 2864 H 278.018 1.58611 4.03763 0
M  V30 2865 H 278.689 0.788379 5.46341 0
M  V30 2866 H 281.165 -0.591711 4.11871 0
M  V30 2867 H 280.041 -1.21761 5.35225 0
M  V30 2868 H 280.302 -2.12996 3.87408 0
M  V30 2869 N 279.361 -1.56624 0.175154 0
M  V30 2870 C 280.607 -1.9729 -0.469506 0
M  V30 2871 C 280.94 -1.06128 -1.62636 0
M  V30 2872 O 280.215 -0.109183 -1.94193 0
M  V30 2873 C 280.498 -3.47375 -0.948804 0
M  V30 2874 C 280.351 -4.49317 0.208491 0
M  V30 2875 C 281.67 -4.00652 -1.82116 0
M  V30 2876 H 278.789 -0.717317 -0.16919 0
M  V30 2877 H 281.431 -1.88184 0.262062 0
M  V30 2878 H 279.581 -3.55267 -1.57219 0
M  V30 2879 H 281.253 -4.53482 0.845682 0
M  V30 2880 H 279.496 -4.25121 0.863395 0
M  V30 2881 H 280.167 -5.51741 -0.169059 0
M  V30 2882 H 282.643 -3.95416 -1.2956 0
M  V30 2883 H 281.519 -5.06075 -2.12554 0
M  V30 2884 H 281.78 -3.44699 -2.7683 0
M  V30 2885 N 280.839 0.0985539 -1.57292 0
M  V30 2886 C 281.771 1.14595 -1.98496 0
M  V30 2887 C 282.784 1.36512 -0.887031 0
M  V30 2888 O 283.973 1.35225 -1.16518 0
M  V30 2889 C 281.073 2.50216 -2.28572 0
M  V30 2890 C 280.246 2.48624 -3.59868 0
M  V30 2891 C 279.305 3.66146 -3.7792 0
M  V30 2892 O 278.331 3.48795 -4.49812 0
M  V30 2893 N 279.533 4.85496 -3.18235 0
M  V30 2894 H 282.298 0.795277 -2.88956 0
M  V30 2895 H 279.859 0.287579 -1.59325 0
M  V30 2896 H 281.851 3.27432 -2.37845 0
M  V30 2897 H 280.421 2.77387 -1.44136 0
M  V30 2898 H 279.641 1.56978 -3.61596 0
M  V30 2899 H 280.929 2.44635 -4.46129 0
M  V30 2900 H 280.327 5.02497 -2.59833 0
M  V30 2901 H 278.884 5.60317 -3.32999 0
M  V30 2902 N 282.317 1.53212 0.369288 0
M  V30 2903 C 283.565 1.68881 1.11012 0
M  V30 2904 C 283.886 0.441285 1.89941 0
M  V30 2905 O 283.156 -0.544623 1.88177 0
M  V30 2906 H 281.736 0.622569 0.412816 0
M  V30 2907 H 284.398 1.90391 0.416802 0
M  V30 2908 H 283.494 2.54822 1.80201 0
M  V30 2909 N 283.795 -0.628877 1.44509 0
M  V30 2910 C 285.041 -1.39045 1.47629 0
M  V30 2911 C 285.374 -1.93892 0.109343 0
M  V30 2912 O 284.649 -1.7379 -0.87334 0
M  V30 2913 C 284.932 -2.55408 2.53848 0
M  V30 2914 C 284.785 -2.05896 3.99909 0
M  V30 2915 C 286.104 -3.5759 2.56549 0
M  V30 2916 H 283.223 -0.504232 0.537512 0
M  V30 2917 H 285.865 -0.710854 1.76201 0
M  V30 2918 H 284.015 -3.13384 2.29615 0
M  V30 2919 H 285.687 -1.52734 4.35282 0
M  V30 2920 H 283.93 -1.37061 4.11578 0
M  V30 2921 H 284.601 -2.89681 4.69882 0
M  V30 2922 H 287.077 -3.09419 2.78207 0
M  V30 2923 H 285.953 -4.36527 3.32769 0
M  V30 2924 H 286.214 -4.11808 1.60832 0
M  V30 2925 N 285.273 -1.31445 -0.869486 0
M  V30 2926 C 286.498 -1.24256 -1.66058 0
M  V30 2927 C 286.923 0.188928 -1.87149 0
M  V30 2928 O 286.281 1.13522 -1.4136 0
M  V30 2929 C 286.329 -1.9924 -3.00559 0
M  V30 2930 O 285.433 -1.33007 -3.90362 0
M  V30 2931 H 284.774 -0.428973 -0.506831 0
M  V30 2932 H 287.304 -1.73521 -1.08404 0
M  V30 2933 H 287.314 -2.08854 -3.50491 0
M  V30 2934 H 285.989 -3.03342 -2.84528 0
M  V30 2935 H 284.566 -1.31848 -3.48813 0
M  V30 2936 N 286.751 1.08385 -1.14413 0
M  V30 2937 C 287.714 2.13486 -0.834048 0
M  V30 2938 C 288.714 1.59988 0.161418 0
M  V30 2939 O 289.904 1.74071 -0.0669575 0
M  V30 2940 C 287.036 3.4003 -0.243354 0
M  V30 2941 H 288.229 2.42425 -1.7655 0
M  V30 2942 H 285.782 1.24101 -0.950189 0
M  V30 2943 H 286.517 3.16726 0.696807 0
M  V30 2944 H 286.302 3.80157 -0.960367 0
M  V30 2945 H 287.792 4.17577 -0.0436242 0
M  V30 2946 N 288.23 0.939286 1.26551 0
M  V30 2947 C 289.16 0.465044 2.28822 0
M  V30 2948 C 290.141 -0.480692 1.63167 0
M  V30 2949 O 291.326 -0.382955 1.90387 0
M  V30 2950 C 288.456 -0.27234 3.46231 0
M  V30 2951 C 287.41 0.58666 4.2396 0
M  V30 2952 C 286.736 -0.280573 5.33963 0
M  V30 2953 C 288.036 1.85704 4.88171 0
M  V30 2954 H 289.73 1.31979 2.68741 0
M  V30 2955 H 287.276 0.636061 1.29191 0
M  V30 2956 H 289.229 -0.615133 4.16886 0
M  V30 2957 H 287.953 -1.16121 3.0526 0
M  V30 2958 H 286.612 0.91232 3.55067 0
M  V30 2959 H 286.26 -1.16874 4.89234 0
M  V30 2960 H 285.96 0.29076 5.8688 0
M  V30 2961 H 287.484 -0.618678 6.07458 0
M  V30 2962 H 288.898 1.58161 5.51052 0
M  V30 2963 H 287.295 2.37279 5.51197 0
M  V30 2964 H 288.365 2.56957 4.11219 0
M  V30 2965 N 289.708 -1.40897 0.706093 0
M  V30 2966 C 290.638 -2.33418 0.0620085 0
M  V30 2967 C 291.619 -1.52385 -0.755827 0
M  V30 2968 O 292.804 -1.80886 -0.706674 0
M  V30 2969 C 289.934 -3.36293 -0.867445 0
M  V30 2970 C 288.888 -4.27716 -0.155932 0
M  V30 2971 C 288.214 -5.2105 -1.20046 0
M  V30 2972 C 289.514 -5.12944 0.984149 0
M  V30 2973 H 291.208 -2.87527 0.83477 0
M  V30 2974 H 288.754 -1.38249 0.402875 0
M  V30 2975 H 290.707 -3.99949 -1.32735 0
M  V30 2976 H 289.431 -2.80556 -1.67199 0
M  V30 2977 H 288.09 -3.65498 0.284047 0
M  V30 2978 H 287.738 -4.61624 -1.99781 0
M  V30 2979 H 287.438 -5.83056 -0.729328 0
M  V30 2980 H 288.962 -5.87584 -1.66066 0
M  V30 2981 H 290.376 -5.70109 0.604048 0
M  V30 2982 H 288.773 -5.83945 1.38304 0
M  V30 2983 H 289.843 -4.49485 1.81911 0
M  V30 2984 N 291.186 -0.45159 -1.50991 0
M  V30 2985 C 292.149 0.341117 -2.26647 0
M  V30 2986 C 293.149 0.937422 -1.30649 0
M  V30 2987 O 294.339 0.809644 -1.54241 0
M  V30 2988 C 291.471 1.48398 -3.06905 0
M  V30 2989 H 292.664 -0.322117 -2.98165 0
M  V30 2990 H 290.217 -0.205122 -1.54948 0
M  V30 2991 H 290.952 2.18284 -2.39838 0
M  V30 2992 H 290.737 1.06241 -3.77432 0
M  V30 2993 H 292.227 2.04367 -3.64176 0
M  V30 2994 N 292.664 1.56529 -0.183458 0
M  V30 2995 C 293.911 1.97244 0.458357 0
M  V30 2996 C 294.239 1.06992 1.62428 0
M  V30 2997 O 293.494 0.106542 1.9541 0
M  V30 2998 C 293.793 3.43939 0.971637 0
M  V30 2999 C 293.459 4.5083 -0.0796784 0
M  V30 3000 C 292.121 4.79786 -0.368584 0
M  V30 3001 C 294.473 5.15138 -0.792638 0
M  V30 3002 C 291.801 5.70345 -1.37563 0
M  V30 3003 C 294.153 6.06784 -1.78875 0
M  V30 3004 C 292.817 6.34102 -2.08497 0
M  V30 3005 H 292.087 0.721768 0.167725 0
M  V30 3006 H 294.734 1.89472 -0.277976 0
M  V30 3007 H 293.039 3.48724 1.78602 0
M  V30 3008 H 294.736 3.72791 1.47744 0
M  V30 3009 H 291.326 4.28317 0.155668 0
M  V30 3010 H 295.51 4.92868 -0.582659 0
M  V30 3011 H 290.766 5.89789 -1.61118 0
M  V30 3012 H 294.94 6.55677 -2.3465 0
M  V30 3013 H 292.567 7.04074 -2.86678 0
M  V30 3014 N 294.142 -0.090211 1.57342 0
M  V30 3015 C 295.553 -0.644173 1.75235 0
M  V30 3016 C 295.904 -1.78865 0.806335 0
M  V30 3017 O 295.029 -2.16395 -0.0140128 0
M  V30 3018 C 295.624 -1.17532 3.1776 0
M  V30 3019 C 294.183 -1.67531 3.37061 0
M  V30 3020 C 293.33 -0.58693 2.71017 0
M  V30 3021 H 296.281 0.135884 1.58117 0
M  V30 3022 H 296.302 -2.04455 3.20902 0
M  V30 3023 H 295.814 -0.342138 3.86589 0
M  V30 3024 H 293.915 -2.53234 2.73319 0
M  V30 3025 H 294.028 -1.76493 4.45406 0
M  V30 3026 H 292.392 -1.02756 2.33052 0
M  V30 3027 H 293.175 0.235758 3.4249 0
M  V30 3028 N 295.62 -1.53406 -0.361157 0
M  V30 3029 C 296.552 -1.76446 -1.46286 0
M  V30 3030 C 297.565 -0.645322 -1.49464 0
M  V30 3031 O 298.754 -0.921681 -1.52864 0
M  V30 3032 C 295.854 -1.83332 -2.85031 0
M  V30 3033 C 295.027 -3.13033 -3.05498 0
M  V30 3034 C 294.086 -3.11104 -4.24383 0
M  V30 3035 O 293.112 -3.84888 -4.19344 0
M  V30 3036 N 294.314 -2.32234 -5.32022 0
M  V30 3037 H 297.079 -2.71508 -1.26899 0
M  V30 3038 H 294.64 -1.52238 -0.550915 0
M  V30 3039 H 296.632 -1.79514 -3.62708 0
M  V30 3040 H 295.202 -0.955342 -2.97644 0
M  V30 3041 H 294.422 -3.30119 -2.15442 0
M  V30 3042 H 295.71 -3.9874 -3.16044 0
M  V30 3043 H 295.108 -1.71807 -5.38979 0
M  V30 3044 H 293.665 -2.3423 -6.08259 0
M  V30 3045 N 297.098 0.621204 -1.44841 0
M  V30 3046 C 298.323 1.41244 -1.51871 0
M  V30 3047 C 298.748 1.87519 -0.147764 0
M  V30 3048 O 298.106 1.59334 0.865 0
M  V30 3049 C 298.154 2.60221 -2.49634 0
M  V30 3050 O 297.258 3.60395 -2.00473 0
M  V30 3051 H 296.599 0.42223 -0.512463 0
M  V30 3052 H 299.129 0.757305 -1.90069 0
M  V30 3053 H 299.139 3.0764 -2.67996 0
M  V30 3054 H 297.814 2.25887 -3.4921 0
M  V30 3055 H 296.391 3.19717 -1.91925 0
M  V30 3056 N 298.576 1.31904 0.862503 0
M  V30 3057 C 299.508 1.16005 1.97675 0
M  V30 3058 C 300.521 0.0971234 1.6251 0
M  V30 3059 O 301.71 0.345337 1.75128 0
M  V30 3060 C 298.81 0.751791 3.30456 0
M  V30 3061 C 297.983 1.90133 3.93914 0
M  V30 3062 C 297.042 1.4779 5.05019 0
M  V30 3063 O 296.068 2.18872 5.25437 0
M  V30 3064 N 297.27 0.369491 5.79323 0
M  V30 3065 H 300.035 2.11982 2.11857 0
M  V30 3066 H 297.596 1.24337 1.03691 0
M  V30 3067 H 299.588 0.451084 4.02178 0
M  V30 3068 H 298.158 -0.116593 3.12382 0
M  V30 3069 H 297.378 2.36896 3.15078 0
M  V30 3070 H 298.666 2.67111 4.33047 0
M  V30 3071 H 298.064 -0.222299 5.65263 0
M  V30 3072 H 296.621 0.128354 6.51674 0
M  V30 3073 N 300.054 -1.07777 1.14986 0
M  V30 3074 C 301.302 -1.79934 0.920235 0
M  V30 3075 C 301.623 -1.86955 -0.554336 0
M  V30 3076 O 300.893 -1.36731 -1.40291 0
M  V30 3077 H 299.473 -0.666424 0.337473 0
M  V30 3078 H 302.135 -1.3027 1.44968 0
M  V30 3079 H 301.231 -2.82539 1.32583 0
M  V30 3080 N 301.532 -0.945985 -1.26051 0
M  V30 3081 C 302.442 -0.465633 -2.29933 0
M  V30 3082 C 303.458 0.462761 -1.67733 0
M  V30 3083 O 304.634 0.341118 -1.9849 0
M  V30 3084 C 301.699 0.256994 -3.45746 0
M  V30 3085 C 300.76 -0.708549 -4.23412 0
M  V30 3086 C 299.993 -0.0203135 -5.33696 0
M  V30 3087 O 300.216 1.19571 -5.57726 0
M  V30 3088 O 299.15 -0.701459 -5.97799 0
M  V30 3089 H 302.976 -1.32866 -2.73094 0
M  V30 3090 H 300.561 -0.712071 -1.31339 0
M  V30 3091 H 302.443 0.663852 -4.16138 0
M  V30 3092 H 301.118 1.09533 -3.04605 0
M  V30 3093 H 300.025 -1.16545 -3.55483 0
M  V30 3094 H 301.358 -1.51465 -4.68315 0
M  V30 3095 N 303.011 1.40521 -0.713556 0
M  V30 3096 C 303.944 2.28198 -0.00881422 0
M  V30 3097 C 304.922 1.43227 0.769735 0
M  V30 3098 O 306.106 1.72641 0.756799 0
M  V30 3099 C 303.233 3.23758 0.994899 0
M  V30 3100 C 302.279 4.25391 0.3074 0
M  V30 3101 S 303.112 5.26765 -0.963247 0
M  V30 3102 C 304.268 6.25888 0.0384143 0
M  V30 3103 H 304.501 2.87622 -0.752407 0
M  V30 3104 H 302.034 1.45925 -0.504502 0
M  V30 3105 H 303.992 3.79341 1.56879 0
M  V30 3106 H 302.653 2.63396 1.71118 0
M  V30 3107 H 301.846 4.92596 1.0661 0
M  V30 3108 H 301.448 3.73497 -0.193879 0
M  V30 3109 H 303.74 6.71683 0.885912 0
M  V30 3110 H 304.683 7.05552 -0.60019 0
M  V30 3111 H 305.091 5.63072 0.401233 0
M  V30 3112 N 304.489 0.459591 1.5075 0
M  V30 3113 C 305.422 -0.386257 2.24907 0
M  V30 3114 C 306.4 -1.006 1.27744 0
M  V30 3115 O 307.584 -1.04416 1.56938 0
M  V30 3116 C 304.711 -1.54021 3.01654 0
M  V30 3117 C 303.757 -1.03898 4.13651 0
M  V30 3118 S 304.59 0.0370501 5.35487 0
M  V30 3119 C 305.746 -1.12105 6.15779 0
M  V30 3120 H 305.979 0.243272 2.96303 0
M  V30 3121 H 303.512 0.244339 1.52454 0
M  V30 3122 H 305.47 -2.20163 3.46466 0
M  V30 3123 H 304.131 -2.14121 2.29806 0
M  V30 3124 H 303.324 -1.90254 4.66711 0
M  V30 3125 H 302.926 -0.45545 3.71216 0
M  V30 3126 H 305.218 -2.03501 6.46215 0
M  V30 3127 H 306.161 -0.62995 7.05292 0
M  V30 3128 H 306.569 -1.36967 5.47631 0
M  V30 3129 N 305.967 -1.56429 0.191757 0
M  V30 3130 C 306.877 -2.22541 -0.742481 0
M  V30 3131 C 307.893 -1.22342 -1.23727 0
M  V30 3132 O 309.069 -1.55069 -1.28513 0
M  V30 3133 C 306.134 -2.8692 -1.94623 0
M  V30 3134 C 305.195 -4.02378 -1.49633 0
M  V30 3135 C 304.428 -4.63678 -2.6427 0
M  V30 3136 O 304.651 -4.23895 -3.81666 0
M  V30 3137 O 303.585 -5.53202 -2.37174 0
M  V30 3138 H 307.411 -3.02977 -0.209462 0
M  V30 3139 H 304.996 -1.49353 -0.0373832 0
M  V30 3140 H 306.878 -3.27663 -2.64982 0
M  V30 3141 H 305.553 -2.09466 -2.46791 0
M  V30 3142 H 304.46 -3.66265 -0.761636 0
M  V30 3143 H 305.793 -4.81487 -1.02134 0
M  V30 3144 N 307.445 0.0818655 -1.57387 0
M  V30 3145 C 308.375 1.09885 -2.06028 0
M  V30 3146 C 309.356 1.4098 -0.951774 0
M  V30 3147 O 310.541 1.50781 -1.22387 0
M  V30 3148 C 307.671 2.4151 -2.4958 0
M  V30 3149 C 306.625 2.24792 -3.64215 0
M  V30 3150 C 305.951 3.61712 -3.93787 0
M  V30 3151 C 307.251 1.67749 -4.94629 0
M  V30 3152 H 308.945 0.694128 -2.91243 0
M  V30 3153 H 306.491 0.332448 -1.4011 0
M  V30 3154 H 308.444 3.12939 -2.82219 0
M  V30 3155 H 307.168 2.83943 -1.61381 0
M  V30 3156 H 305.827 1.55807 -3.31843 0
M  V30 3157 H 305.475 4.01697 -3.02735 0
M  V30 3158 H 305.175 3.51368 -4.70971 0
M  V30 3159 H 306.699 4.34587 -4.28913 0
M  V30 3160 H 308.113 2.29032 -5.25564 0
M  V30 3161 H 306.51 1.68128 -5.76067 0
M  V30 3162 H 307.58 0.638059 -4.80684 0
M  V30 3163 N 308.923 1.53595 0.353017 0
M  V30 3164 C 310.2 1.61002 1.11075 0
M  V30 3165 C 310.58 0.425356 2.0677 0
M  V30 3166 O 309.928 -0.583267 2.2093 0
M  V30 3167 C 310.138 2.96631 1.83877 0
M  V30 3168 C 311.486 3.51653 2.37961 0
M  V30 3169 O 312.51 2.98743 1.93987 0
M  V30 3170 O 311.369 4.44177 3.18386 0
M  V30 3171 H 308.463 0.650825 0.510251 0
M  V30 3172 H 311.009 1.6594 0.35527 0
M  V30 3173 H 309.781 3.74293 1.14108 0
M  V30 3174 H 309.404 2.95242 2.66304 0
M  V30 3175 N 310.401 -0.613514 1.45168 0
M  V30 3176 C 311.331 -1.7354 1.56225 0
M  V30 3177 C 312.312 -1.64981 0.41414 0
M  V30 3178 O 313.497 -1.83472 0.636526 0
M  V30 3179 C 310.627 -3.12128 1.52295 0
M  V30 3180 C 309.581 -3.35491 2.65762 0
M  V30 3181 C 308.907 -4.74291 2.46885 0
M  V30 3182 C 310.207 -3.26325 4.0781 0
M  V30 3183 H 311.901 -1.64543 2.50132 0
M  V30 3184 H 309.447 -0.790185 1.20383 0
M  V30 3185 H 311.4 -3.90404 1.58628 0
M  V30 3186 H 310.124 -3.2195 0.549139 0
M  V30 3187 H 308.783 -2.59603 2.58847 0
M  V30 3188 H 308.431 -4.80839 1.47657 0
M  V30 3189 H 308.131 -4.9088 3.22972 0
M  V30 3190 H 309.655 -5.54775 2.55063 0
M  V30 3191 H 311.069 -3.94483 4.16 0
M  V30 3192 H 309.466 -3.54445 4.8424 0
M  V30 3193 H 310.536 -2.23855 4.30136 0
M  V30 3194 N 311.879 -1.3236 -0.855495 0
M  V30 3195 C 313.125 -1.23054 -1.612 0
M  V30 3196 C 313.458 0.207404 -1.93089 0
M  V30 3197 O 312.733 1.14432 -1.57275 0
M  V30 3198 C 313.016 -2.08937 -2.93287 0
M  V30 3199 C 312.869 -3.61105 -2.68185 0
M  V30 3200 C 314.188 -1.94986 -3.94549 0
M  V30 3201 H 311.307 -0.448364 -0.584926 0
M  V30 3202 H 313.949 -1.62297 -0.987917 0
M  V30 3203 H 312.099 -1.75599 -3.46551 0
M  V30 3204 H 313.771 -4.04652 -2.21483 0
M  V30 3205 H 312.014 -3.83813 -2.02164 0
M  V30 3206 H 312.685 -4.16522 -3.62234 0
M  V30 3207 H 315.161 -2.24189 -3.5054 0
M  V30 3208 H 314.037 -2.57356 -4.84829 0
M  V30 3209 H 314.298 -0.917263 -4.3248 0
M  V30 3210 N 313.357 1.07166 -1.15556 0
M  V30 3211 C 314.582 1.84053 -0.955988 0
M  V30 3212 C 315.007 1.81586 0.490739 0
M  V30 3213 O 314.365 1.21018 1.34997 0
M  V30 3214 C 314.413 3.28957 -1.47714 0
M  V30 3215 O 313.517 4.06795 -0.677593 0
M  V30 3216 H 312.858 0.569842 -0.340847 0
M  V30 3217 H 315.388 1.35178 -1.53584 0
M  V30 3218 H 315.398 3.79788 -1.4908 0
M  V30 3219 H 314.073 3.30068 -2.53037 0
M  V30 3220 H 312.65 3.6561 -0.733721 0
M  V30 3221 N 314.835 0.952656 1.25548 0
M  V30 3222 C 315.765 0.489287 2.28316 0
M  V30 3223 C 316.746 -0.463359 1.63667 0
M  V30 3224 O 317.931 -0.36274 1.90782 0
M  V30 3225 C 315.061 -0.235603 3.465 0
M  V30 3226 C 314.015 0.631593 4.23314 0
M  V30 3227 C 313.341 -0.223923 5.34231 0
M  V30 3228 C 314.641 1.90871 4.86174 0
M  V30 3229 H 316.335 1.34822 2.67326 0
M  V30 3230 H 313.881 0.649728 1.28509 0
M  V30 3231 H 315.834 -0.570882 4.17515 0
M  V30 3232 H 314.558 -1.12877 3.06474 0
M  V30 3233 H 313.217 0.949929 3.54079 0
M  V30 3234 H 312.865 -1.11678 4.90446 0
M  V30 3235 H 312.565 0.35299 5.86539 0
M  V30 3236 H 314.089 -0.554214 6.0808 0
M  V30 3237 H 315.503 1.63997 5.49343 0
M  V30 3238 H 313.9 2.43112 5.4865 0
M  V30 3239 H 314.97 2.61304 4.08471 0
M  V30 3240 N 316.313 -1.40141 0.720998 0
M  V30 3241 C 317.559 -2.01084 0.263231 0
M  V30 3242 C 317.892 -1.57052 -1.14229 0
M  V30 3243 O 317.167 -0.793027 -1.77599 0
M  V30 3244 C 317.45 -3.58401 0.349344 0
M  V30 3245 C 317.303 -4.12491 1.79363 0
M  V30 3246 C 318.622 -4.39231 -0.276351 0
M  V30 3247 H 315.741 -0.730572 0.0971228 0
M  V30 3248 H 318.383 -1.66543 0.914518 0
M  V30 3249 H 316.533 -3.87958 -0.205165 0
M  V30 3250 H 318.205 -3.93711 2.40394 0
M  V30 3251 H 316.448 -3.66576 2.31958 0
M  V30 3252 H 317.119 -5.21646 1.80524 0
M  V30 3253 H 319.595 -4.15637 0.196184 0
M  V30 3254 H 318.471 -5.48586 -0.185681 0
M  V30 3255 H 318.732 -4.20643 -1.36059 0
M  V30 3256 N 317.792 -0.46758 -1.50504 0
M  V30 3257 C 318.722 0.318381 -2.31319 0
M  V30 3258 C 319.703 0.993564 -1.38066 0
M  V30 3259 O 320.888 0.991411 -1.66987 0
M  V30 3260 C 318.018 1.40275 -3.17711 0
M  V30 3261 C 316.972 0.849373 -4.19487 0
M  V30 3262 C 316.298 2.03177 -4.94594 0
M  V30 3263 C 317.598 -0.136942 -5.2212 0
M  V30 3264 H 319.292 -0.356106 -2.97275 0
M  V30 3265 H 316.838 -0.172703 -1.42961 0
M  V30 3266 H 318.791 1.96004 -3.73042 0
M  V30 3267 H 317.515 2.10596 -2.49634 0
M  V30 3268 H 316.174 0.314076 -3.65252 0
M  V30 3269 H 315.822 2.72187 -4.22993 0
M  V30 3270 H 315.522 1.66774 -5.63436 0
M  V30 3271 H 317.046 2.59403 -5.52759 0
M  V30 3272 H 318.46 0.331056 -5.72343 0
M  V30 3273 H 316.857 -0.41507 -5.98663 0
M  V30 3274 H 317.927 -1.06398 -4.73083 0
M  V30 3275 N 319.27 1.56325 -0.20005 0
M  V30 3276 C 320.22 2.15939 0.731743 0
M  V30 3277 C 321.204 1.10154 1.17281 0
M  V30 3278 O 322.396 1.36203 1.13038 0
M  V30 3279 C 319.525 2.82614 1.94895 0
M  V30 3280 C 318.611 3.95596 1.52855 0
M  V30 3281 N 319.002 4.99118 0.819418 0
M  V30 3282 C 317.3 4.07288 1.81748 0
M  V30 3283 C 318.001 5.78513 0.608053 0
M  V30 3284 N 316.977 5.31117 1.15828 0
M  V30 3285 H 320.779 2.9334 0.181285 0
M  V30 3286 H 318.293 1.624 -0.000452172 0
M  V30 3287 H 320.29 3.23718 2.62702 0
M  V30 3288 H 318.95 2.06702 2.50408 0
M  V30 3289 H 319.961 5.15723 0.47436 0
M  V30 3290 H 316.638 3.42509 2.38734 0
M  V30 3291 H 318.028 6.71885 0.0451619 0
M  V30 3292 N 320.748 -0.0735177 1.57428 0
M  V30 3293 C 321.997 -0.771809 1.86349 0
M  V30 3294 C 322.31 -1.78828 0.792452 0
M  V30 3295 O 323.516 -2.53602 0.96945 0
M  V30 3296 C 321.972 -1.42358 3.30548 0
M  V30 3297 C 321.58 -0.445761 4.45777 0
M  V30 3298 C 323.324 -2.10434 3.6867 0
M  V30 3299 C 321.231 -1.10335 5.81016 0
M  V30 3300 H 320.161 -0.291999 0.695164 0
M  V30 3301 H 322.812 -0.0250749 1.83483 0
M  V30 3302 H 321.194 -2.21852 3.28021 0
M  V30 3303 H 322.368 0.319239 4.59693 0
M  V30 3304 H 320.683 0.130457 4.16196 0
M  V30 3305 H 323.28 -2.60405 4.67004 0
M  V30 3306 H 323.623 -2.90298 2.98383 0
M  V30 3307 H 324.156 -1.37773 3.7318 0
M  V30 3308 H 320.895 -0.345061 6.54591 0
M  V30 3309 H 320.415 -1.83925 5.70904 0
M  V30 3310 H 322.094 -1.62367 6.26295 0
M  V30 3311 N 322.226 -1.5378 -0.344866 0
M  V30 3312 C 323.637 -1.62428 -0.920552 0
M  V30 3313 C 323.988 -0.504747 -1.89596 0
M  V30 3314 O 323.113 0.365711 -2.13287 0
M  V30 3315 C 323.708 -2.94419 -1.67639 0
M  V30 3316 C 322.267 -3.05333 -2.20111 0
M  V30 3317 C 321.414 -2.57866 -1.01982 0
M  V30 3318 H 324.365 -1.58222 -0.123042 0
M  V30 3319 H 324.386 -2.83384 -2.53917 0
M  V30 3320 H 323.898 -3.7588 -0.966224 0
M  V30 3321 H 321.999 -2.28502 -2.94308 0
M  V30 3322 H 322.112 -4.10778 -2.46573 0
M  V30 3323 H 320.476 -2.13241 -1.39285 0
M  V30 3324 H 321.259 -3.41765 -0.324308 0
M  V30 3325 N 323.704 0.605807 -1.45491 0
M  V30 3326 C 324.95 1.36679 -1.49823 0
M  V30 3327 C 325.283 1.93693 -0.140175 0
M  V30 3328 O 324.558 1.75158 0.845581 0
M  V30 3329 C 324.841 2.51337 -2.57879 0
M  V30 3330 C 324.694 1.99508 -4.03134 0
M  V30 3331 C 326.013 3.53463 -2.62205 0
M  V30 3332 H 323.132 0.495617 -0.545466 0
M  V30 3333 H 325.774 0.682732 -1.7731 0
M  V30 3334 H 323.924 3.09691 -2.34571 0
M  V30 3335 H 325.596 1.45789 -4.37656 0
M  V30 3336 H 323.839 1.30496 -4.13707 0
M  V30 3337 H 324.51 2.82169 -4.74431 0
M  V30 3338 H 326.986 3.04953 -2.83095 0
M  V30 3339 H 325.862 4.31178 -3.39672 0
M  V30 3340 H 326.123 4.09197 -1.67363 0
M  V30 3341 N 325.182 1.32811 0.848464 0
M  V30 3342 C 326.431 1.23075 1.59798 0
M  V30 3343 C 326.744 -0.204419 1.94529 0
M  V30 3344 O 327.95 -0.423701 2.68173 0
M  V30 3345 C 326.406 2.15594 2.88179 0
M  V30 3346 C 326.014 3.64228 2.60849 0
M  V30 3347 C 327.758 2.14709 3.66197 0
M  V30 3348 C 325.665 4.48689 3.85269 0
M  V30 3349 H 324.595 0.457091 0.599653 0
M  V30 3350 H 327.246 1.57813 0.936342 0
M  V30 3351 H 325.628 1.73778 3.55833 0
M  V30 3352 H 326.802 4.14424 2.01467 0
M  V30 3353 H 325.117 3.67306 1.96151 0
M  V30 3354 H 327.714 2.75046 4.58534 0
M  V30 3355 H 328.057 1.13966 4.00397 0
M  V30 3356 H 328.59 2.54837 3.05455 0
M  V30 3357 H 325.329 5.5027 3.56207 0
M  V30 3358 H 324.849 4.03241 4.44024 0
M  V30 3359 H 326.528 4.62006 4.52946 0
M  V30 3360 N 326.66 -1.06551 1.16123 0
M  V30 3361 C 327.885 -1.83544 0.965735 0
M  V30 3362 C 328.31 -1.81843 -0.481102 0
M  V30 3363 O 327.668 -1.21732 -1.34354 0
M  V30 3364 C 327.716 -3.28169 1.49457 0
M  V30 3365 O 326.82 -4.0643 0.699157 0
M  V30 3366 H 326.161 -0.568026 0.343864 0
M  V30 3367 H 328.691 -1.34362 1.54299 0
M  V30 3368 H 328.701 -3.78992 1.51092 0
M  V30 3369 H 327.376 -3.28722 2.54784 0
M  V30 3370 H 325.953 -3.65216 0.7531 0
M  V30 3371 N 328.138 -0.959301 -1.25041 0
M  V30 3372 C 329.387 -0.612254 -1.92183 0
M  V30 3373 C 329.7 0.855347 -1.75907 0
M  V30 3374 O 330.906 1.31256 -2.37664 0
M  V30 3375 C 329.362 -1.04435 -3.44414 0
M  V30 3376 C 328.97 -2.53482 -3.69393 0
M  V30 3377 C 330.714 -0.770055 -4.17457 0
M  V30 3378 C 328.621 -2.90468 -5.15153 0
M  V30 3379 H 327.551 -0.225279 -0.719559 0
M  V30 3380 H 330.202 -1.16438 -1.41825 0
M  V30 3381 H 328.584 -0.4206 -3.9376 0
M  V30 3382 H 329.758 -3.20916 -3.30681 0
M  V30 3383 H 328.073 -2.78432 -3.0962 0
M  V30 3384 H 330.67 -1.02249 -5.24832 0
M  V30 3385 H 331.013 0.293611 -4.15263 0
M  V30 3386 H 331.546 -1.35437 -3.74034 0
M  V30 3387 H 328.285 -3.95871 -5.22462 0
M  V30 3388 H 327.805 -2.27711 -5.54894 0
M  V30 3389 H 329.484 -2.79914 -5.83315 0
M  V30 3390 N 329.616 1.39756 -0.72842 0
M  V30 3391 C 330.862 2.00942 -0.273892 0
M  V30 3392 C 331.195 1.57656 1.13394 0
M  V30 3393 O 330.47 0.802434 1.77176 0
M  V30 3394 C 330.753 3.58211 -0.368346 0
M  V30 3395 C 330.606 4.11534 -1.81548 0
M  V30 3396 C 331.925 4.39372 0.253054 0
M  V30 3397 H 329.044 0.730047 -0.100996 0
M  V30 3398 H 331.686 1.66056 -0.923337 0
M  V30 3399 H 329.836 3.88061 0.184588 0
M  V30 3400 H 331.508 3.92431 -2.42478 0
M  V30 3401 H 329.751 3.65341 -2.33898 0
M  V30 3402 H 330.422 5.20682 -1.83288 0
M  V30 3403 H 332.898 4.15527 -0.218224 0
M  V30 3404 H 331.774 5.48677 0.156585 0
M  V30 3405 H 332.035 4.21358 1.33826 0
M  V30 3406 N 331.094 0.475555 1.50254 0
M  V30 3407 C 332.51 0.12997 1.5907 0
M  V30 3408 C 332.71 -1.36385 1.48328 0
M  V30 3409 O 331.766 -2.13754 1.34407 0
M  V30 3410 C 333.079 0.684139 2.92814 0
M  V30 3411 C 334.627 0.647965 3.0622 0
M  V30 3412 C 335.102 1.17975 4.42545 0
M  V30 3413 N 336.593 1.13936 4.48969 0
M  V30 3414 C 337.328 1.52129 5.52851 0
M  V30 3415 N 336.824 1.97793 6.63965 0
M  V30 3416 N 338.617 1.43704 5.4342 0
M  V30 3417 H 330.768 1.44706 1.55479 0
M  V30 3418 H 333.031 0.598691 0.735033 0
M  V30 3419 H 332.737 1.73079 3.06164 0
M  V30 3420 H 332.611 0.130204 3.76975 0
M  V30 3421 H 334.998 -0.38979 2.92514 0
M  V30 3422 H 335.079 1.23876 2.23805 0
M  V30 3423 H 334.723 2.21616 4.57 0
M  V30 3424 H 334.653 0.565138 5.23559 0
M  V30 3425 H 337.144 0.804488 3.69238 0
M  V30 3426 H 337.457 2.25072 7.39299 0
M  V30 3427 H 335.802 2.01749 6.65073 0
M  V30 3428 H 338.993 1.07867 4.55502 0
M  V30 3429 H 339.166 1.73794 6.24259 0
M  V30 3430 N 332.573 -1.56217 0.208337 0
M  V30 3431 C 333.523 -2.16324 -0.720281 0
M  V30 3432 C 334.507 -1.10775 -1.16695 0
M  V30 3433 O 335.699 -1.36801 -1.12314 0
M  V30 3434 C 332.828 -2.83644 -1.93393 0
M  V30 3435 C 331.914 -3.96401 -1.50755 0
M  V30 3436 N 332.305 -4.99546 -0.792937 0
M  V30 3437 C 330.603 -4.08246 -1.79585 0
M  V30 3438 C 331.304 -5.78828 -0.577364 0
M  V30 3439 N 330.28 -5.31723 -1.1301 0
M  V30 3440 H 334.082 -2.93432 -0.165725 0
M  V30 3441 H 331.596 -1.62397 0.00906463 0
M  V30 3442 H 333.593 -3.25107 -2.60981 0
M  V30 3443 H 332.253 -2.08027 -2.49308 0
M  V30 3444 H 333.264 -5.15967 -0.447004 0
M  V30 3445 H 329.941 -3.4377 -2.36915 0
M  V30 3446 H 331.331 -6.71899 -0.00952956 0
M  V30 3447 N 334.051 0.0651679 -1.57465 0
M  V30 3448 C 334.961 1.09448 -2.07505 0
M  V30 3449 C 335.977 1.41974 -1.00595 0
M  V30 3450 O 337.153 1.52018 -1.32107 0
M  V30 3451 C 334.218 2.38689 -2.51453 0
M  V30 3452 C 333.279 2.13073 -3.72691 0
M  V30 3453 C 332.512 3.36152 -4.14533 0
M  V30 3454 O 332.735 4.45517 -3.56189 0
M  V30 3455 O 331.669 3.23974 -5.07272 0
M  V30 3456 H 335.495 0.69935 -2.95538 0
M  V30 3457 H 333.08 0.279752 -1.46757 0
M  V30 3458 H 334.962 3.14736 -2.80212 0
M  V30 3459 H 333.637 2.77568 -1.66546 0
M  V30 3460 H 332.544 1.34709 -3.49005 0
M  V30 3461 H 333.877 1.79071 -4.5847 0
M  V30 3462 N 335.529 1.53961 0.336706 0
M  V30 3463 C 336.776 1.71536 1.07618 0
M  V30 3464 C 337.104 0.482125 1.8843 0
M  V30 3465 O 336.359 -0.536142 1.88213 0
M  V30 3466 C 336.658 2.93493 2.03953 0
M  V30 3467 C 336.324 4.28811 1.39399 0
M  V30 3468 C 334.986 4.65602 1.21523 0
M  V30 3469 C 337.338 5.12844 0.929541 0
M  V30 3470 C 334.666 5.84037 0.558312 0
M  V30 3471 C 337.018 6.31951 0.286505 0
M  V30 3472 C 335.682 6.67432 0.0954869 0
M  V30 3473 H 334.952 0.627696 0.393801 0
M  V30 3474 H 337.599 1.88186 0.354715 0
M  V30 3475 H 335.904 2.71475 2.82504 0
M  V30 3476 H 337.601 3.04285 2.61174 0
M  V30 3477 H 334.191 3.99858 1.54311 0
M  V30 3478 H 338.375 4.84947 1.05548 0
M  V30 3479 H 333.631 6.10097 0.398995 0
M  V30 3480 H 337.805 6.96352 -0.0814376 0
M  V30 3481 H 335.432 7.59063 -0.415579 0
M  V30 3482 N 337.007 -0.598083 1.45811 0
M  V30 3483 C 338.418 -1.18011 1.44673 0
M  V30 3484 C 338.769 -1.95378 0.179364 0
M  V30 3485 O 337.894 -2.04124 -0.718509 0
M  V30 3486 C 338.489 -2.14677 2.62105 0
M  V30 3487 C 337.048 -2.68236 2.64057 0
M  V30 3488 C 336.195 -1.43816 2.37091 0
M  V30 3489 H 339.146 -0.38686 1.53913 0
M  V30 3490 H 339.167 -2.97878 2.36746 0
M  V30 3491 H 338.679 -1.5834 3.5433 0
M  V30 3492 H 336.78 -3.28486 1.75864 0
M  V30 3493 H 336.893 -3.12021 3.63566 0
M  V30 3494 H 335.257 -1.731 1.86838 0
M  V30 3495 H 336.04 -0.893333 3.31473 0
M  V30 3496 N 338.485 -1.33259 -0.841409 0
M  V30 3497 C 339.901 -1.12538 -1.13169 0
M  V30 3498 C 340.101 0.0854037 -2.01319 0
M  V30 3499 O 339.157 0.766417 -2.40587 0
M  V30 3500 C 340.47 -2.41156 -1.79623 0
M  V30 3501 C 342.018 -2.47038 -1.922 0
M  V30 3502 C 342.493 -3.7561 -2.6207 0
M  V30 3503 N 343.984 -3.76667 -2.69585 0
M  V30 3504 C 344.719 -4.72861 -3.2433 0
M  V30 3505 N 344.215 -5.79428 -3.79783 0
M  V30 3506 N 346.008 -4.6034 -3.22558 0
M  V30 3507 H 338.159 -2.10868 -0.254676 0
M  V30 3508 H 340.422 -0.931615 -0.175493 0
M  V30 3509 H 340.128 -3.29747 -1.22311 0
M  V30 3510 H 340.002 -2.53114 -2.79666 0
M  V30 3511 H 342.389 -1.58898 -2.48667 0
M  V30 3512 H 342.47 -2.39022 -0.911148 0
M  V30 3513 H 342.114 -4.64131 -2.06263 0
M  V30 3514 H 342.044 -3.80902 -3.63622 0
M  V30 3515 H 344.535 -2.99648 -2.30259 0
M  V30 3516 H 344.848 -6.48867 -4.19752 0
M  V30 3517 H 343.193 -5.83166 -3.78078 0
M  V30 3518 H 346.384 -3.76244 -2.78492 0
M  V30 3519 H 346.557 -5.35478 -3.64921 0
M  V30 3520 N 339.963 1.05934 -1.16686 0
M  V30 3521 C 340.873 2.17014 -0.891183 0
M  V30 3522 C 341.889 1.73453 0.137907 0
M  V30 3523 O 343.065 2.01361 -0.039592 0
M  V30 3524 C 340.13 3.44384 -0.400099 0
M  V30 3525 C 339.191 4.02433 -1.49486 0
M  V30 3526 C 338.424 5.23723 -1.02711 0
M  V30 3527 O 338.647 5.7027 0.121716 0
M  V30 3528 O 337.581 5.7382 -1.81699 0
M  V30 3529 H 341.407 2.43113 -1.82015 0
M  V30 3530 H 338.992 1.15541 -0.947132 0
M  V30 3531 H 340.874 4.21189 -0.133392 0
M  V30 3532 H 339.549 3.19802 0.500817 0
M  V30 3533 H 338.456 3.27102 -1.81535 0
M  V30 3534 H 339.789 4.31317 -2.37121 0
M  V30 3535 N 341.441 0.965919 1.2453 0
M  V30 3536 C 342.666 0.643971 1.97149 0
M  V30 3537 C 343.091 -0.779487 1.71189 0
M  V30 3538 O 342.449 -1.5288 0.974553 0
M  V30 3539 C 342.497 0.922557 3.48599 0
M  V30 3540 O 341.601 0.00707672 4.12399 0
M  V30 3541 H 340.942 0.243647 0.617683 0
M  V30 3542 H 343.472 1.29558 1.58353 0
M  V30 3543 H 343.482 0.853373 3.98976 0
M  V30 3544 H 342.157 1.95996 3.66822 0
M  V30 3545 H 340.734 0.12943 3.72675 0
M  V30 3546 N 342.919 -1.39368 0.735821 0
M  V30 3547 C 343.851 -2.2913 0.0567723 0
M  V30 3548 C 344.864 -1.46859 -0.702589 0
M  V30 3549 O 346.053 -1.69925 -0.546616 0
M  V30 3550 C 343.153 -3.25492 -0.943823 0
M  V30 3551 C 342.326 -4.36709 -0.24581 0
M  V30 3552 C 341.385 -5.13376 -1.15463 0
M  V30 3553 O 340.411 -5.65683 -0.631803 0
M  V30 3554 N 341.613 -5.24656 -2.48427 0
M  V30 3555 H 344.378 -2.88047 0.827582 0
M  V30 3556 H 341.939 -1.50957 0.585112 0
M  V30 3557 H 343.931 -3.73657 -1.55443 0
M  V30 3558 H 342.501 -2.676 -1.61583 0
M  V30 3559 H 341.721 -3.9041 0.545286 0
M  V30 3560 H 343.009 -5.08244 0.237891 0
M  V30 3561 H 342.407 -4.83679 -2.93379 0
M  V30 3562 H 340.964 -5.76258 -3.04582 0
M  V30 3563 N 344.397 -0.483516 -1.5 0
M  V30 3564 C 345.345 0.318061 -2.30415 0
M  V30 3565 C 346.339 0.978988 -1.38247 0
M  V30 3566 O 347.545 0.908673 -1.55381 0
M  V30 3567 H 343.92 0.121419 -0.742133 0
M  V30 3568 H 345.891 -0.380403 -2.95965 0
M  V30 3569 C 344.64 1.38013 -3.19136 0
M  V30 3570 H 343.963 0.880952 -3.89973 0
M  V30 3571 H 345.403 1.91332 -3.78375 0
M  V30 3572 C 343.862 2.38884 -2.37563 0
M  V30 3573 O 344.392 3.44412 -2.06744 0
M  V30 3574 N 342.598 2.10912 -1.99911 0
M  V30 3575 H 342.145 1.25118 -2.25174 0
M  V30 3576 H 342.103 2.78635 -1.45636 0
M  V30 3577 N 345.875 1.56104 -0.216619 0
M  V30 3578 C 347.286 1.844 0.292128 0
M  V30 3579 C 347.637 1.13788 1.59833 0
M  V30 3580 O 346.762 0.405888 2.12559 0
M  V30 3581 C 347.357 3.3452 0.53681 0
M  V30 3582 C 345.916 3.63151 0.989876 0
M  V30 3583 C 345.063 2.77255 0.0502302 0
M  V30 3584 H 348.014 1.52481 -0.439926 0
M  V30 3585 H 348.035 3.54459 1.38345 0
M  V30 3586 H 347.547 3.85885 -0.414031 0
M  V30 3587 H 345.648 3.17238 1.95425 0
M  V30 3588 H 345.761 4.71177 0.867698 0
M  V30 3589 H 344.125 2.48555 0.556117 0
M  V30 3590 H 344.908 3.31416 -0.89544 0
M  V30 3591 N 347.353 -0.0568162 1.57498 0
M  V30 3592 C 348.283 -1.06593 2.0775 0
M  V30 3593 C 349.264 -1.39448 0.974082 0
M  V30 3594 O 350.449 -1.48815 1.24771 0
M  V30 3595 C 347.579 -2.37509 2.5339 0
M  V30 3596 C 346.533 -2.1897 3.67745 0
M  V30 3597 C 345.859 -3.55402 3.99492 0
M  V30 3598 C 347.159 -1.59859 4.97235 0
M  V30 3599 H 348.853 -0.647706 2.9231 0
M  V30 3600 H 346.399 -0.310116 1.40621 0
M  V30 3601 H 348.352 -3.08409 2.87162 0
M  V30 3602 H 347.076 -2.8134 1.65878 0
M  V30 3603 H 345.735 -1.50508 3.3428 0
M  V30 3604 H 345.383 -3.9683 3.09088 0
M  V30 3605 H 345.083 -3.43831 4.76502 0
M  V30 3606 H 346.607 -4.27708 4.35773 0
M  V30 3607 H 348.021 -2.20642 5.29141 0
M  V30 3608 H 346.418 -1.58942 5.78669 0
M  V30 3609 H 347.488 -0.561506 4.81638 0
M  V30 3610 N 348.832 -1.54138 -0.328536 0
M  V30 3611 C 349.782 -1.79557 -1.4051 0
M  V30 3612 C 350.766 -0.651373 -1.47126 0
M  V30 3613 O 351.958 -0.911226 -1.51742 0
M  V30 3614 C 349.087 -2.02196 -2.77438 0
M  V30 3615 C 348.173 -3.22724 -2.75155 0
M  V30 3616 N 348.564 -4.43881 -2.42494 0
M  V30 3617 C 346.862 -3.24196 -3.06289 0
M  V30 3618 C 347.563 -5.25797 -2.48822 0
M  V30 3619 N 346.539 -4.62862 -2.8506 0
M  V30 3620 H 350.341 -2.70814 -1.1418 0
M  V30 3621 H 347.855 -1.53265 -0.536991 0
M  V30 3622 H 349.852 -2.18546 -3.55026 0
M  V30 3623 H 348.512 -1.12191 -3.04702 0
M  V30 3624 H 349.523 -4.70969 -2.15428 0
M  V30 3625 H 346.2 -2.44208 -3.38627 0
M  V30 3626 H 347.59 -6.32535 -2.26603 0
M  V30 3627 N 350.31 0.590341 -1.46126 0
M  V30 3628 C 351.24 1.71032 -1.58966 0
M  V30 3629 C 352.221 1.64302 -0.440335 0
M  V30 3630 O 353.406 1.82436 -0.665634 0
M  V30 3631 C 350.536 3.09665 -1.57241 0
M  V30 3632 C 349.49 3.31221 -2.71066 0
M  V30 3633 C 348.816 4.70303 -2.54399 0
M  V30 3634 C 350.116 3.19796 -4.1295 0
M  V30 3635 H 351.81 1.60543 -2.52718 0
M  V30 3636 H 349.356 0.770933 -1.21625 0
M  V30 3637 H 351.309 3.87831 -1.64819 0
M  V30 3638 H 350.033 3.21036 -0.600289 0
M  V30 3639 H 348.692 2.55452 -2.62944 0
M  V30 3640 H 348.34 4.78429 -1.55288 0
M  V30 3641 H 348.04 4.85679 -3.30741 0
M  V30 3642 H 349.564 5.50647 -2.63857 0
M  V30 3643 H 350.978 3.87815 -4.22223 0
M  V30 3644 H 349.375 3.46696 -4.89818 0
M  V30 3645 H 350.445 2.16983 -4.33643 0
M  V30 3646 N 351.788 1.33704 0.83433 0
M  V30 3647 C 352.72 1.20172 1.9517 0
M  V30 3648 C 353.733 0.131572 1.62267 0
M  V30 3649 O 354.922 0.382406 1.74356 0
M  V30 3650 C 352.022 0.821716 3.28787 0
M  V30 3651 C 351.195 1.98446 3.89792 0
M  V30 3652 C 350.254 1.58469 5.01771 0
M  V30 3653 O 349.28 2.29968 5.20676 0
M  V30 3654 N 350.482 0.492291 5.78409 0
M  V30 3655 H 353.247 2.16429 2.07313 0
M  V30 3656 H 350.808 1.26509 1.0103 0
M  V30 3657 H 352.8 0.536291 4.01131 0
M  V30 3658 H 351.37 -0.0503058 3.1256 0
M  V30 3659 H 350.59 2.43526 3.09982 0
M  V30 3660 H 351.878 2.76236 4.27283 0
M  V30 3661 H 351.276 -0.102349 5.65607 0
M  V30 3662 H 349.833 0.266555 6.51255 0
M  V30 3663 N 353.266 -1.05314 1.17247 0
M  V30 3664 C 354.196 -2.1498 0.911362 0
M  V30 3665 C 355.177 -1.69471 -0.146169 0
M  V30 3666 O 356.362 -1.942 0.003812 0
M  V30 3667 C 353.492 -3.4472 0.422528 0
M  V30 3668 C 352.446 -4.03789 1.4191 0
M  V30 3669 C 351.772 -5.28858 0.788274 0
M  V30 3670 C 353.072 -4.41418 2.7919 0
M  V30 3671 H 354.766 -2.3708 1.82848 0
M  V30 3672 H 352.312 -1.13938 0.880569 0
M  V30 3673 H 354.265 -4.20787 0.227289 0
M  V30 3674 H 352.989 -3.22269 -0.530123 0
M  V30 3675 H 351.648 -3.2979 1.60106 0
M  V30 3676 H 351.296 -5.02709 -0.171173 0
M  V30 3677 H 350.996 -5.69338 1.45353 0
M  V30 3678 H 352.52 -6.07612 0.603282 0
M  V30 3679 H 353.934 -5.08524 2.64719 0
M  V30 3680 H 352.331 -4.92913 3.42282 0
M  V30 3681 H 353.401 -3.51819 3.33693 0
M  V30 3682 N 354.744 -0.972509 -1.24016 0
M  V30 3683 C 355.969 -0.654417 -1.96805 0
M  V30 3684 C 356.394 0.770398 -1.716 0
M  V30 3685 O 355.752 1.52361 -0.982647 0
M  V30 3686 C 355.8 -0.941031 -3.48105 0
M  V30 3687 O 354.904 -0.0289472 -4.1239 0
M  V30 3688 H 354.245 -0.24692 -0.616382 0
M  V30 3689 H 356.775 -1.30396 -1.57664 0
M  V30 3690 H 356.785 -0.87452 -3.98517 0
M  V30 3691 H 355.46 -1.97939 -3.65777 0
M  V30 3692 H 354.037 -0.149192 -3.72601 0
M  V30 3693 N 356.222 1.38976 -0.743202 0
M  V30 3694 C 357.152 2.33171 -0.123873 0
M  V30 3695 C 358.133 1.54336 0.71516 0
M  V30 3696 O 359.318 1.82696 0.658467 0
M  V30 3697 C 356.448 3.38474 0.777978 0
M  V30 3698 C 355.402 4.27979 0.0424758 0
M  V30 3699 C 354.728 5.2405 1.06189 0
M  V30 3700 C 356.028 5.10155 -1.1198 0
M  V30 3701 H 357.722 2.85213 -0.910709 0
M  V30 3702 H 355.268 1.37133 -0.439388 0
M  V30 3703 H 357.221 4.03328 1.22084 0
M  V30 3704 H 355.945 2.84891 1.59702 0
M  V30 3705 H 354.604 3.64616 -0.380853 0
M  V30 3706 H 354.252 4.66758 1.87472 0
M  V30 3707 H 353.952 5.84785 0.574485 0
M  V30 3708 H 355.476 5.9178 1.50428 0
M  V30 3709 H 356.89 5.68307 -0.75499 0
M  V30 3710 H 355.287 5.80073 -1.53738 0
M  V30 3711 H 356.357 4.44504 -1.93764 0
M  V30 3712 N 357.7 0.491464 1.49741 0
M  V30 3713 C 358.61 -0.296835 2.32715 0
M  V30 3714 C 359.626 -0.976536 1.44013 0
M  V30 3715 O 360.802 -0.960023 1.77047 0
M  V30 3716 C 357.867 -1.35288 3.19215 0
M  V30 3717 C 356.928 -0.687632 4.23757 0
M  V30 3718 C 356.161 -1.69336 5.06123 0
M  V30 3719 O 356.384 -2.92219 4.89861 0
M  V30 3720 O 355.318 -1.25394 5.88693 0
M  V30 3721 H 359.144 0.382048 3.01287 0
M  V30 3722 H 356.729 0.252953 1.47243 0
M  V30 3723 H 358.611 -1.96411 3.72828 0
M  V30 3724 H 357.286 -2.01487 2.53347 0
M  V30 3725 H 356.193 -0.0369159 3.74082 0
M  V30 3726 H 357.526 -0.0682566 4.92153 0
M  V30 3727 N 359.178 -1.55987 0.224894 0
M  V30 3728 C 360.126 -2.21808 -0.700283 0
M  V30 3729 C 361.12 -1.19854 -1.19714 0
M  V30 3730 O 362.326 -1.37925 -1.15658 0
M  V30 3731 H 358.701 -0.711226 -0.244258 0
M  V30 3732 H 360.672 -2.98152 -0.121749 0
M  V30 3733 C 359.421 -2.91444 -1.8962 0
M  V30 3734 H 358.744 -3.69655 -1.52299 0
M  V30 3735 H 360.184 -3.40894 -2.52125 0
M  V30 3736 C 358.643 -1.94098 -2.75368 0
M  V30 3737 O 359.173 -1.46004 -3.74227 0
M  V30 3738 N 357.379 -1.61675 -2.41474 0
M  V30 3739 H 356.926 -2.00979 -1.61137 0
M  V30 3740 H 356.884 -0.968036 -2.99126 0
M  V30 3741 N 360.656 0.0484629 -1.57525 0
M  V30 3742 C 361.881 0.759177 -1.93006 0
M  V30 3743 C 362.306 1.69125 -0.823317 0
M  V30 3744 O 361.664 1.79931 0.222364 0
M  V30 3745 C 361.712 1.50899 -3.27509 0
M  V30 3746 O 360.816 2.62112 -3.18388 0
M  V30 3747 H 360.157 0.205564 -0.631379 0
M  V30 3748 H 362.687 0.00972959 -2.04598 0
M  V30 3749 H 362.697 1.88317 -3.6194 0
M  V30 3750 H 361.372 0.825269 -4.0763 0
M  V30 3751 H 359.949 2.27379 -2.95556 0
M  V30 3752 N 362.134 1.5431 0.320358 0
M  V30 3753 C 363.064 1.86912 1.3995 0
M  V30 3754 C 364.045 0.726211 1.53819 0
M  V30 3755 O 365.23 0.980233 1.67646 0
M  V30 3756 C 362.36 2.09932 2.7667 0
M  V30 3757 C 361.314 3.25776 2.77586 0
M  V30 3758 C 360.64 3.34173 4.17412 0
M  V30 3759 C 361.94 4.6335 2.41048 0
M  V30 3760 H 363.634 2.77292 1.12914 0
M  V30 3761 H 361.18 1.33421 0.541738 0
M  V30 3762 H 363.133 2.31324 3.52232 0
M  V30 3763 H 361.857 1.16304 3.0519 0
M  V30 3764 H 360.516 3.04276 2.04479 0
M  V30 3765 H 360.164 2.38098 4.43078 0
M  V30 3766 H 359.864 4.12033 4.18931 0
M  V30 3767 H 361.388 3.57803 4.94782 0
M  V30 3768 H 362.802 4.84602 3.06324 0
M  V30 3769 H 361.199 5.43782 2.53813 0
M  V30 3770 H 362.269 4.65381 1.36193 0
M  V30 3771 N 363.613 -0.582584 1.46437 0
M  V30 3772 C 364.838 -1.37168 1.55563 0
M  V30 3773 C 365.263 -1.87061 0.19743 0
M  V30 3774 O 364.621 -1.61572 -0.822451 0
M  V30 3775 C 364.669 -2.53511 2.56446 0
M  V30 3776 O 363.773 -3.54953 2.09958 0
M  V30 3777 H 363.114 -0.408494 0.523477 0
M  V30 3778 H 365.644 -0.706646 1.9201 0
M  V30 3779 H 365.654 -3.00426 2.76058 0
M  V30 3780 H 364.329 -2.16549 3.55076 0
M  V30 3781 H 362.906 -3.14516 2.00334 0
M  V30 3782 N 365.091 -1.34144 -0.827227 0
M  V30 3783 C 366.316 -1.29476 -1.62021 0
M  V30 3784 C 366.741 0.129292 -1.87655 0
M  V30 3785 O 366.099 1.08967 -1.449 0
M  V30 3786 C 366.147 -2.08702 -2.94068 0
M  V30 3787 O 365.251 -1.45359 -3.85933 0
M  V30 3788 H 364.592 -0.444881 -0.492927 0
M  V30 3789 H 367.122 -1.76882 -1.02829 0
M  V30 3790 H 367.132 -2.19898 -3.43669 0
M  V30 3791 H 365.807 -3.12241 -2.74734 0
M  V30 3792 H 364.384 -1.42879 -3.44442 0
M  V30 3793 N 366.569 1.04691 -1.17803 0
M  V30 3794 C 367.846 1.7472 -0.879328 0
M  V30 3795 C 368.226 2.01812 0.619271 0
M  V30 3796 O 367.574 1.65824 1.57209 0
M  V30 3797 C 367.784 3.03686 -1.71976 0
M  V30 3798 C 369.132 3.77542 -1.94286 0
M  V30 3799 O 370.156 3.13569 -1.68976 0
M  V30 3800 O 369.015 4.92506 -2.36855 0
M  V30 3801 H 366.109 0.760011 -0.326056 0
M  V30 3802 H 368.655 1.10813 -1.28525 0
M  V30 3803 H 367.427 2.79754 -2.73594 0
M  V30 3804 H 367.05 3.75332 -1.31194 0
M  V30 3805 N 368.047 0.979072 1.23499 0
M  V30 3806 C 369.01 0.523244 2.23147 0
M  V30 3807 C 370.01 -0.386406 1.56088 0
M  V30 3808 O 371.2 -0.180283 1.73265 0
M  V30 3809 C 368.332 -0.240739 3.40049 0
M  V30 3810 H 369.525 1.40432 2.64989 0
M  V30 3811 H 367.078 0.764824 1.36309 0
M  V30 3812 H 367.813 -1.13841 3.03662 0
M  V30 3813 H 367.598 0.412207 3.89927 0
M  V30 3814 H 369.088 -0.548297 4.13985 0
M  V30 3815 N 369.525 -1.3858 0.750561 0
M  V30 3816 C 370.802 -1.94231 0.231009 0
M  V30 3817 C 371.182 -1.68611 -1.27018 0
M  V30 3818 O 370.53 -1.02296 -2.04323 0
M  V30 3819 C 370.74 -3.44123 0.581428 0
M  V30 3820 C 372.088 -4.2116 0.539389 0
M  V30 3821 O 373.112 -3.52391 0.519541 0
M  V30 3822 O 371.971 -5.43749 0.54765 0
M  V30 3823 H 369.065 -0.825639 0.0474263 0
M  V30 3824 H 371.611 -1.4799 0.830478 0
M  V30 3825 H 370.383 -3.56267 1.61833 0
M  V30 3826 H 370.006 -3.97573 -0.0462047 0
M  V30 3827 N 371.003 -0.499398 -1.49478 0
M  V30 3828 C 372.249 0.0457576 -2.02748 0
M  V30 3829 C 372.582 1.36793 -1.37846 0
M  V30 3830 O 371.857 1.87596 -0.513601 0
M  V30 3831 C 372.14 0.199986 -3.59544 0
M  V30 3832 C 371.993 -1.1452 -4.34977 0
M  V30 3833 C 373.312 0.94137 -4.29914 0
M  V30 3834 H 370.431 0.0151552 -0.736844 0
M  V30 3835 H 373.073 -0.650498 -1.78518 0
M  V30 3836 H 371.223 0.793007 -3.8032 0
M  V30 3837 H 372.895 -1.77697 -4.25701 0
M  V30 3838 H 371.138 -1.73488 -3.97598 0
M  V30 3839 H 371.809 -0.990607 -5.43039 0
M  V30 3840 H 374.285 0.43844 -4.13784 0
M  V30 3841 H 373.161 1.01812 -5.39375 0
M  V30 3842 H 373.422 1.98471 -3.95046 0
M  V30 3843 N 372.481 1.55866 -0.233164 0
M  V30 3844 C 373.709 2.02998 0.399905 0
M  V30 3845 C 374.124 1.11274 1.52524 0
M  V30 3846 O 373.481 0.124528 1.82075 0
M  V30 3847 C 373.532 3.4958 0.920639 0
M  V30 3848 O 373.253 4.37808 -0.159834 0
M  V30 3849 C 374.754 4.12411 1.62578 0
M  V30 3850 H 371.974 0.664006 0.0966281 0
M  V30 3851 H 374.518 2.0143 -0.353013 0
M  V30 3852 H 372.673 3.51727 1.62379 0
M  V30 3853 H 373.087 5.23981 0.23337 0
M  V30 3854 H 374.561 5.16711 1.94201 0
M  V30 3855 H 375.038 3.5809 2.54299 0
M  V30 3856 H 375.644 4.14148 0.967553 0
M  V30 3857 N 373.959 -0.0401083 1.57549 0
M  V30 3858 C 375.205 -0.734211 1.89043 0
M  V30 3859 C 375.538 -1.75591 0.829535 0
M  V30 3860 O 374.813 -1.93868 -0.156706 0
M  V30 3861 C 375.096 -1.41374 3.31188 0
M  V30 3862 C 374.949 -0.406299 4.47961 0
M  V30 3863 C 376.268 -2.35061 3.72068 0
M  V30 3864 H 373.387 -0.265447 0.687537 0
M  V30 3865 H 376.029 0.00294087 1.9 0
M  V30 3866 H 374.179 -2.04206 3.30503 0
M  V30 3867 H 375.851 0.219255 4.60779 0
M  V30 3868 H 374.094 0.275485 4.32924 0
M  V30 3869 H 374.765 -0.920022 5.44279 0
M  V30 3870 H 377.241 -1.82282 3.74049 0
M  V30 3871 H 376.117 -2.79593 4.72355 0
M  V30 3872 H 376.378 -3.21258 3.0372 0
M  V30 3873 N 375.437 -1.54477 -0.31217 0
M  V30 3874 C 376.662 -1.77526 -1.07235 0
M  V30 3875 C 377.087 -0.527775 -1.80544 0
M  V30 3876 O 376.445 0.52121 -1.73646 0
M  V30 3877 C 376.493 -2.97535 -2.03728 0
M  V30 3878 O 375.597 -2.69878 -3.11833 0
M  V30 3879 H 374.938 -0.58792 -0.30862 0
M  V30 3880 H 377.468 -2.01532 -0.352993 0
M  V30 3881 H 377.478 -3.25198 -2.46395 0
M  V30 3882 H 376.153 -3.87996 -1.49774 0
M  V30 3883 H 374.73 -2.53199 -2.7376 0
M  V30 3884 N 376.915 0.57481 -1.46744 0
M  V30 3885 C 378.164 1.32898 -1.51727 0
M  V30 3886 C 378.477 1.948 -0.176692 0
M  V30 3887 O 379.683 2.71299 -0.104385 0
M  V30 3888 C 378.139 2.40901 -2.67385 0
M  V30 3889 C 377.747 1.85266 -4.07898 0
M  V30 3890 C 379.491 3.17609 -2.81646 0
M  V30 3891 C 377.398 2.90945 -5.14883 0
M  V30 3892 H 376.328 0.499631 -0.564699 0
M  V30 3893 H 378.979 0.612536 -1.72975 0
M  V30 3894 H 377.361 3.15379 -2.39483 0
M  V30 3895 H 378.535 1.17278 -4.45626 0
M  V30 3896 H 376.85 1.21199 -3.98371 0
M  V30 3897 H 379.447 3.96493 -3.58744 0
M  V30 3898 H 379.79 3.70696 -1.89448 0
M  V30 3899 H 380.323 2.50239 -3.09233 0
M  V30 3900 H 377.062 2.42736 -6.089 0
M  V30 3901 H 376.582 3.57398 -4.81691 0
M  V30 3902 H 378.261 3.54755 -5.41071 0
M  V30 3903 N 378.394 1.34581 0.820102 0
M  V30 3904 C 379.324 1.29038 1.94606 0
M  V30 3905 C 380.305 0.1673 1.69275 0
M  V30 3906 O 381.49 0.360112 1.90832 0
M  V30 3907 C 378.62 1.04793 3.31113 0
M  V30 3908 C 377.574 2.13597 3.70891 0
M  V30 3909 C 376.9 1.74537 5.05412 0
M  V30 3910 C 378.2 3.55451 3.8269 0
M  V30 3911 H 379.894 2.23248 1.99501 0
M  V30 3912 H 377.44 1.0747 0.958449 0
M  V30 3913 H 379.393 0.995592 4.0947 0
M  V30 3914 H 378.117 0.0702565 3.26524 0
M  V30 3915 H 376.776 2.17905 2.9481 0
M  V30 3916 H 376.424 0.754226 4.97313 0
M  V30 3917 H 376.124 2.47361 5.32997 0
M  V30 3918 H 377.648 1.70803 5.86224 0
M  V30 3919 H 379.062 3.5354 4.51312 0
M  V30 3920 H 377.459 4.26922 4.21732 0
M  V30 3921 H 378.529 3.92587 2.84611 0
M  V30 3922 N 379.872 -1.04064 1.18357 0
M  V30 3923 C 381.1 -1.80916 1.00384 0
M  V30 3924 C 381.515 -1.83414 -0.447738 0
M  V30 3925 O 380.872 -1.26962 -1.31099 0
M  V30 3926 C 380.923 -3.26516 1.55144 0
M  V30 3927 O 380.644 -3.2424 2.94618 0
M  V30 3928 C 382.145 -4.20013 1.41789 0
M  V30 3929 H 379.365 -0.569728 0.354474 0
M  V30 3930 H 381.909 -1.31151 1.56906 0
M  V30 3931 H 380.064 -3.73512 1.02798 0
M  V30 3932 H 380.478 -4.15452 3.20156 0
M  V30 3933 H 381.952 -5.20111 1.84901 0
M  V30 3934 H 382.429 -4.37667 0.36661 0
M  V30 3935 H 383.035 -3.78881 1.93207 0
M  V30 3936 N 381.35 -0.985608 -1.22978 0
M  V30 3937 C 382.283 -0.47487 -2.23204 0
M  V30 3938 C 383.261 0.460865 -1.55932 0
M  V30 3939 O 384.445 0.388105 -1.84461 0
M  V30 3940 C 381.572 0.312427 -3.37256 0
M  V30 3941 C 380.618 -0.568219 -4.22698 0
M  V30 3942 S 381.451 -2.01919 -4.95973 0
M  V30 3943 C 382.607 -1.24118 -6.1347 0
M  V30 3944 H 382.84 -1.32419 -2.66181 0
M  V30 3945 H 380.373 -0.792005 -1.32539 0
M  V30 3946 H 382.331 0.760645 -4.03391 0
M  V30 3947 H 380.992 1.13693 -2.92801 0
M  V30 3948 H 380.185 0.0371657 -5.03986 0
M  V30 3949 H 379.787 -0.952897 -3.61657 0
M  V30 3950 H 382.079 -0.505121 -6.75614 0
M  V30 3951 H 383.022 -2.02907 -6.78406 0
M  V30 3952 H 383.43 -0.757669 -5.59392 0
M  V30 3953 N 382.828 1.3818 -0.7579 0
M  V30 3954 C 383.776 2.32277 -0.122482 0
M  V30 3955 C 384.77 1.54238 0.700505 0
M  V30 3956 O 385.976 1.69737 0.599119 0
M  V30 3957 H 382.351 0.751712 -0.0208143 0
M  V30 3958 H 384.322 2.83469 -0.932099 0
M  V30 3959 C 383.071 3.39447 0.753076 0
M  V30 3960 H 382.394 3.99591 0.129184 0
M  V30 3961 H 383.834 4.07684 1.16489 0
M  V30 3962 C 382.293 2.78375 1.8976 0
M  V30 3963 O 382.823 2.68025 2.99208 0
M  V30 3964 N 381.029 2.36121 1.69397 0
M  V30 3965 H 380.576 2.4474 0.803762 0
M  V30 3966 H 380.534 1.95602 2.46145 0
M  V30 3967 N 384.306 0.507319 1.49211 0
M  V30 3968 C 385.254 -0.281364 2.30892 0
M  V30 3969 C 386.248 -0.95687 1.39787 0
M  V30 3970 O 387.454 -0.883838 1.56807 0
M  V30 3971 H 383.829 -0.109597 0.743971 0
M  V30 3972 H 385.8 0.42744 2.95323 0
M  V30 3973 C 384.549 -1.32918 3.21291 0
M  V30 3974 H 383.872 -0.818799 3.91326 0
M  V30 3975 H 385.312 -1.85288 3.81372 0
M  V30 3976 C 383.771 -2.35074 2.41333 0
M  V30 3977 O 384.301 -3.4108 2.12197 0
M  V30 3978 N 382.507 -2.07705 2.03241 0
M  V30 3979 H 382.054 -1.2152 2.27136 0
M  V30 3980 H 382.012 -2.76283 1.50051 0
M  V30 3981 N 385.784 -1.5574 0.241426 0
M  V30 3982 C 387.03 -1.99846 -0.378555 0
M  V30 3983 C 387.385 -1.12665 -1.55963 0
M  V30 3984 O 386.678 -0.180966 -1.90743 0
M  V30 3985 C 386.872 -3.47308 -0.843317 0
M  V30 3986 C 386.701 -4.48756 0.291178 0
M  V30 3987 C 385.471 -4.9949 0.764077 0
M  V30 3988 C 387.669 -5.02039 1.11631 0
M  V30 3989 N 385.651 -5.84676 1.87156 0
M  V30 3990 C 387.022 -5.84343 2.07226 0
M  V30 3991 C 389.077 -4.84354 1.15349 0
M  V30 3992 C 387.78 -6.50851 3.06245 0
M  V30 3993 C 389.806 -5.51636 2.13195 0
M  V30 3994 C 389.168 -6.33724 3.07528 0
M  V30 3995 H 385.267 -0.774968 -0.104634 0
M  V30 3996 H 387.851 -1.91385 0.357751 0
M  V30 3997 H 386.022 -3.56178 -1.54893 0
M  V30 3998 H 387.754 -3.78299 -1.43779 0
M  V30 3999 H 384.509 -4.72311 0.349175 0
M  V30 4000 H 384.933 -6.31967 2.42789 0
M  V30 4001 H 389.575 -4.20525 0.438057 0
M  V30 4002 H 387.293 -7.1385 3.78739 0
M  V30 4003 H 390.879 -5.39909 2.16771 0
M  V30 4004 H 389.759 -6.84867 3.82003 0
M  V30 4005 N 387.262 0.0317525 -1.57568 0
M  V30 4006 C 388.492 0.733884 -1.93126 0
M  V30 4007 C 388.9 1.69563 -0.839352 0
M  V30 4008 O 388.243 1.82681 0.193175 0
M  V30 4009 C 388.305 1.54798 -3.24465 0
M  V30 4010 C 387.969 0.751304 -4.50782 0
M  V30 4011 C 388.966 0.0527632 -5.19873 0
M  V30 4012 C 386.651 0.706639 -4.97305 0
M  V30 4013 C 388.645 -0.679774 -6.33765 0
M  V30 4014 C 386.332 -0.0296449 -6.11093 0
M  V30 4015 C 387.33 -0.721614 -6.79177 0
M  V30 4016 O 387.018 -1.44595 -7.90789 0
M  V30 4017 H 386.75 0.211459 -0.642076 0
M  V30 4018 H 389.304 -0.00585615 -2.05399 0
M  V30 4019 H 387.534 2.33147 -3.08512 0
M  V30 4020 H 389.223 2.13247 -3.4537 0
M  V30 4021 H 389.989 0.0783188 -4.84937 0
M  V30 4022 H 385.868 1.23474 -4.44157 0
M  V30 4023 H 389.412 -1.22042 -6.86842 0
M  V30 4024 H 385.309 -0.0571331 -6.45475 0
M  V30 4025 H 386.077 -1.35935 -8.07133 0
M  V30 4026 N 388.74 1.54641 0.303973 0
M  V30 4027 C 389.688 1.86137 1.39484 0
M  V30 4028 C 390.682 0.734854 1.52631 0
M  V30 4029 O 391.888 0.918803 1.54784 0
M  V30 4030 H 388.263 0.590324 0.465856 0
M  V30 4031 H 390.234 2.77324 1.10154 0
M  V30 4032 C 388.983 2.12274 2.75382 0
M  V30 4033 H 388.306 2.98429 2.66046 0
M  V30 4034 H 389.746 2.38254 3.5073 0
M  V30 4035 C 388.205 0.920365 3.24085 0
M  V30 4036 O 388.735 0.139377 4.01458 0
M  V30 4037 N 386.941 0.726566 2.81371 0
M  V30 4038 H 386.488 1.36332 2.18567 0
M  V30 4039 H 386.446 -0.0763799 3.14307 0
M  V30 4040 N 390.218 -0.567019 1.47046 0
M  V30 4041 C 391.465 -1.32462 1.53167 0
M  V30 4042 C 391.793 -1.93571 0.189841 0
M  V30 4043 O 391.048 -1.77865 -0.816243 0
M  V30 4044 C 391.347 -2.4623 2.59047 0
M  V30 4045 C 391.013 -2.03014 4.02612 0
M  V30 4046 C 389.675 -1.90944 4.41694 0
M  V30 4047 C 392.027 -1.69895 4.92732 0
M  V30 4048 C 389.355 -1.44035 5.68745 0
M  V30 4049 C 391.707 -1.2446 6.20236 0
M  V30 4050 C 390.371 -1.10979 6.5821 0
M  V30 4051 H 389.641 -0.484713 0.560477 0
M  V30 4052 H 392.288 -0.636888 1.80599 0
M  V30 4053 H 390.593 -3.20517 2.25335 0
M  V30 4054 H 392.29 -3.04427 2.61008 0
M  V30 4055 H 388.88 -2.13348 3.71726 0
M  V30 4056 H 393.064 -1.78098 4.63244 0
M  V30 4057 H 388.32 -1.32254 5.96925 0
M  V30 4058 H 392.494 -0.978924 6.89485 0
M  V30 4059 H 390.121 -0.744078 7.5655 0
M  V30 4060 N 391.696 -1.35014 -0.812953 0
M  V30 4061 C 392.921 -1.31187 -1.60639 0
M  V30 4062 C 393.346 0.109382 -1.87782 0
M  V30 4063 O 392.704 1.07424 -1.46047 0
M  V30 4064 C 392.752 -2.11809 -2.91838 0
M  V30 4065 O 391.856 -1.49444 -3.8437 0
M  V30 4066 H 391.197 -0.450084 -0.488181 0
M  V30 4067 H 393.727 -1.77963 -1.00947 0
M  V30 4068 H 393.737 -2.23531 -3.41318 0
M  V30 4069 H 392.412 -3.15137 -2.71407 0
M  V30 4070 H 390.989 -1.46524 -3.42907 0
M  V30 4071 N 393.175 1.03435 -1.18907 0
M  V30 4072 C 394.105 2.13503 -0.945448 0
M  V30 4073 C 395.086 1.69682 0.119189 0
M  V30 4074 O 396.271 1.94169 -0.034707 0
M  V30 4075 C 393.401 3.44004 -0.477316 0
M  V30 4076 C 392.355 4.0148 -1.48316 0
M  V30 4077 C 391.681 5.27537 -0.872311 0
M  V30 4078 C 392.981 4.36921 -2.86177 0
M  V30 4079 H 394.675 2.34141 -1.86597 0
M  V30 4080 H 392.221 1.12523 -0.898584 0
M  V30 4081 H 394.174 4.20372 -0.294204 0
M  V30 4082 H 392.898 3.23072 0.478786 0
M  V30 4083 H 391.557 3.27201 -1.65332 0
M  V30 4084 H 391.205 5.02917 0.0911752 0
M  V30 4085 H 390.905 5.66954 -1.54393 0
M  V30 4086 H 392.429 6.06576 -0.699871 0
M  V30 4087 H 393.843 5.04248 -2.72776 0
M  V30 4088 H 392.24 4.87405 -3.50081 0
M  V30 4089 H 393.31 3.46466 -3.39248 0
M  V30 4090 N 394.653 0.992116 1.22453 0
M  V30 4091 C 395.583 0.561677 2.26644 0
M  V30 4092 C 396.564 -0.411055 1.65059 0
M  V30 4093 O 397.749 -0.301861 1.9184 0
M  V30 4094 C 394.879 -0.125247 3.47074 0
M  V30 4095 C 393.833 0.765948 4.21091 0
M  V30 4096 C 393.159 -0.0538484 5.34673 0
M  V30 4097 C 394.459 2.06242 4.79856 0
M  V30 4098 H 396.153 1.43259 2.62902 0
M  V30 4099 H 393.699 0.690283 1.26377 0
M  V30 4100 H 395.652 -0.437764 4.1912 0
M  V30 4101 H 394.376 -1.03069 3.0991 0
M  V30 4102 H 393.035 1.0621 3.50878 0
M  V30 4103 H 392.683 -0.960188 4.9375 0
M  V30 4104 H 392.383 0.539415 5.85119 0
M  V30 4105 H 393.907 -0.360477 6.09535 0
M  V30 4106 H 395.321 1.8139 5.43848 0
M  V30 4107 H 393.718 2.60444 5.40638 0
M  V30 4108 H 394.788 2.74167 3.99951 0
M  V30 4109 N 396.131 -1.37776 0.765217 0
M  V30 4110 C 397.061 -2.32945 0.160953 0
M  V30 4111 C 398.042 -1.55454 -0.690516 0
M  V30 4112 O 399.227 -1.83721 -0.629318 0
M  V30 4113 C 396.357 -3.39669 -0.724031 0
M  V30 4114 C 395.311 -4.27992 0.0256173 0
M  V30 4115 C 394.637 -5.25673 -0.978383 0
M  V30 4116 C 395.937 -5.08309 1.20082 0
M  V30 4117 H 397.631 -2.83728 0.955969 0
M  V30 4118 H 395.177 -1.36416 0.461149 0
M  V30 4119 H 397.13 -4.05219 -1.15652 0
M  V30 4120 H 395.854 -2.87396 -1.5515 0
M  V30 4121 H 394.513 -3.63964 0.438812 0
M  V30 4122 H 394.161 -4.69682 -1.80022 0
M  V30 4123 H 393.861 -5.85625 -0.481378 0
M  V30 4124 H 395.385 -5.94098 -1.40995 0
M  V30 4125 H 396.799 -5.67034 0.845307 0
M  V30 4126 H 395.196 -5.77554 1.62947 0
M  V30 4127 H 396.266 -4.41365 2.00811 0
M  V30 4128 N 397.609 -0.515225 -1.4894 0
M  V30 4129 C 398.849 0.0223983 -2.04388 0
M  V30 4130 C 399.213 1.32961 -1.38511 0
M  V30 4131 O 400.414 1.95236 -1.8476 0
M  V30 4132 C 398.685 0.157056 -3.57055 0
M  V30 4133 S 400.244 0.646875 -4.34006 0
M  V30 4134 H 397.062 -0.00500662 -0.710982 0
M  V30 4135 H 399.664 -0.69243 -1.82827 0
M  V30 4136 H 398.368 -0.799412 -4.02539 0
M  V30 4137 H 397.899 0.896704 -3.83044 0
M  V30 4138 H 399.914 1.91381 -4.57808 0
M  V30 4139 N 399.087 1.5561 -0.249682 0
M  V30 4140 C 400.019 2.18834 0.681496 0
M  V30 4141 C 401.032 1.16546 1.1367 0
M  V30 4142 O 402.221 1.43397 1.06299 0
M  V30 4143 C 399.321 2.77992 1.9384 0
M  V30 4144 C 398.494 4.05725 1.63419 0
M  V30 4145 C 397.553 4.49174 2.74096 0
M  V30 4146 O 396.579 5.15492 2.41364 0
M  V30 4147 N 397.781 4.17191 4.03649 0
M  V30 4148 H 400.546 2.9937 0.140514 0
M  V30 4149 H 398.107 1.6175 -0.0697541 0
M  V30 4150 H 400.099 3.04015 2.67127 0
M  V30 4151 H 398.669 2.01596 2.38909 0
M  V30 4152 H 397.889 3.87261 0.736358 0
M  V30 4153 H 399.177 4.88999 1.40562 0
M  V30 4154 H 398.575 3.63955 4.33074 0
M  V30 4155 H 397.132 4.48043 4.73393 0
M  V30 4156 N 400.565 -0.0233959 1.57583 0
M  V30 4157 C 401.475 -1.03907 2.10334 0
M  V30 4158 C 402.491 -1.39257 1.04323 0
M  V30 4159 O 403.667 -1.48462 1.36091 0
M  V30 4160 C 400.732 -2.31938 2.57693 0
M  V30 4161 C 399.793 -2.03117 3.78209 0
M  V30 4162 C 399.026 -3.25043 4.233 0
M  V30 4163 O 399.249 -4.35916 3.67876 0
M  V30 4164 O 398.183 -3.10411 5.15683 0
M  V30 4165 H 402.009 -0.620748 2.97288 0
M  V30 4166 H 399.594 -0.240743 1.47448 0
M  V30 4167 H 401.476 -3.07196 2.88458 0
M  V30 4168 H 400.151 -2.73055 1.73847 0
M  V30 4169 H 399.058 -1.25408 3.52454 0
M  V30 4170 H 400.391 -1.66852 4.63056 0
M  V30 4171 N 402.043 -1.548 -0.295768 0
M  V30 4172 C 403.32 -1.65014 -1.05023 0
M  V30 4173 C 403.7 -0.501805 -2.05049 0
M  V30 4174 O 403.048 0.500869 -2.22943 0
M  V30 4175 C 403.258 -3.03252 -1.72741 0
M  V30 4176 C 404.606 -3.60242 -2.24746 0
M  V30 4177 O 405.63 -3.05737 -1.82765 0
M  V30 4178 O 404.489 -4.55687 -3.01681 0
M  V30 4179 H 401.583 -0.669314 -0.485744 0
M  V30 4180 H 404.129 -1.67144 -0.293438 0
M  V30 4181 H 402.901 -3.7827 -1.00138 0
M  V30 4182 H 402.524 -3.04922 -2.55163 0
M  V30 4183 N 403.521 0.559213 -1.47345 0
M  V30 4184 C 404.767 1.31614 -1.55079 0
M  V30 4185 C 405.122 1.91257 -0.209422 0
M  V30 4186 O 404.415 1.74796 0.784656 0
M  V30 4187 C 404.609 2.44853 -2.6035 0
M  V30 4188 C 404.438 1.96305 -4.04591 0
M  V30 4189 C 403.208 1.8024 -4.72061 0
M  V30 4190 C 405.406 1.50872 -4.91673 0
M  V30 4191 N 403.388 1.26011 -6.00828 0
M  V30 4192 C 404.759 1.08395 -6.10451 0
M  V30 4193 C 406.814 1.38905 -4.78132 0
M  V30 4194 C 405.517 0.551399 -7.17183 0
M  V30 4195 C 407.543 0.870518 -5.84958 0
M  V30 4196 C 406.905 0.455661 -7.02925 0
M  V30 4197 H 403.004 0.473712 -0.62219 0
M  V30 4198 H 405.588 0.634103 -1.84085 0
M  V30 4199 H 403.759 3.10589 -2.33215 0
M  V30 4200 H 405.491 3.11849 -2.57938 0
M  V30 4201 H 402.246 2.02895 -4.27937 0
M  V30 4202 H 402.67 1.00991 -6.69425 0
M  V30 4203 H 407.312 1.69591 -3.87297 0
M  V30 4204 H 405.03 0.232159 -8.07766 0
M  V30 4205 H 408.616 0.781507 -5.76527 0
M  V30 4206 H 407.496 0.0606414 -7.84177 0
M  V30 4207 N 404.999 1.35443 0.805782 0
M  V30 4208 C 405.947 1.28465 1.93906 0
M  V30 4209 C 406.941 0.17943 1.68447 0
M  V30 4210 O 408.147 0.345459 1.76654 0
M  V30 4211 H 404.522 0.399528 0.637088 0
M  V30 4212 H 406.493 2.24206 1.96912 0
M  V30 4213 C 405.242 1.07432 3.30687 0
M  V30 4214 H 404.565 1.91716 3.50835 0
M  V30 4215 H 406.005 1.06591 4.10383 0
M  V30 4216 C 404.464 -0.22179 3.36169 0
M  V30 4217 O 404.994 -1.21731 3.82811 0
M  V30 4218 N 403.2 -0.260841 2.89427 0
M  V30 4219 H 402.747 0.549884 2.51663 0
M  V30 4220 H 402.705 -1.12777 2.93477 0
M  V30 4221 N 406.477 -1.02803 1.19454 0
M  V30 4222 C 407.726 -1.7562 0.991996 0
M  V30 4223 C 408.039 -1.89672 -0.477901 0
M  V30 4224 O 409.245 -2.59468 -0.799287 0
M  V30 4225 C 407.701 -3.15812 1.72601 0
M  V30 4226 C 407.309 -3.0981 3.23607 0
M  V30 4227 C 409.053 -3.92918 1.60674 0
M  V30 4228 C 406.96 -4.44939 3.89594 0
M  V30 4229 H 405.89 -0.658352 0.367543 0
M  V30 4230 H 408.541 -1.15044 1.42959 0
M  V30 4231 H 406.923 -3.7686 1.21624 0
M  V30 4232 H 408.097 -2.58138 3.81709 0
M  V30 4233 H 406.412 -2.46201 3.35819 0
M  V30 4234 H 409.009 -4.9287 2.07323 0
M  V30 4235 H 409.352 -4.12502 0.561025 0
M  V30 4236 H 409.885 -3.38472 2.09001 0
M  V30 4237 H 406.624 -4.30559 4.94267 0
M  V30 4238 H 406.144 -4.96664 3.36281 0
M  V30 4239 H 407.823 -5.1382 3.93189 0
M  V30 4240 N 407.956 -0.998596 -1.21925 0
M  V30 4241 C 409.184 -0.696286 -1.94832 0
M  V30 4242 C 409.599 0.740032 -1.73692 0
M  V30 4243 O 408.956 1.5 -1.03953 0
M  V30 4244 C 409.007 -0.999833 -3.47398 0
M  V30 4245 O 408.728 -2.37972 -3.67833 0
M  V30 4246 C 410.229 -0.716025 -4.37479 0
M  V30 4247 H 407.449 -0.257111 -0.619786 0
M  V30 4248 H 409.993 -1.33491 -1.54921 0
M  V30 4249 H 408.148 -0.406918 -3.85257 0
M  V30 4250 H 408.562 -2.48338 -4.61983 0
M  V30 4251 H 410.036 -0.978642 -5.43256 0
M  V30 4252 H 410.513 0.349968 -4.37803 0
M  V30 4253 H 411.119 -1.29025 -4.05256 0
M  V30 4254 N 409.434 1.37368 -0.772513 0
M  V30 4255 C 410.711 1.93839 -0.26188 0
M  V30 4256 C 411.091 1.7061 1.24319 0
M  V30 4257 O 410.439 1.05534 2.02669 0
M  V30 4258 C 410.649 3.43154 -0.636102 0
M  V30 4259 C 411.997 4.20249 -0.606324 0
M  V30 4260 O 413.021 3.5152 -0.575538 0
M  V30 4261 O 411.88 5.42809 -0.634086 0
M  V30 4262 H 408.974 0.82478 -0.0605555 0
M  V30 4263 H 411.52 1.4665 -0.853917 0
M  V30 4264 H 410.292 3.53647 -1.6748 0
M  V30 4265 H 409.915 3.97596 -0.0170516 0
M  V30 4266 N 410.912 0.523116 1.48665 0
M  V30 4267 C 412.159 -0.0134763 2.02496 0
M  V30 4268 C 412.487 -1.3493 1.40086 0
M  V30 4269 O 411.742 -1.88286 0.533567 0
M  V30 4270 C 412.041 -0.191671 3.56886 0
M  V30 4271 C 411.707 1.06893 4.38046 0
M  V30 4272 C 410.369 1.41443 4.59943 0
M  V30 4273 C 412.721 1.90584 4.85106 0
M  V30 4274 C 410.049 2.59594 5.26144 0
M  V30 4275 C 412.401 3.07907 5.52609 0
M  V30 4276 C 411.065 3.42811 5.72745 0
M  V30 4277 H 410.335 -0.00493133 0.740984 0
M  V30 4278 H 412.982 0.687751 1.78724 0
M  V30 4279 H 411.287 -0.97561 3.79459 0
M  V30 4280 H 412.984 -0.621659 3.96152 0
M  V30 4281 H 409.574 0.789848 4.21259 0
M  V30 4282 H 413.758 1.65203 4.67997 0
M  V30 4283 H 409.014 2.86847 5.39934 0
M  V30 4284 H 413.188 3.73066 5.88043 0
M  V30 4285 H 410.815 4.34462 6.23816 0
M  V30 4286 N 412.39 -1.55475 0.257931 0
M  V30 4287 C 413.32 -2.24815 -0.630912 0
M  V30 4288 C 414.301 -1.23224 -1.17259 0
M  V30 4289 O 415.486 -1.51904 -1.20991 0
M  V30 4290 C 412.616 -2.95609 -1.82298 0
M  V30 4291 C 411.57 -4.03982 -1.41359 0
M  V30 4292 C 410.896 -4.6226 -2.68738 0
M  V30 4293 C 412.196 -5.19109 -0.57648 0
M  V30 4294 H 413.89 -2.99354 -0.0526878 0
M  V30 4295 H 411.436 -1.4398 -0.023901 0
M  V30 4296 H 413.389 -3.42822 -2.45054 0
M  V30 4297 H 412.113 -2.18577 -2.42676 0
M  V30 4298 H 410.772 -3.57555 -0.809324 0
M  V30 4299 H 410.42 -3.81915 -3.27338 0
M  V30 4300 H 410.12 -5.35424 -2.42065 0
M  V30 4301 H 411.644 -5.12212 -3.32372 0
M  V30 4302 H 413.058 -5.62479 -1.10861 0
M  V30 4303 H 411.455 -5.98729 -0.405351 0
M  V30 4304 H 412.525 -4.83174 0.408776 0
M  V30 4305 N 413.868 0.0150385 -1.57593 0
M  V30 4306 C 414.798 1.01047 -2.10503 0
M  V30 4307 C 415.779 1.36816 -1.01071 0
M  V30 4308 O 416.964 1.45455 -1.28672 0
M  V30 4309 C 414.094 2.30708 -2.59598 0
M  V30 4310 C 413.048 2.09142 -3.73421 0
M  V30 4311 C 412.374 3.44685 -4.08774 0
M  V30 4312 C 413.674 1.46619 -5.01298 0
M  V30 4313 H 415.368 0.569978 -2.93925 0
M  V30 4314 H 412.914 0.272724 -1.41394 0
M  V30 4315 H 414.867 3.00687 -2.95238 0
M  V30 4316 H 413.591 2.76843 -1.73279 0
M  V30 4317 H 412.25 1.41592 -3.38153 0
M  V30 4318 H 411.898 3.88495 -3.195 0
M  V30 4319 H 411.598 3.31077 -4.8545 0
M  V30 4320 H 413.122 4.16004 -4.4696 0
M  V30 4321 H 414.536 2.06535 -5.34805 0
M  V30 4322 H 412.933 1.43544 -5.82679 0
M  V30 4323 H 414.003 0.433611 -4.82957 0
M  V30 4324 N 415.346 1.54954 0.287554 0
M  V30 4325 C 416.276 1.89839 1.35954 0
M  V30 4326 C 417.257 0.758675 1.52244 0
M  V30 4327 O 418.442 1.01557 1.65529 0
M  V30 4328 C 415.572 2.15753 2.72154 0
M  V30 4329 C 414.526 3.3159 2.70614 0
M  V30 4330 C 413.852 3.42952 4.10229 0
M  V30 4331 C 415.152 4.68359 2.31165 0
M  V30 4332 H 416.846 2.79625 1.07007 0
M  V30 4333 H 414.392 1.3454 0.513316 0
M  V30 4334 H 416.345 2.38743 3.47246 0
M  V30 4335 H 415.069 1.22752 3.02654 0
M  V30 4336 H 413.728 3.08545 1.97979 0
M  V30 4337 H 413.376 2.47443 4.37928 0
M  V30 4338 H 413.076 4.20826 4.10097 0
M  V30 4339 H 414.6 3.68218 4.87081 0
M  V30 4340 H 416.014 4.9099 2.95976 0
M  V30 4341 H 414.411 5.49044 2.42221 0
M  V30 4342 H 415.481 4.68165 1.26291 0
M  V30 4343 N 416.824 -0.551391 1.4764 0
M  V30 4344 C 418.052 -1.33357 1.58189 0
M  V30 4345 C 418.467 -1.87342 0.234199 0
M  V30 4346 O 417.824 -1.65301 -0.77343 0
M  V30 4347 C 417.875 -2.49942 2.61173 0
M  V30 4348 O 417.596 -1.98187 3.90709 0
M  V30 4349 C 419.097 -3.42072 2.8196 0
M  V30 4350 H 416.317 -0.40631 0.533998 0
M  V30 4351 H 418.861 -0.667367 1.93304 0
M  V30 4352 H 417.016 -3.12489 2.28975 0
M  V30 4353 H 417.43 -2.74342 4.47031 0
M  V30 4354 H 418.904 -4.20278 3.57869 0
M  V30 4355 H 419.381 -3.95978 1.89995 0
M  V30 4356 H 419.987 -2.85336 3.15378 0
M  V30 4357 N 418.302 -1.35869 -0.798587 0
M  V30 4358 C 419.234 -1.25305 -1.91915 0
M  V30 4359 C 420.247 -0.174548 -1.61862 0
M  V30 4360 O 421.436 -0.428499 -1.73281 0
M  V30 4361 C 418.536 -0.9086 -3.26493 0
M  V30 4362 C 417.709 -2.08711 -3.84394 0
M  V30 4363 C 416.768 -1.71717 -4.97393 0
M  V30 4364 O 415.794 -2.43692 -5.14396 0
M  V30 4365 N 416.996 -0.645473 -5.769 0
M  V30 4366 H 419.761 -2.21849 -2.01502 0
M  V30 4367 H 417.322 -1.29143 -0.976408 0
M  V30 4368 H 419.314 -0.642455 -3.99568 0
M  V30 4369 H 417.884 -0.0325815 -3.12583 0
M  V30 4370 H 417.104 -2.51659 -3.03416 0
M  V30 4371 H 418.392 -2.87468 -4.19809 0
M  V30 4372 H 417.79 -0.047648 -5.6568 0
M  V30 4373 H 416.347 -0.43913 -6.50319 0
M  V30 4374 N 419.78 1.02168 -1.19998 0
M  V30 4375 C 420.728 2.12717 -0.940967 0
M  V30 4376 C 421.722 1.69069 0.105841 0
M  V30 4377 O 422.928 1.79946 -0.0440583 0
M  V30 4378 H 419.303 0.695108 -0.28693 0
M  V30 4379 H 421.274 2.3175 -1.87975 0
M  V30 4380 C 420.023 3.44027 -0.504049 0
M  V30 4381 H 419.346 3.78036 -1.30112 0
M  V30 4382 H 420.786 4.22452 -0.361991 0
M  V30 4383 C 419.245 3.27678 0.782878 0
M  V30 4384 O 419.775 3.56949 1.84256 0
M  V30 4385 N 417.981 2.80943 0.742921 0
M  V30 4386 H 417.528 2.57322 -0.119687 0
M  V30 4387 H 417.486 2.70385 1.60435 0
M  V30 4388 N 421.258 1.00505 1.21394 0
M  V30 4389 C 422.206 0.558623 2.25792 0
M  V30 4390 C 423.2 -0.396848 1.64686 0
M  V30 4391 O 424.406 -0.268035 1.77993 0
M  V30 4392 H 420.781 0.1623 0.734277 0
M  V30 4393 H 422.752 1.4503 2.60785 0
M  V30 4394 C 421.501 -0.0989574 3.47559 0
M  V30 4395 H 420.824 0.627225 3.94849 0
M  V30 4396 H 422.264 -0.3746 4.22342 0
M  V30 4397 C 420.723 -1.33817 3.09184 0
M  V30 4398 O 421.253 -2.43252 3.19674 0
M  V30 4399 N 419.459 -1.21793 2.63846 0
M  V30 4400 H 419.006 -0.32746 2.5551 0
M  V30 4401 H 418.964 -2.04809 2.38539 0
M  V30 4402 N 422.737 -1.36956 0.779787 0
M  V30 4403 C 423.962 -2.04283 0.358224 0
M  V30 4404 C 424.387 -1.58422 -1.01411 0
M  V30 4405 O 423.745 -0.748179 -1.65142 0
M  V30 4406 C 423.793 -3.58152 0.419479 0
M  V30 4407 O 422.897 -4.08342 -0.577142 0
M  V30 4408 H 422.238 -0.645967 0.153698 0
M  V30 4409 H 424.768 -1.75108 1.05822 0
M  V30 4410 H 424.778 -4.07041 0.279636 0
M  V30 4411 H 423.453 -3.90886 1.42061 0
M  V30 4412 H 422.03 -3.70751 -0.399755 0
M  V30 4413 N 424.215 -0.530993 -1.48385 0
M  V30 4414 C 425.162 0.231223 -2.29639 0
M  V30 4415 C 426.132 0.932864 -1.37429 0
M  V30 4416 O 427.317 0.933692 -1.66394 0
M  V30 4417 C 424.457 1.27155 -3.2082 0
M  V30 4418 C 423.57 0.578655 -4.28107 0
M  V30 4419 C 422.705 1.602 -5.06467 0
M  V30 4420 C 421.744 0.892625 -6.05556 0
M  V30 4421 N 420.881 1.86157 -6.76971 0
M  V30 4422 H 425.721 -0.467848 -2.94305 0
M  V30 4423 H 423.258 -0.242556 -1.45086 0
M  V30 4424 H 425.216 1.88703 -3.72085 0
M  V30 4425 H 423.846 1.939 -2.58075 0
M  V30 4426 H 422.898 -0.150782 -3.80101 0
M  V30 4427 H 424.21 0.0217065 -4.98795 0
M  V30 4428 H 423.364 2.29173 -5.61751 0
M  V30 4429 H 422.103 2.19285 -4.35621 0
M  V30 4430 H 421.108 0.188829 -5.49476 0
M  V30 4431 H 422.333 0.307878 -6.78402 0
M  V30 4432 H 420.279 2.44147 -6.08875 0
M  V30 4433 H 420.196 1.35608 -7.43738 0
M  V30 4434 H 421.464 2.54325 -7.36844 0
M  V30 4435 N 425.693 1.55336 -0.266172 0
M  V30 4436 C 426.94 1.99397 0.353158 0
M  V30 4437 C 427.268 1.15451 1.56529 0
M  V30 4438 O 426.523 0.209974 1.9457 0
M  V30 4439 C 426.822 3.48606 0.787957 0
M  V30 4440 C 426.488 4.49773 -0.318541 0
M  V30 4441 C 425.15 4.77158 -0.62239 0
M  V30 4442 C 427.502 5.10212 -1.06459 0
M  V30 4443 C 424.83 5.62251 -1.67602 0
M  V30 4444 C 427.182 5.96449 -2.10788 0
M  V30 4445 C 425.846 6.22158 -2.41817 0
M  V30 4446 H 425.116 0.729644 0.12923 0
M  V30 4447 H 427.763 1.87732 -0.37802 0
M  V30 4448 H 426.068 3.57701 1.59866 0
M  V30 4449 H 427.765 3.80098 1.27775 0
M  V30 4450 H 424.355 4.2854 -0.0715925 0
M  V30 4451 H 428.539 4.89086 -0.843098 0
M  V30 4452 H 423.795 5.80419 -1.92155 0
M  V30 4453 H 427.969 6.42317 -2.69076 0
M  V30 4454 H 425.596 6.87888 -3.23596 0
M  V30 4455 N 427.171 -0.0066808 1.57599 0
M  V30 4456 C 428.121 -1.0086 2.04478 0
M  V30 4457 C 429.105 -1.30714 0.938231 0
M  V30 4458 O 430.297 -1.29924 1.20203 0
M  V30 4459 C 427.426 -2.30273 2.54615 0
M  V30 4460 C 426.512 -2.03413 3.72134 0
M  V30 4461 N 426.903 -1.46688 4.84062 0
M  V30 4462 C 425.201 -2.33589 3.79937 0
M  V30 4463 C 425.902 -1.36146 5.65543 0
M  V30 4464 N 424.878 -1.84477 5.1134 0
M  V30 4465 H 428.68 -0.564402 2.8843 0
M  V30 4466 H 426.194 -0.212521 1.61003 0
M  V30 4467 H 428.191 -3.02885 2.86472 0
M  V30 4468 H 426.851 -2.75352 1.72079 0
M  V30 4469 H 427.862 -1.14658 5.05049 0
M  V30 4470 H 424.539 -2.81589 3.08243 0
M  V30 4471 H 425.929 -0.925873 6.6549 0
M  V30 4472 N 428.649 -1.55105 -0.279332 0
M  V30 4473 C 429.579 -1.90557 -1.34945 0
M  V30 4474 C 430.56 -0.766738 -1.51839 0
M  V30 4475 O 431.745 -1.02434 -1.64988 0
M  V30 4476 C 428.875 -2.17193 -2.71006 0
M  V30 4477 C 427.829 -3.33021 -2.68851 0
M  V30 4478 C 427.155 -3.45123 -4.08405 0
M  V30 4479 C 428.455 -4.69578 -2.28678 0
M  V30 4480 H 430.149 -2.80188 -1.05522 0
M  V30 4481 H 427.695 -1.34811 -0.506173 0
M  V30 4482 H 429.648 -2.40581 -3.45975 0
M  V30 4483 H 428.372 -1.24355 -3.01999 0
M  V30 4484 H 427.031 -3.0959 -1.9634 0
M  V30 4485 H 426.679 -2.49762 -4.3661 0
M  V30 4486 H 426.379 -4.22995 -4.07859 0
M  V30 4487 H 427.903 -3.70796 -4.85121 0
M  V30 4488 H 429.317 -4.92553 -2.93368 0
M  V30 4489 H 427.714 -5.5032 -2.39306 0
M  V30 4490 H 428.784 -4.68828 -1.23807 0
M  V30 4491 N 430.127 0.543554 -1.4793 0
M  V30 4492 C 431.375 1.29752 -1.54948 0
M  V30 4493 C 431.696 1.93764 -0.219242 0
M  V30 4494 O 430.966 1.80639 0.75805 0
M  V30 4495 H 429.546 0.481874 -0.570795 0
M  V30 4496 H 432.208 0.633636 -1.84312 0
M  V30 4497 H 431.304 2.08392 -2.32334 0
M  V30 4498 N 431.605 1.3629 0.791371 0
M  V30 4499 C 432.83 1.33726 1.58531 0
M  V30 4500 C 433.255 -0.0794933 1.87932 0
M  V30 4501 O 432.613 -1.05087 1.47738 0
M  V30 4502 C 432.661 2.16425 2.88431 0
M  V30 4503 O 431.765 1.5554 3.81944 0
M  V30 4504 H 431.106 0.457793 0.480959 0
M  V30 4505 H 433.636 1.79547 0.981031 0
M  V30 4506 H 433.646 2.28933 3.37718 0
M  V30 4507 H 432.321 3.19415 2.66359 0
M  V30 4508 H 430.898 1.51961 3.40532 0
M  V30 4509 N 433.083 -1.0153 1.20538 0
M  V30 4510 C 434.332 -1.74558 1.01057 0
M  V30 4511 C 434.645 -1.90168 -0.457756 0
M  V30 4512 O 435.851 -2.60301 -0.771722 0
M  V30 4513 C 434.307 -3.13963 1.75941 0
M  V30 4514 C 433.915 -3.06361 3.26875 0
M  V30 4515 C 435.659 -3.91191 1.64832 0
M  V30 4516 C 433.566 -4.40782 3.94291 0
M  V30 4517 H 432.496 -0.654417 0.374505 0
M  V30 4518 H 435.147 -1.13521 1.44171 0
M  V30 4519 H 433.529 -3.75549 1.25614 0
M  V30 4520 H 434.703 -2.54074 3.84425 0
M  V30 4521 H 433.018 -2.42625 3.38411 0
M  V30 4522 H 435.615 -4.90644 2.12539 0
M  V30 4523 H 435.958 -4.11884 0.604745 0
M  V30 4524 H 436.491 -3.36236 2.12579 0
M  V30 4525 H 433.23 -4.25292 4.98805 0
M  V30 4526 H 432.75 -4.9307 3.41529 0
M  V30 4527 H 434.429 -5.09621 3.98617 0
M  V30 4528 N 434.561 -1.01147 -1.20859 0
M  V30 4529 C 435.81 -0.693214 -1.89413 0
M  V30 4530 C 436.123 0.779969 -1.79376 0
M  V30 4531 O 437.329 1.21057 -2.43017 0
M  V30 4532 C 435.785 -1.18949 -3.39675 0
M  V30 4533 C 435.393 -2.68921 -3.58309 0
M  V30 4534 C 437.137 -0.94642 -4.13815 0
M  V30 4535 C 435.044 -3.12056 -5.0237 0
M  V30 4536 H 433.974 -0.255595 -0.709357 0
M  V30 4537 H 436.625 -1.22349 -1.36759 0
M  V30 4538 H 435.007 -0.587228 -3.91622 0
M  V30 4539 H 436.181 -3.34652 -3.16772 0
M  V30 4540 H 434.496 -2.91314 -2.97532 0
M  V30 4541 H 437.093 -1.24417 -5.20023 0
M  V30 4542 H 437.436 0.117219 -4.16135 0
M  V30 4543 H 437.969 -1.5118 -3.67953 0
M  V30 4544 H 434.708 -4.17674 -5.05202 0
M  V30 4545 H 434.228 -2.51041 -5.44737 0
M  V30 4546 H 435.907 -3.04403 -5.70918 0
M  V30 4547 N 436.039 1.36541 -0.78704 0
M  V30 4548 C 436.987 2.31965 -0.171724 0
M  V30 4549 C 437.981 1.55689 0.667631 0
M  V30 4550 O 439.187 1.70969 0.562981 0
M  V30 4551 H 435.562 0.751101 -0.0367545 0
M  V30 4552 H 437.533 2.81428 -0.992017 0
M  V30 4553 C 436.282 3.40968 0.680904 0
M  V30 4554 H 435.605 3.99775 0.0443961 0
M  V30 4555 H 437.045 4.10063 1.07815 0
M  V30 4556 C 435.504 2.82338 1.83813 0
M  V30 4557 O 436.034 2.74311 2.93456 0
M  V30 4558 N 434.24 2.39661 1.6435 0
M  V30 4559 H 433.787 2.46389 0.751668 0
M  V30 4560 H 433.745 2.00779 2.4194 0
M  V30 4561 N 437.518 0.538854 1.48102 0
M  V30 4562 C 438.767 0.0059532 2.01699 0
M  V30 4563 C 439.08 -1.34476 1.42041 0
M  V30 4564 O 440.286 -1.96653 1.87189 0
M  V30 4565 C 438.742 -0.0397627 3.59878 0
M  V30 4566 C 438.35 1.30659 4.28523 0
M  V30 4567 C 440.094 -0.521024 4.2129 0
M  V30 4568 C 438.001 1.22098 5.78659 0
M  V30 4569 H 436.931 -0.00154456 0.753998 0
M  V30 4570 H 439.582 0.683963 1.70277 0
M  V30 4571 H 437.964 -0.783037 3.88181 0
M  V30 4572 H 439.138 2.06613 4.11883 0
M  V30 4573 H 437.453 1.7243 3.79021 0
M  V30 4574 H 440.05 -0.603184 5.31287 0
M  V30 4575 H 440.393 -1.52885 3.8721 0
M  V30 4576 H 440.926 0.166834 3.9745 0
M  V30 4577 H 437.665 2.20424 6.17328 0
M  V30 4578 H 437.185 0.50295 5.97688 0
M  V30 4579 H 438.864 0.915345 6.40492 0
M  V30 4580 N 438.996 -1.55193 0.274407 0
M  V30 4581 C 440.224 -2.03987 -0.345943 0
M  V30 4582 C 440.639 -1.15279 -1.4952 0
M  V30 4583 O 439.996 -0.172759 -1.8168 0
M  V30 4584 C 440.047 -3.51898 -0.827631 0
M  V30 4585 O 439.768 -4.37231 0.275855 0
M  V30 4586 C 441.269 -4.16577 -1.51587 0
M  V30 4587 H 438.489 -0.666335 -0.0789892 0
M  V30 4588 H 441.033 -2.00423 0.406294 0
M  V30 4589 H 439.188 -3.55909 -1.52996 0
M  V30 4590 H 439.602 -5.24415 -0.0943638 0
M  V30 4591 H 441.076 -5.21678 -1.80433 0
M  V30 4592 H 441.553 -3.64707 -2.44716 0
M  V30 4593 H 442.159 -4.16568 -0.857409 0
M  V30 4594 N 440.474 -0.00167713 -1.576 0
M  V30 4595 C 441.437 0.974046 -2.07473 0
M  V30 4596 C 442.437 1.27143 -0.984444 0
M  V30 4597 O 443.627 1.21633 -1.24703 0
M  V30 4598 C 440.759 2.29849 -2.51759 0
M  V30 4599 H 441.952 0.54262 -2.9495 0
M  V30 4600 H 439.505 0.245829 -1.54355 0
M  V30 4601 H 440.24 2.77677 -1.67529 0
M  V30 4602 H 440.025 2.09584 -3.31386 0
M  V30 4603 H 441.515 2.9984 -2.90664 0
M  V30 4604 N 441.952 1.55251 0.271103 0
M  V30 4605 C 442.9 1.89054 1.35504 0
M  V30 4606 C 443.894 0.767064 1.51038 0
M  V30 4607 O 445.1 0.951429 1.528 0
M  V30 4608 H 441.475 0.600072 0.45323 0
M  V30 4609 H 443.446 2.79598 1.04247 0
M  V30 4610 C 442.195 2.18068 2.70817 0
M  V30 4611 H 441.518 3.04005 2.59656 0
M  V30 4612 H 442.958 2.4564 3.45597 0
M  V30 4613 C 441.417 0.988901 3.2206 0
M  V30 4614 O 441.947 0.224501 4.01072 0
M  V30 4615 N 440.153 0.786085 2.79766 0
M  V30 4616 H 439.7 1.40937 2.15626 0
M  V30 4617 H 439.658 -0.00969349 3.14399 0
M  V30 4618 N 443.43 -0.535701 1.48216 0
M  V30 4619 C 444.36 -1.65014 1.65204 0
M  V30 4620 C 445.341 -1.62554 0.501011 0
M  V30 4621 O 446.526 -1.7984 0.732886 0
M  V30 4622 C 443.656 -3.03616 1.68626 0
M  V30 4623 C 442.61 -3.20932 2.83172 0
M  V30 4624 C 441.936 -4.60537 2.71679 0
M  V30 4625 C 443.236 -3.04249 4.24535 0
M  V30 4626 H 444.93 -1.51053 2.58502 0
M  V30 4627 H 442.476 -0.725262 1.24402 0
M  V30 4628 H 444.429 -3.81446 1.79099 0
M  V30 4629 H 443.153 -3.18587 0.719026 0
M  V30 4630 H 441.812 -2.45517 2.72244 0
M  V30 4631 H 441.46 -4.72336 1.72937 0
M  V30 4632 H 441.16 -4.73069 3.48538 0
M  V30 4633 H 442.684 -5.40475 2.84112 0
M  V30 4634 H 444.098 -3.71877 4.36326 0
M  V30 4635 H 442.495 -3.28278 5.02348 0
M  V30 4636 H 443.565 -2.00739 4.41397 0
M  V30 4637 N 444.908 -1.36708 -0.784132 0
M  V30 4638 C 446.319 -1.27947 -1.35965 0
M  V30 4639 C 446.67 0.0784013 -1.96043 0
M  V30 4640 O 445.795 0.979989 -1.92938 0
M  V30 4641 C 446.39 -2.31689 -2.47195 0
M  V30 4642 C 444.949 -2.26601 -3.00548 0
M  V30 4643 C 444.096 -2.16184 -1.73666 0
M  V30 4644 H 447.047 -1.4751 -0.585358 0
M  V30 4645 H 447.068 -1.95638 -3.26352 0
M  V30 4646 H 446.58 -3.30506 -2.03439 0
M  V30 4647 H 444.681 -1.31268 -3.48711 0
M  V30 4648 H 444.794 -3.19508 -3.57004 0
M  V30 4649 H 443.158 -1.62524 -1.96107 0
M  V30 4650 H 443.941 -3.16896 -1.32031 0
M  V30 4651 N 446.386 1.0089 -1.21074 0
M  V30 4652 C 447.611 1.78727 -1.05221 0
M  V30 4653 C 448.036 1.83932 0.393795 0
M  V30 4654 O 447.394 1.28004 1.28393 0
M  V30 4655 C 447.442 3.20665 -1.64944 0
M  V30 4656 O 446.546 4.02632 -0.892273 0
M  V30 4657 H 445.887 0.550973 -0.370574 0
M  V30 4658 H 448.417 1.26847 -1.60534 0
M  V30 4659 H 448.427 3.71352 -1.69002 0
M  V30 4660 H 447.102 3.16191 -2.70177 0
M  V30 4661 H 445.679 3.61207 -0.926492 0
M  V30 4662 N 447.864 1.01787 1.20321 0
M  V30 4663 C 449.092 0.727194 1.937 0
M  V30 4664 C 449.507 -0.712305 1.74848 0
M  V30 4665 O 448.864 -1.48327 1.06327 0
M  V30 4666 C 448.915 1.05497 3.45764 0
M  V30 4667 O 448.636 2.43794 3.64 0
M  V30 4668 C 450.137 0.785534 4.36285 0
M  V30 4669 H 447.357 0.266939 0.615617 0
M  V30 4670 H 449.901 1.35939 1.52777 0
M  V30 4671 H 448.056 0.468158 3.84561 0
M  V30 4672 H 448.47 2.55656 4.57974 0
M  V30 4673 H 449.944 1.06495 5.4163 0
M  V30 4674 H 450.421 -0.280273 4.38305 0
M  V30 4675 H 451.027 1.35456 4.03152 0
M  V30 4676 N 449.342 -1.36122 0.79427 0
M  V30 4677 C 450.274 -2.28683 0.153903 0
M  V30 4678 C 451.287 -1.49707 -0.639669 0
M  V30 4679 O 452.476 -1.7209 -0.474054 0
M  V30 4680 C 449.576 -3.29202 -0.804921 0
M  V30 4681 C 448.749 -4.37358 -0.060366 0
M  V30 4682 C 447.808 -5.17811 -0.935849 0
M  V30 4683 O 446.834 -5.67853 -0.391309 0
M  V30 4684 N 448.036 -5.34721 -2.25951 0
M  V30 4685 H 450.801 -2.84278 0.949008 0
M  V30 4686 H 448.362 -1.4834 0.648611 0
M  V30 4687 H 450.354 -3.79914 -1.39455 0
M  V30 4688 H 448.924 -2.74212 -1.50088 0
M  V30 4689 H 448.144 -3.87746 0.710382 0
M  V30 4690 H 449.432 -5.06777 0.45324 0
M  V30 4691 H 448.83 -4.95687 -2.72601 0
M  V30 4692 H 447.387 -5.88657 -2.79867 0
M  V30 4693 N 450.82 -0.546701 -1.47814 0
M  V30 4694 C 452.097 0.0464413 -1.95545 0
M  V30 4695 C 452.477 1.4962 -1.48919 0
M  V30 4696 O 451.825 2.16752 -0.723232 0
M  V30 4697 C 452.035 -0.0881298 -3.48889 0
M  V30 4698 C 453.383 0.0626059 -4.24554 0
M  V30 4699 O 454.407 -0.0151555 -3.56197 0
M  V30 4700 O 453.266 0.228071 -5.46024 0
M  V30 4701 H 450.36 0.0700004 -0.824032 0
M  V30 4702 H 452.906 -0.612482 -1.58262 0
M  V30 4703 H 451.678 -1.09737 -3.75597 0
M  V30 4704 H 451.301 0.608886 -3.9291 0
M  V30 4705 N 452.299 1.55045 -0.282633 0
M  V30 4706 C 453.229 2.2579 0.595066 0
M  V30 4707 C 454.21 1.25074 1.15284 0
M  V30 4708 O 455.395 1.5381 1.18559 0
M  V30 4709 C 452.525 2.98472 1.77572 0
M  V30 4710 C 451.479 4.0618 1.34914 0
M  V30 4711 C 450.805 4.66477 2.6135 0
M  V30 4712 C 452.105 5.1996 0.493821 0
M  V30 4713 H 453.799 2.994 0.00505653 0
M  V30 4714 H 451.345 1.44 0.000992001 0
M  V30 4715 H 453.298 3.46677 2.39568 0
M  V30 4716 H 452.022 2.2241 2.39168 0
M  V30 4717 H 450.681 3.58797 0.752338 0
M  V30 4718 H 450.329 3.87074 3.2122 0
M  V30 4719 H 450.029 5.39207 2.33516 0
M  V30 4720 H 451.553 5.17435 3.24181 0
M  V30 4721 H 452.967 5.64172 1.01898 0
M  V30 4722 H 451.364 5.99299 0.310047 0
M  V30 4723 H 452.434 4.82462 -0.485593 0
M  V30 4724 N 453.777 0.010035 1.57597 0
M  V30 4725 C 454.707 -0.976857 2.12084 0
M  V30 4726 C 455.688 -1.35191 1.03235 0
M  V30 4727 O 456.873 -1.43389 1.3097 0
M  V30 4728 C 454.003 -2.26548 2.63236 0
M  V30 4729 C 452.957 -2.03175 3.76701 0
M  V30 4730 C 452.283 -3.38138 4.14206 0
M  V30 4731 C 453.583 -1.38625 5.03568 0
M  V30 4732 H 455.277 -0.523145 2.94794 0
M  V30 4733 H 452.823 -0.250195 1.4181 0
M  V30 4734 H 454.776 -2.95952 2.99984 0
M  V30 4735 H 453.5 -2.74051 1.77661 0
M  V30 4736 H 452.159 -1.36195 3.40362 0
M  V30 4737 H 451.807 -3.83363 3.25641 0
M  V30 4738 H 451.507 -3.23312 4.90656 0
M  V30 4739 H 453.031 -4.08841 4.53521 0
M  V30 4740 H 454.445 -1.98 5.38023 0
M  V30 4741 H 452.842 -1.34256 5.84889 0
M  V30 4742 H 453.912 -0.356722 4.83586 0
M  V30 4743 N 455.255 -1.55392 -0.262866 0
M  V30 4744 C 456.48 -1.80847 -1.01533 0
M  V30 4745 C 456.905 -0.584946 -1.78774 0
M  V30 4746 O 456.263 0.465701 -1.75217 0
M  V30 4747 C 456.311 -3.03866 -1.94159 0
M  V30 4748 O 455.415 -2.79662 -3.03089 0
M  V30 4749 H 454.756 -0.597441 -0.289759 0
M  V30 4750 H 457.286 -2.02553 -0.288698 0
M  V30 4751 H 457.296 -3.32872 -2.35924 0
M  V30 4752 H 455.971 -3.92564 -1.37354 0
M  V30 4753 H 454.548 -2.61781 -2.65566 0
M  V30 4754 N 456.733 0.527833 -1.48498 0
M  V30 4755 C 457.98 1.28354 -1.56625 0
M  V30 4756 C 458.308 1.93 -0.241096 0
M  V30 4757 O 457.563 1.79967 0.768798 0
M  V30 4758 C 457.862 2.39275 -2.65485 0
M  V30 4759 C 457.528 1.92268 -4.07853 0
M  V30 4760 C 456.19 1.79166 -4.46602 0
M  V30 4761 C 458.542 1.56771 -4.97064 0
M  V30 4762 C 455.87 1.28905 -5.72364 0
M  V30 4763 C 458.222 1.07972 -6.23318 0
M  V30 4764 C 456.886 0.934887 -6.60921 0
M  V30 4765 H 456.156 0.469682 -0.573131 0
M  V30 4766 H 458.803 0.588781 -1.82224 0
M  V30 4767 H 457.108 3.1443 -2.33754 0
M  V30 4768 H 458.805 2.974 -2.68988 0
M  V30 4769 H 455.395 2.03417 -3.77252 0
M  V30 4770 H 459.579 1.65753 -4.67803 0
M  V30 4771 H 454.835 1.16381 -6.00221 0
M  V30 4772 H 459.009 0.795775 -6.91838 0
M  V30 4773 H 456.636 0.543231 -7.58257 0
M  V30 4774 N 458.211 1.37122 0.776871 0
M  V30 4775 C 459.141 1.35164 1.90402 0
M  V30 4776 C 460.122 0.221069 1.68657 0
M  V30 4777 O 461.307 0.420642 1.8959 0
M  V30 4778 C 458.437 1.15274 3.27611 0
M  V30 4779 C 457.391 2.25289 3.63908 0
M  V30 4780 C 456.717 1.90527 4.99603 0
M  V30 4781 C 458.017 3.67446 3.71188 0
M  V30 4782 H 459.711 2.29482 1.92297 0
M  V30 4783 H 457.257 1.10465 0.923773 0
M  V30 4784 H 459.21 1.12536 4.06096 0
M  V30 4785 H 457.934 0.174102 3.26136 0
M  V30 4786 H 456.593 2.27174 2.87728 0
M  V30 4787 H 456.241 0.91206 4.94662 0
M  V30 4788 H 455.941 2.64193 5.24858 0
M  V30 4789 H 457.465 1.89367 5.80493 0
M  V30 4790 H 458.879 3.67719 4.39836 0
M  V30 4791 H 457.276 4.40123 4.07936 0
M  V30 4792 H 458.346 4.01443 2.71977 0
M  V30 4793 N 459.689 -1.00246 1.21608 0
M  V30 4794 C 460.621 -2.09244 0.935401 0
M  V30 4795 C 461.634 -1.62592 -0.0823594 0
M  V30 4796 O 462.823 -1.77865 0.150456 0
M  V30 4797 C 459.923 -3.36724 0.383453 0
M  V30 4798 C 459.096 -4.1245 1.45615 0
M  V30 4799 C 458.155 -5.18219 0.912991 0
M  V30 4800 O 457.181 -5.46337 1.59701 0
M  V30 4801 N 458.383 -5.7987 -0.270478 0
M  V30 4802 H 461.148 -2.33905 1.87373 0
M  V30 4803 H 458.709 -1.16748 1.12167 0
M  V30 4804 H 460.701 -4.047 0.00562157 0
M  V30 4805 H 459.271 -3.09201 -0.459758 0
M  V30 4806 H 458.491 -3.39241 2.00772 0
M  V30 4807 H 459.779 -4.59819 2.17817 0
M  V30 4808 H 459.177 -5.59381 -0.843195 0
M  V30 4809 H 457.734 -6.49126 -0.589794 0
M  V30 4810 N 461.167 -1.02423 -1.1978 0
M  V30 4811 C 462.416 -0.713265 -1.88667 0
M  V30 4812 C 462.729 0.7609 -1.80193 0
M  V30 4813 O 463.935 1.18473 -2.44288 0
M  V30 4814 C 462.391 -1.22545 -3.38394 0
M  V30 4815 C 461.999 -2.72706 -3.55437 0
M  V30 4816 C 463.743 -0.990257 -4.12788 0
M  V30 4817 C 461.65 -3.17367 -4.99031 0
M  V30 4818 H 460.58 -0.263105 -0.706606 0
M  V30 4819 H 463.231 -1.23792 -1.35454 0
M  V30 4820 H 461.613 -0.628732 -3.90977 0
M  V30 4821 H 462.787 -3.37993 -3.13205 0
M  V30 4822 H 461.102 -2.94453 -2.94425 0
M  V30 4823 H 463.699 -1.29926 -5.18675 0
M  V30 4824 H 464.042 0.0730761 -4.16236 0
M  V30 4825 H 464.575 -1.55074 -3.66329 0
M  V30 4826 H 461.314 -4.23009 -5.00743 0
M  V30 4827 H 460.834 -2.56805 -5.42044 0
M  V30 4828 H 462.513 -3.10441 -5.67658 0
M  V30 4829 N 462.645 1.35699 -0.801477 0
M  V30 4830 C 463.577 2.28598 -0.166028 0
M  V30 4831 C 464.59 1.50044 0.631721 0
M  V30 4832 O 465.779 1.72339 0.464921 0
M  V30 4833 C 462.879 3.29625 0.787451 0
M  V30 4834 C 462.052 4.37384 0.037171 0
M  V30 4835 C 461.111 5.183 0.908375 0
M  V30 4836 O 460.137 5.68053 0.361189 0
M  V30 4837 N 461.339 5.35912 2.23112 0
M  V30 4838 H 464.104 2.83771 -0.964071 0
M  V30 4839 H 461.665 1.47994 -0.656469 0
M  V30 4840 H 463.657 3.80648 1.37439 0
M  V30 4841 H 462.227 2.75004 1.48632 0
M  V30 4842 H 461.447 3.87364 -0.730935 0
M  V30 4843 H 462.735 5.0653 -0.480109 0
M  V30 4844 H 462.133 4.97125 2.69968 0
M  V30 4845 H 460.69 5.90133 2.76741 0
M  V30 4846 N 464.123 0.554532 1.47522 0
M  V30 4847 C 465.053 -0.182974 2.32782 0
M  V30 4848 C 466.034 -0.911377 1.43624 0
M  V30 4849 O 467.219 -0.892366 1.72483 0
M  V30 4850 C 464.349 -1.21513 3.25349 0
M  V30 4851 C 463.303 -0.603355 4.23726 0
M  V30 4852 C 462.629 -1.73995 5.05598 0
M  V30 4853 C 463.929 0.441121 5.20434 0
M  V30 4854 H 465.623 0.52882 2.94693 0
M  V30 4855 H 463.169 0.255759 1.41711 0
M  V30 4856 H 465.122 -1.73922 3.83835 0
M  V30 4857 H 463.846 -1.95683 2.61487 0
M  V30 4858 H 462.505 -0.10059 3.66462 0
M  V30 4859 H 462.153 -2.47063 4.38143 0
M  V30 4860 H 461.853 -1.3364 5.72201 0
M  V30 4861 H 463.377 -2.26735 5.66942 0
M  V30 4862 H 464.791 0.00319931 5.733 0
M  V30 4863 H 463.188 0.763402 5.95224 0
M  V30 4864 H 464.258 1.33799 4.66075 0
M  V30 4865 N 465.601 -1.54893 0.290851 0
M  V30 4866 C 466.511 -2.26812 -0.59945 0
M  V30 4867 C 467.527 -1.29963 -1.15696 0
M  V30 4868 O 468.703 -1.62928 -1.18391 0
M  V30 4869 C 465.768 -2.98716 -1.75982 0
M  V30 4870 C 464.829 -4.1108 -1.2374 0
M  V30 4871 C 464.062 -4.79546 -2.34246 0
M  V30 4872 O 464.285 -4.47309 -3.53936 0
M  V30 4873 O 463.219 -5.67165 -2.01512 0
M  V30 4874 H 467.045 -3.03696 -0.0163561 0
M  V30 4875 H 464.63 -1.49289 0.0576755 0
M  V30 4876 H 466.512 -3.43851 -2.43607 0
M  V30 4877 H 465.187 -2.24737 -2.3297 0
M  V30 4878 H 464.094 -3.70367 -0.527163 0
M  V30 4879 H 465.427 -4.87007 -0.71307 0
M  V30 4880 N 467.08 -0.0183926 -1.57589 0
M  V30 4881 C 468.305 0.676634 -1.96052 0
M  V30 4882 C 468.73 1.6548 -0.894307 0
M  V30 4883 O 468.088 1.80712 0.145849 0
M  V30 4884 C 468.136 1.36872 -3.33614 0
M  V30 4885 O 467.24 2.48372 -3.29219 0
M  V30 4886 H 466.581 0.1786 -0.63953 0
M  V30 4887 H 469.111 -0.077056 -2.04455 0
M  V30 4888 H 469.121 1.72797 -3.69601 0
M  V30 4889 H 467.796 0.651636 -4.10763 0
M  V30 4890 H 466.373 2.14639 -3.04934 0
M  V30 4891 N 468.558 1.5553 0.254621 0
M  V30 4892 C 469.807 1.76202 0.981612 0
M  V30 4893 C 470.12 0.580883 1.86776 0
M  V30 4894 O 471.326 0.670448 2.63092 0
M  V30 4895 C 469.782 3.11921 1.79537 0
M  V30 4896 C 469.39 4.37659 0.956991 0
M  V30 4897 C 471.134 3.41936 2.51555 0
M  V30 4898 C 469.041 5.64411 1.76619 0
M  V30 4899 H 467.971 0.656841 0.370237 0
M  V30 4900 H 470.622 1.81969 0.236556 0
M  V30 4901 H 469.004 3.00241 2.58208 0
M  V30 4902 H 470.178 4.60307 0.21315 0
M  V30 4903 H 468.493 4.14922 0.350497 0
M  V30 4904 H 471.09 4.33849 3.12536 0
M  V30 4905 H 471.433 2.62905 3.22779 0
M  V30 4906 H 471.966 3.54797 1.799 0
M  V30 4907 H 468.705 6.46241 1.09783 0
M  V30 4908 H 468.225 5.45877 2.48551 0
M  V30 4909 H 469.904 6.03386 2.33527 0
M  V30 4910 N 470.036 -0.519951 1.48776 0
M  V30 4911 C 470.983 -1.62352 1.64044 0
M  V30 4912 C 471.953 -1.58945 0.482251 0
M  V30 4913 O 473.138 -1.77219 0.706971 0
M  V30 4914 C 470.278 -3.00579 1.69547 0
M  V30 4915 C 469.391 -3.14145 2.96541 0
M  V30 4916 C 468.526 -4.42991 2.93142 0
M  V30 4917 C 467.565 -4.50122 4.14797 0
M  V30 4918 N 466.702 -5.7037 4.09418 0
M  V30 4919 H 471.542 -1.48643 2.58281 0
M  V30 4920 H 469.079 -0.723516 1.28077 0
M  V30 4921 H 471.037 -3.80671 1.70719 0
M  V30 4922 H 469.667 -3.13036 0.787918 0
M  V30 4923 H 468.719 -2.27239 3.05068 0
M  V30 4924 H 470.031 -3.15275 3.86527 0
M  V30 4925 H 469.185 -5.31385 2.92772 0
M  V30 4926 H 467.924 -4.44398 2.00902 0
M  V30 4927 H 466.929 -3.60133 4.15433 0
M  V30 4928 H 468.154 -4.50445 5.08208 0
M  V30 4929 H 466.1 -5.72655 3.20004 0
M  V30 4930 H 466.017 -5.73036 4.93119 0
M  V30 4931 H 467.285 -6.61023 4.13121 0
M  V30 4932 N 471.514 -1.37532 -0.769588 0
M  V30 4933 C 472.462 -1.33561 -1.90432 0
M  V30 4934 C 473.456 -0.224027 -1.67912 0
M  V30 4935 O 474.662 -0.392174 -1.75676 0
M  V30 4936 H 471.037 -0.416279 -0.626271 0
M  V30 4937 H 473.008 -2.29348 -1.90899 0
M  V30 4938 C 471.757 -1.16162 -3.27722 0
M  V30 4939 H 471.08 -2.00951 -3.45628 0
M  V30 4940 H 472.52 -1.17434 -4.07413 0
M  V30 4941 C 470.979 0.132583 -3.36639 0
M  V30 4942 O 471.509 1.11539 -3.85904 0
M  V30 4943 N 469.715 0.184013 -2.90017 0
M  V30 4944 H 469.262 -0.616415 -2.50116 0
M  V30 4945 H 469.22 1.04956 -2.96364 0
M  V30 4946 N 472.992 0.995999 -1.22138 0
M  V30 4947 C 474.217 1.77601 -1.0711 0
M  V30 4948 C 474.642 1.84339 0.374264 0
M  V30 4949 O 474 1.29359 1.27028 0
M  V30 4950 C 474.048 3.18897 -1.68336 0
M  V30 4951 O 473.152 4.01663 -0.934928 0
M  V30 4952 H 472.493 0.547011 -0.376397 0
M  V30 4953 H 475.023 1.25137 -1.6187 0
M  V30 4954 H 475.033 3.69539 -1.72931 0
M  V30 4955 H 473.708 3.13308 -2.73516 0
M  V30 4956 H 472.285 3.60204 -0.964751 0
M  V30 4957 N 474.47 1.03057 1.19235 0
M  V30 4958 C 475.698 0.747697 1.92917 0
M  V30 4959 C 476.113 -0.69372 1.75593 0
M  V30 4960 O 475.47 -1.47191 1.07894 0
M  V30 4961 C 475.521 1.09159 3.44625 0
M  V30 4962 O 475.242 2.47641 3.61394 0
M  V30 4963 C 476.743 0.831763 4.35427 0
M  V30 4964 H 473.963 0.273453 0.612751 0
M  V30 4965 H 476.507 1.37552 1.51327 0
M  V30 4966 H 474.662 0.508919 3.84043 0
M  V30 4967 H 475.076 2.60499 4.55237 0
M  V30 4968 H 476.55 1.12233 5.4047 0
M  V30 4969 H 477.027 -0.233769 4.38577 0
M  V30 4970 H 477.633 1.39725 4.01693 0
M  V30 4971 N 475.948 -1.35272 0.808662 0
M  V30 4972 C 477.359 -1.81179 0.450688 0
M  V30 4973 C 477.71 -1.67143 -1.02751 0
M  V30 4974 O 476.835 -1.20325 -1.79864 0
M  V30 4975 C 477.43 -3.28943 0.811275 0
M  V30 4976 C 475.989 -3.72985 0.505871 0
M  V30 4977 C 475.136 -2.57229 1.03578 0
M  V30 4978 H 478.087 -1.2322 1.00012 0
M  V30 4979 H 478.108 -3.80342 0.109588 0
M  V30 4980 H 477.62 -3.39127 1.88718 0
M  V30 4981 H 475.721 -3.68349 -0.561209 0
M  V30 4982 H 475.834 -4.67677 1.03995 0
M  V30 4983 H 474.198 -2.50548 0.458005 0
M  V30 4984 H 474.981 -2.7019 2.11784 0
M  V30 4985 N 477.426 -0.562348 -1.47226 0
M  V30 4986 C 478.654 -0.0452275 -2.06851 0
M  V30 4987 C 479.069 1.25078 -1.41424 0
M  V30 4988 O 478.426 1.75156 -0.512513 0
M  V30 4989 C 478.477 0.148674 -3.61194 0
M  V30 4990 O 478.198 -1.09602 -4.24169 0
M  V30 4991 C 479.699 0.702488 -4.37699 0
M  V30 4992 H 476.919 -0.0481775 -0.669268 0
M  V30 4993 H 479.463 -0.777223 -1.89155 0
M  V30 4994 H 477.618 0.830817 -3.78386 0
M  V30 4995 H 478.032 -0.896982 -5.16773 0
M  V30 4996 H 479.506 0.78743 -5.46355 0
M  V30 4997 H 479.983 1.71493 -4.04335 0
M  V30 4998 H 480.589 0.0558772 -4.25263 0
M  V30 4999 N 478.904 1.54736 -0.299062 0
M  V30 5000 C 480.15 2.00397 0.311244 0
M  V30 5001 C 480.483 1.18716 1.53688 0
M  V30 5002 O 479.758 0.263154 1.92712 0
M  V30 5003 C 480.041 3.53817 0.669761 0
M  V30 5004 C 479.894 4.46239 -0.564882 0
M  V30 5005 C 481.213 4.13856 1.49702 0
M  V30 5006 H 478.332 0.728493 0.111653 0
M  V30 5007 H 480.974 1.85506 -0.410774 0
M  V30 5008 H 479.124 3.66637 1.28491 0
M  V30 5009 H 480.796 4.45328 -1.20337 0
M  V30 5010 H 479.039 4.16916 -1.19849 0
M  V30 5011 H 479.71 5.5134 -0.269918 0
M  V30 5012 H 482.186 4.04461 0.977284 0
M  V30 5013 H 481.062 5.21365 1.71666 0
M  V30 5014 H 481.323 3.65608 2.48563 0
M  V30 5015 N 480.382 0.0267497 1.57577 0
M  V30 5016 C 481.628 -0.653371 1.91987 0
M  V30 5017 C 481.961 -1.71915 0.903263 0
M  V30 5018 O 481.236 -1.94358 -0.0743387 0
M  V30 5019 C 481.519 -1.272 3.36886 0
M  V30 5020 C 481.372 -0.215938 4.49281 0
M  V30 5021 C 482.691 -2.19069 3.81703 0
M  V30 5022 H 479.81 -0.236047 0.698177 0
M  V30 5023 H 482.452 0.0835236 1.89816 0
M  V30 5024 H 480.602 -1.90005 3.38866 0
M  V30 5025 H 482.274 0.41449 4.59434 0
M  V30 5026 H 480.517 0.458855 4.31366 0
M  V30 5027 H 481.188 -0.688347 5.47691 0
M  V30 5028 H 483.664 -1.66253 3.81444 0
M  V30 5029 H 482.54 -2.59307 4.83788 0
M  V30 5030 H 482.801 -3.08087 3.17072 0
M  V30 5031 N 481.861 -1.55662 -0.24637 0
M  V30 5032 C 482.794 -1.85332 -1.33143 0
M  V30 5033 C 483.772 -0.708464 -1.46354 0
M  V30 5034 O 484.956 -0.954274 -1.6256 0
M  V30 5035 C 482.083 -2.0385 -2.70487 0
M  V30 5036 C 481.129 -3.26488 -2.74423 0
M  V30 5037 S 481.962 -4.83124 -2.30979 0
M  V30 5038 C 483.118 -5.04647 -3.70246 0
M  V30 5039 H 483.351 -2.77077 -1.07777 0
M  V30 5040 H 480.884 -1.47776 -0.44738 0
M  V30 5041 H 482.842 -2.15202 -3.49569 0
M  V30 5042 H 481.503 -1.12947 -2.9309 0
M  V30 5043 H 480.696 -3.36413 -3.7529 0
M  V30 5044 H 480.298 -3.13864 -2.03385 0
M  V30 5045 H 482.59 -4.92023 -4.65746 0
M  V30 5046 H 483.533 -6.06625 -3.65255 0
M  V30 5047 H 483.941 -4.32491 -3.62784 0
M  V30 5048 N 483.339 0.512053 -1.4905 0
M  V30 5049 C 484.586 1.26686 -1.57978 0
M  V30 5050 C 484.914 1.92733 -0.261553 0
M  V30 5051 O 484.169 1.80772 0.749667 0
M  V30 5052 C 484.468 2.36446 -2.68008 0
M  V30 5053 C 484.134 1.87932 -4.09869 0
M  V30 5054 C 482.796 1.74419 -4.48477 0
M  V30 5055 C 485.148 1.5149 -4.98698 0
M  V30 5056 C 482.476 1.22827 -5.73699 0
M  V30 5057 C 484.828 1.01355 -6.24428 0
M  V30 5058 C 483.492 0.864735 -6.61875 0
M  V30 5059 H 482.762 0.463577 -0.578081 0
M  V30 5060 H 485.409 0.569421 -1.82838 0
M  V30 5061 H 483.714 3.11933 -2.37076 0
M  V30 5062 H 485.411 2.9453 -2.72127 0
M  V30 5063 H 482.001 1.99405 -3.79389 0
M  V30 5064 H 486.185 1.60782 -4.69535 0
M  V30 5065 H 481.441 1.10008 -6.01422 0
M  V30 5066 H 485.615 0.722351 -6.92644 0
M  V30 5067 H 483.242 0.462777 -7.5879 0
M  V30 5068 N 484.817 1.37938 0.762283 0
M  V30 5069 C 486.065 1.33404 1.51815 0
M  V30 5070 C 486.386 -0.0780975 1.94844 0
M  V30 5071 O 485.656 -1.02405 1.67003 0
M  V30 5072 H 484.236 0.490839 0.563104 0
M  V30 5073 H 486.898 1.72527 0.906669 0
M  V30 5074 H 485.994 1.97926 2.41313 0
M  V30 5075 N 486.295 -0.989507 1.22664 0
M  V30 5076 C 487.535 -1.7447 1.06488 0
M  V30 5077 C 487.899 -1.8794 -0.392737 0
M  V30 5078 O 489.1 -2.60175 -0.675446 0
M  V30 5079 C 487.371 -3.11043 1.76031 0
M  V30 5080 S 488.93 -4.02258 1.7531 0
M  V30 5081 H 485.748 -0.600123 0.381278 0
M  V30 5082 H 488.35 -1.18283 1.55658 0
M  V30 5083 H 487.054 -2.98884 2.81241 0
M  V30 5084 H 486.585 -3.72301 1.27105 0
M  V30 5085 H 488.6 -4.89623 0.805208 0
M  V30 5086 N 487.773 -1.03688 -1.18687 0
M  V30 5087 C 489.05 -0.652397 -1.84399 0
M  V30 5088 C 489.43 0.868386 -1.92412 0
M  V30 5089 O 488.778 1.76832 -1.44716 0
M  V30 5090 C 488.988 -1.3238 -3.22919 0
M  V30 5091 C 490.336 -1.45216 -3.98996 0
M  V30 5092 O 491.36 -1.2816 -3.32345 0
M  V30 5093 O 490.219 -1.72975 -5.18403 0
M  V30 5094 H 487.313 -0.227793 -0.795009 0
M  V30 5095 H 489.859 -1.13553 -1.2611 0
M  V30 5096 H 488.631 -2.36202 -3.11968 0
M  V30 5097 H 488.254 -0.829039 -3.88861 0
M  V30 5098 N 489.251 1.34841 -0.815825 0
M  V30 5099 C 490.184 2.27504 -0.178062 0
M  V30 5100 C 491.162 1.48542 0.661373 0
M  V30 5101 O 492.346 1.77779 0.626653 0
M  V30 5102 C 489.473 3.30246 0.752002 0
M  V30 5103 C 488.519 4.26499 -0.00899172 0
M  V30 5104 S 489.352 5.18169 -1.35134 0
M  V30 5105 C 490.508 6.24449 -0.42596 0
M  V30 5106 H 490.741 2.81248 -0.963684 0
M  V30 5107 H 488.274 1.41781 -0.611355 0
M  V30 5108 H 490.232 3.89933 1.28308 0
M  V30 5109 H 488.893 2.75363 1.51109 0
M  V30 5110 H 488.086 4.99146 0.697766 0
M  V30 5111 H 487.688 3.7103 -0.470396 0
M  V30 5112 H 489.98 6.76404 0.385234 0
M  V30 5113 H 490.923 6.99156 -1.1219 0
M  V30 5114 H 491.331 5.64497 -0.0175461 0
M  V30 5115 N 490.729 0.570148 1.46925 0
M  V30 5116 C 491.639 -0.173061 2.33961 0
M  V30 5117 C 492.655 -0.898825 1.48987 0
M  V30 5118 O 493.831 -0.864825 1.81887 0
M  V30 5119 C 490.896 -1.18177 3.25937 0
M  V30 5120 C 489.957 -0.462041 4.26806 0
M  V30 5121 C 489.19 -1.4227 5.14388 0
M  V30 5122 O 489.413 -2.65842 5.04662 0
M  V30 5123 O 488.347 -0.940127 5.94513 0
M  V30 5124 H 492.173 0.541216 2.98839 0
M  V30 5125 H 489.758 0.330647 1.45695 0
M  V30 5126 H 491.64 -1.76372 3.82715 0
M  V30 5127 H 490.315 -1.87774 2.63671 0
M  V30 5128 H 489.222 0.161429 3.73752 0
M  V30 5129 H 490.555 0.192719 4.91823 0
M  V30 5130 N 492.207 -1.54576 0.307264 0
M  V30 5131 C 493.432 -2.05139 -0.305379 0
M  V30 5132 C 493.857 -1.18278 -1.46259 0
M  V30 5133 O 493.215 -0.188243 -1.8032 0
M  V30 5134 C 493.263 -3.53066 -0.733283 0
M  V30 5135 O 492.367 -3.69206 -1.83741 0
M  V30 5136 H 491.708 -0.661444 -0.0582105 0
M  V30 5137 H 494.238 -1.99569 0.450931 0
M  V30 5138 H 494.248 -3.95034 -1.02039 0
M  V30 5139 H 492.923 -4.15746 0.113198 0
M  V30 5140 H 491.5 -3.39143 -1.55037 0
M  V30 5141 N 493.685 -0.035106 -1.57561 0
M  V30 5142 C 494.934 0.641604 -1.91223 0
M  V30 5143 C 495.247 1.72944 -0.913761 0
M  V30 5144 O 496.453 2.46321 -1.14185 0
M  V30 5145 C 494.909 1.19249 -3.3957 0
M  V30 5146 C 494.517 0.137616 -4.47789 0
M  V30 5147 C 496.261 1.84537 -3.82291 0
M  V30 5148 C 494.168 0.700478 -5.87237 0
M  V30 5149 H 493.098 0.243417 -0.713627 0
M  V30 5150 H 495.749 -0.101382 -1.8322 0
M  V30 5151 H 494.131 1.98728 -3.42525 0
M  V30 5152 H 495.305 -0.635153 -4.56402 0
M  V30 5153 H 493.62 -0.416855 -4.14308 0
M  V30 5154 H 496.217 2.27616 -4.83834 0
M  V30 5155 H 496.56 2.69054 -3.17672 0
M  V30 5156 H 497.093 1.11739 -3.81784 0
M  V30 5157 H 493.832 -0.106693 -6.55413 0
M  V30 5158 H 493.352 1.4416 -5.82218 0
M  V30 5159 H 495.031 1.18837 -6.35993 0
M  V30 5160 N 495.163 1.55791 0.238111 0
M  V30 5161 C 496.579 1.48411 0.587045 0
M  V30 5162 C 496.779 0.72702 1.87927 0
M  V30 5163 O 495.835 0.259942 2.51158 0
M  V30 5164 C 497.148 2.92873 0.681623 0
M  V30 5165 C 498.696 3.03295 0.773363 0
M  V30 5166 C 499.171 4.49082 0.899428 0
M  V30 5167 N 500.662 4.53056 0.964075 0
M  V30 5168 C 501.397 5.63117 1.08104 0
M  V30 5169 N 500.893 6.82969 1.16299 0
M  V30 5170 N 502.686 5.50933 1.11488 0
M  V30 5171 H 494.837 2.0345 -0.610076 0
M  V30 5172 H 497.1 0.924034 -0.211813 0
M  V30 5173 H 496.806 3.51142 -0.19802 0
M  V30 5174 H 496.68 3.43851 1.55069 0
M  V30 5175 H 499.067 2.45101 1.64346 0
M  V30 5176 H 499.148 2.55513 -0.121034 0
M  V30 5177 H 498.792 5.07889 0.0338586 0
M  V30 5178 H 498.722 4.94553 1.809 0
M  V30 5179 H 501.213 3.66737 0.91173 0
M  V30 5180 H 501.526 7.62598 1.25155 0
M  V30 5181 H 499.871 6.85712 1.13241 0
M  V30 5182 H 503.062 4.56231 1.0474 0
M  V30 5183 H 503.235 6.36743 1.20259 0
M  V30 5184 N 496.642 -0.504142 1.49319 0
M  V30 5185 C 498.058 -0.835039 1.36012 0
M  V30 5186 C 498.258 -1.97674 0.390808 0
M  V30 5187 O 497.314 -2.51867 -0.178655 0
M  V30 5188 C 498.627 -1.17821 2.76656 0
M  V30 5189 C 500.175 -1.2866 2.85334 0
M  V30 5190 C 500.65 -1.66307 4.26739 0
M  V30 5191 N 502.141 -1.73362 4.29534 0
M  V30 5192 C 502.876 -2.0393 5.35911 0
M  V30 5193 N 502.372 -2.32744 6.52535 0
M  V30 5194 N 504.165 -2.05155 5.23324 0
M  V30 5195 H 496.316 0.248764 2.10938 0
M  V30 5196 H 498.579 0.0486962 0.946748 0
M  V30 5197 H 498.285 -0.412682 3.4927 0
M  V30 5198 H 498.159 -2.12239 3.11825 0
M  V30 5199 H 500.546 -2.04285 2.1296 0
M  V30 5200 H 500.627 -0.323004 2.53752 0
M  V30 5201 H 500.271 -0.91234 4.99639 0
M  V30 5202 H 500.201 -2.63761 4.55782 0
M  V30 5203 H 502.692 -1.53268 3.45424 0
M  V30 5204 H 503.005 -2.55248 7.2943 0
M  V30 5205 H 501.35 -2.30207 6.55767 0
M  V30 5206 H 504.541 -1.82119 4.3122 0
M  V30 5207 H 504.714 -2.28644 6.06322 0
M  V30 5208 N 498.12 -1.38341 -0.754957 0
M  V30 5209 C 499.369 -1.33791 -1.5094 0
M  V30 5210 C 499.682 0.0699267 -1.95475 0
M  V30 5211 O 500.888 0.237956 -2.70455 0
M  V30 5212 C 499.344 -2.34934 -2.72643 0
M  V30 5213 C 498.952 -3.81332 -2.35138 0
M  V30 5214 C 500.696 -2.39425 -3.50536 0
M  V30 5215 C 498.603 -4.74164 -3.53444 0
M  V30 5216 H 497.533 -0.497314 -0.566741 0
M  V30 5217 H 500.184 -1.63888 -0.825403 0
M  V30 5218 H 498.566 -1.97878 -3.43017 0
M  V30 5219 H 499.74 -4.27319 -1.7244 0
M  V30 5220 H 498.055 -3.79946 -1.70382 0
M  V30 5221 H 500.652 -3.0598 -4.38498 0
M  V30 5222 H 500.995 -1.41278 -3.91594 0
M  V30 5223 H 501.528 -2.75274 -2.87174 0
M  V30 5224 H 498.267 -5.73501 -3.17453 0
M  V30 5225 H 497.787 -4.3287 -4.15191 0
M  V30 5226 H 499.466 -4.92111 -4.20043 0
M  V30 5227 N 499.598 0.982988 -1.23187 0
M  V30 5228 C 500.845 1.72392 -1.06241 0
M  V30 5229 C 501.173 1.9032 0.40108 0
M  V30 5230 O 500.428 1.45084 1.31336 0
M  V30 5231 C 500.727 3.12736 -1.73006 0
M  V30 5232 C 500.393 3.14695 -3.22921 0
M  V30 5233 C 499.055 3.14937 -3.63824 0
M  V30 5234 C 501.407 3.10211 -4.1883 0
M  V30 5235 C 498.735 3.08408 -4.99101 0
M  V30 5236 C 501.087 3.05224 -5.54095 0
M  V30 5237 C 499.751 3.03787 -5.94365 0
M  V30 5238 H 499.021 0.630829 -0.388762 0
M  V30 5239 H 501.668 1.15053 -1.53085 0
M  V30 5240 H 499.973 3.73446 -1.18514 0
M  V30 5241 H 501.67 3.68828 -1.57374 0
M  V30 5242 H 498.26 3.15262 -2.90358 0
M  V30 5243 H 502.444 3.09166 -3.8824 0
M  V30 5244 H 497.7 3.05646 -5.29519 0
M  V30 5245 H 501.874 3.00712 -6.28128 0
M  V30 5246 H 499.501 2.98483 -6.99151 0
M  V30 5247 N 501.076 1.04316 1.18135 0
M  V30 5248 C 501.986 0.646876 2.25505 0
M  V30 5249 C 503.002 -0.328008 1.7088 0
M  V30 5250 O 504.178 -0.182309 2.00573 0
M  V30 5251 C 501.243 0.0185664 3.46695 0
M  V30 5252 C 500.304 1.04277 4.16443 0
M  V30 5253 C 499.537 0.444352 5.31847 0
M  V30 5254 O 499.76 -0.748735 5.65465 0
M  V30 5255 O 498.694 1.17428 5.90334 0
M  V30 5256 H 502.52 1.54147 2.61672 0
M  V30 5257 H 500.105 0.814188 1.25265 0
M  V30 5258 H 501.987 -0.331068 4.20097 0
M  V30 5259 H 500.662 -0.849814 3.12346 0
M  V30 5260 H 499.569 1.44425 3.45098 0
M  V30 5261 H 500.902 1.882 4.54798 0
M  V30 5262 N 502.554 -1.34406 0.822964 0
M  V30 5263 C 503.803 -1.97542 0.407458 0
M  V30 5264 C 504.116 -1.65973 -1.035 0
M  V30 5265 O 505.322 -2.22598 -1.55442 0
M  V30 5266 C 503.778 -3.53463 0.677623 0
M  V30 5267 C 503.386 -3.93925 2.1337 0
M  V30 5268 C 505.13 -4.23229 0.328284 0
M  V30 5269 C 503.037 -5.42759 2.34876 0
M  V30 5270 H 501.967 -0.739207 0.148623 0
M  V30 5271 H 504.618 -1.53248 1.00932 0
M  V30 5272 H 503 -3.96 0.00558965 0
M  V30 5273 H 504.174 -3.62494 2.8449 0
M  V30 5274 H 502.489 -3.37097 2.44448 0
M  V30 5275 H 505.086 -5.32659 0.466794 0
M  V30 5276 H 505.429 -4.09899 -0.727224 0
M  V30 5277 H 505.962 -3.86169 0.954896 0
M  V30 5278 H 502.701 -5.61075 3.38932 0
M  V30 5279 H 502.221 -5.75704 1.68299 0
M  V30 5280 H 503.9 -6.0944 2.17236 0
M  V30 5281 N 504.032 -0.577932 -1.46621 0
M  V30 5282 C 505.26 -0.0671642 -2.06791 0
M  V30 5283 C 505.675 1.23571 -1.42743 0
M  V30 5284 O 505.032 1.74602 -0.531062 0
M  V30 5285 C 505.083 0.110357 -3.61332 0
M  V30 5286 O 504.804 -1.14095 -4.22982 0
M  V30 5287 C 506.305 0.656025 -4.38419 0
M  V30 5288 H 503.525 -0.0552732 -0.66872 0
M  V30 5289 H 506.069 -0.797242 -1.8832 0
M  V30 5290 H 504.224 0.790637 -3.79246 0
M  V30 5291 H 504.638 -0.951742 -5.15793 0
M  V30 5292 H 506.112 0.729438 -5.47159 0
M  V30 5293 H 506.589 1.67195 -4.06131 0
M  V30 5294 H 507.195 0.0107692 -4.25299 0
M  V30 5295 N 505.51 1.54411 -0.315457 0
M  V30 5296 C 506.738 2.04833 0.291738 0
M  V30 5297 C 507.153 1.19203 1.46411 0
M  V30 5298 O 506.51 0.220867 1.81159 0
M  V30 5299 C 506.561 3.53969 0.73404 0
M  V30 5300 O 506.282 4.36346 -0.391682 0
M  V30 5301 C 507.783 4.2045 1.40489 0
M  V30 5302 H 505.003 0.668195 0.0612947 0
M  V30 5303 H 507.547 1.99276 -0.45929 0
M  V30 5304 H 505.702 3.5984 1.43506 0
M  V30 5305 H 506.116 5.24481 -0.0447088 0
M  V30 5306 H 507.59 5.26278 1.66539 0
M  V30 5307 H 508.067 3.71067 2.3496 0
M  V30 5308 H 508.673 4.18694 0.746662 0
M  V30 5309 N 506.988 0.0434614 1.5754 0
M  V30 5310 C 507.92 -0.962586 2.08007 0
M  V30 5311 C 508.933 -1.27972 1.00634 0
M  V30 5312 O 510.122 -1.24186 1.28219 0
M  V30 5313 C 507.222 -2.28621 2.50171 0
M  V30 5314 C 506.395 -2.15214 3.80791 0
M  V30 5315 C 505.454 -3.30633 4.09351 0
M  V30 5316 O 504.48 -3.0688 4.79388 0
M  V30 5317 N 505.682 -4.54873 3.60654 0
M  V30 5318 H 508.447 -0.531891 2.94942 0
M  V30 5319 H 506.008 -0.142965 1.61268 0
M  V30 5320 H 508 -3.04689 2.66359 0
M  V30 5321 H 506.57 -2.63283 1.68525 0
M  V30 5322 H 505.79 -1.23785 3.74261 0
M  V30 5323 H 507.078 -2.03475 4.66343 0
M  V30 5324 H 506.476 -4.77063 3.04019 0
M  V30 5325 H 505.033 -5.2806 3.82094 0
M  V30 5326 N 508.466 -1.55915 -0.229846 0
M  V30 5327 C 509.713 -1.78542 -0.955452 0
M  V30 5328 C 510.041 -0.610785 -1.84661 0
M  V30 5329 O 509.296 0.405213 -1.91459 0
M  V30 5330 C 509.595 -3.06845 -1.8325 0
M  V30 5331 C 509.261 -4.37395 -1.09528 0
M  V30 5332 C 507.923 -4.72868 -0.891598 0
M  V30 5333 C 510.275 -5.18029 -0.574046 0
M  V30 5334 C 507.603 -5.86496 -0.154655 0
M  V30 5335 C 509.955 -6.32423 0.149513 0
M  V30 5336 C 508.619 -6.66504 0.364519 0
M  V30 5337 H 507.889 -0.653333 -0.349625 0
M  V30 5338 H 510.536 -1.90183 -0.224235 0
M  V30 5339 H 508.841 -2.90291 -2.63132 0
M  V30 5340 H 510.538 -3.21553 -2.39592 0
M  V30 5341 H 507.128 -4.09538 -1.26399 0
M  V30 5342 H 511.312 -4.91066 -0.718899 0
M  V30 5343 H 506.568 -6.11396 0.0222356 0
M  V30 5344 H 510.742 -6.94137 0.560947 0
M  V30 5345 H 508.369 -7.54397 0.937495 0
M  V30 5346 N 509.944 0.496216 -1.49584 0
M  V30 5347 C 511.192 1.24756 -1.58998 0
M  V30 5348 C 511.513 1.92968 -0.280775 0
M  V30 5349 O 510.783 1.82959 0.700198 0
M  V30 5350 H 509.363 0.463471 -0.585836 0
M  V30 5351 H 512.025 0.574678 -1.86235 0
M  V30 5352 H 511.121 2.00895 -2.38847 0
M  V30 5353 N 511.423 1.38739 0.74761 0
M  V30 5354 C 512.669 1.35475 1.50912 0
M  V30 5355 C 513.002 -0.0533093 1.94127 0
M  V30 5356 O 512.277 -1.01572 1.65871 0
M  V30 5357 C 512.56 2.31582 2.75757 0
M  V30 5358 C 512.413 3.81274 2.38642 0
M  V30 5359 C 513.732 2.25722 3.77806 0
M  V30 5360 H 510.851 0.493427 0.547447 0
M  V30 5361 H 513.493 1.69634 0.855823 0
M  V30 5362 H 511.643 2.02582 3.31501 0
M  V30 5363 H 513.315 4.20972 1.88626 0
M  V30 5364 H 511.558 3.98664 1.71025 0
M  V30 5365 H 512.229 4.4399 3.27989 0
M  V30 5366 H 514.705 2.51336 3.31616 0
M  V30 5367 H 513.581 2.95069 4.62845 0
M  V30 5368 H 513.842 1.25803 4.23823 0
M  V30 5369 N 512.901 -0.976442 1.23707 0
M  V30 5370 C 513.834 -2.06793 0.964973 0
M  V30 5371 C 514.812 -1.62304 -0.0981472 0
M  V30 5372 O 515.996 -1.88464 0.0369477 0
M  V30 5373 C 513.123 -3.35636 0.454522 0
M  V30 5374 C 512.169 -3.99069 1.50485 0
M  V30 5375 S 513.002 -4.37814 3.0835 0
M  V30 5376 C 514.158 -5.69805 2.58985 0
M  V30 5377 H 514.391 -2.29556 1.88922 0
M  V30 5378 H 511.924 -1.11317 1.06995 0
M  V30 5379 H 513.882 -4.10162 0.166626 0
M  V30 5380 H 512.543 -3.10876 -0.448871 0
M  V30 5381 H 511.736 -4.91896 1.09792 0
M  V30 5382 H 511.338 -3.30938 1.7423 0
M  V30 5383 H 513.63 -6.46919 2.01252 0
M  V30 5384 H 514.573 -6.15345 3.50366 0
M  V30 5385 H 514.981 -5.27994 1.99705 0
M  V30 5386 N 514.379 -1.04941 -1.1758 0
M  V30 5387 C 515.79 -0.784501 -1.69418 0
M  V30 5388 C 516.141 0.693625 -1.8353 0
M  V30 5389 O 515.266 1.53925 -1.52106 0
M  V30 5390 C 515.861 -1.41746 -3.07723 0
M  V30 5391 C 514.42 -1.20066 -3.56737 0
M  V30 5392 C 513.567 -1.5026 -2.33061 0
M  V30 5393 H 516.518 -1.21469 -1.02133 0
M  V30 5394 H 516.539 -0.825381 -3.7144 0
M  V30 5395 H 516.051 -2.49325 -2.9742 0
M  V30 5396 H 514.152 -0.144006 -3.72322 0
M  V30 5397 H 514.265 -1.90384 -4.39648 0
M  V30 5398 H 512.629 -0.922598 -2.37403 0
M  V30 5399 H 513.412 -2.58967 -2.25368 0
M  V30 5400 N 515.857 1.33968 -0.830081 0
M  V30 5401 C 517.268 1.80439 -0.479455 0
M  V30 5402 C 517.619 1.68756 1.00079 0
M  V30 5403 O 516.744 1.23171 1.77927 0
M  V30 5404 C 517.339 3.27611 -0.863505 0
M  V30 5405 C 515.898 3.72133 -0.565145 0
M  V30 5406 C 515.045 2.55549 -1.07657 0
M  V30 5407 H 517.996 1.21614 -1.0196 0
M  V30 5408 H 518.017 3.8012 -0.170083 0
M  V30 5409 H 517.529 3.36082 -1.94089 0
M  V30 5410 H 515.63 3.69196 0.502536 0
M  V30 5411 H 515.743 4.65963 -1.11422 0
M  V30 5412 H 514.107 2.49788 -0.497807 0
M  V30 5413 H 514.89 2.66786 -2.16055 0
M  V30 5414 N 517.335 0.585699 1.46312 0
M  V30 5415 C 518.245 -0.148236 2.34131 0
M  V30 5416 C 519.261 -0.882972 1.49932 0
M  V30 5417 O 520.437 -0.845484 1.82794 0
M  V30 5418 C 517.502 -1.14714 3.27172 0
M  V30 5419 C 516.563 -0.416746 4.27272 0
M  V30 5420 C 515.796 -1.36806 5.15868 0
M  V30 5421 O 516.019 -2.60475 5.07454 0
M  V30 5422 O 514.953 -0.877018 5.95476 0
M  V30 5423 H 518.779 0.572882 2.98248 0
M  V30 5424 H 516.364 0.346082 1.45336 0
M  V30 5425 H 518.246 -1.72303 3.84564 0
M  V30 5426 H 516.921 -1.84967 2.65648 0
M  V30 5427 H 515.828 0.201061 3.73559 0
M  V30 5428 H 517.161 0.244872 4.9159 0
M  V30 5429 N 518.813 -1.54241 0.323641 0
M  V30 5430 C 519.743 -2.27289 -0.534993 0
M  V30 5431 C 520.724 -1.28087 -1.11927 0
M  V30 5432 O 521.909 -1.56899 -1.14439 0
M  V30 5433 C 519.039 -3.03075 -1.69596 0
M  V30 5434 C 517.993 -4.09614 -1.24098 0
M  V30 5435 C 517.319 -4.73242 -2.4889 0
M  V30 5436 C 518.619 -5.21087 -0.355789 0
M  V30 5437 H 520.313 -2.99308 0.0743257 0
M  V30 5438 H 517.859 -1.43952 0.0371874 0
M  V30 5439 H 519.812 -3.52907 -2.30293 0
M  V30 5440 H 518.536 -2.28673 -2.33187 0
M  V30 5441 H 517.195 -3.60666 -0.656945 0
M  V30 5442 H 516.843 -3.95455 -3.10845 0
M  V30 5443 H 516.543 -5.45209 -2.19138 0
M  V30 5444 H 518.067 -5.25848 -3.10348 0
M  V30 5445 H 519.481 -5.66675 -0.869042 0
M  V30 5446 H 517.878 -5.9991 -0.151045 0
M  V30 5447 H 518.948 -4.81005 0.613339 0
M  V30 5448 N 520.291 -0.0518155 -1.57515 0
M  V30 5449 C 521.707 0.304735 -1.56664 0
M  V30 5450 C 521.907 1.71395 -1.05953 0
M  V30 5451 O 520.963 2.42123 -0.716414 0
M  V30 5452 C 522.276 0.132614 -3.00407 0
M  V30 5453 C 523.824 0.20367 -3.12337 0
M  V30 5454 C 524.299 0.0600706 -4.57961 0
M  V30 5455 N 525.79 0.116326 -4.63054 0
M  V30 5456 C 526.525 0.0293363 -5.73392 0
M  V30 5457 N 526.021 -0.110038 -6.92713 0
M  V30 5458 N 527.814 0.0849651 -5.62036 0
M  V30 5459 H 519.965 -0.973056 -1.888 0
M  V30 5460 H 522.228 -0.377781 -0.869474 0
M  V30 5461 H 521.934 -0.839019 -3.41546 0
M  V30 5462 H 521.808 0.893376 -3.66468 0
M  V30 5463 H 524.195 1.16578 -2.71097 0
M  V30 5464 H 524.276 -0.587857 -2.48954 0
M  V30 5465 H 523.92 -0.898715 -4.99886 0
M  V30 5466 H 523.85 0.87075 -5.19351 0
M  V30 5467 H 526.341 0.22327 -3.7724 0
M  V30 5468 H 526.654 -0.169104 -7.72615 0
M  V30 5469 H 524.999 -0.145132 -6.94848 0
M  V30 5470 H 528.19 0.192411 -4.67704 0
M  V30 5471 H 528.363 0.0137131 -6.47999 0
M  V30 5472 N 521.769 1.56035 0.221574 0
M  V30 5473 C 523.015 1.80221 0.942973 0
M  V30 5474 C 523.37 0.624799 1.81973 0
M  V30 5475 O 522.663 -0.381145 1.87771 0
M  V30 5476 C 522.857 3.07813 1.8162 0
M  V30 5477 C 522.686 4.37852 1.02548 0
M  V30 5478 C 521.456 5.00138 0.720418 0
M  V30 5479 C 523.654 5.12813 0.390799 0
M  V30 5480 N 521.636 6.13831 -0.0917139 0
M  V30 5481 C 523.007 6.19346 -0.284728 0
M  V30 5482 C 525.062 4.96972 0.303828 0
M  V30 5483 C 523.765 7.11758 -1.03891 0
M  V30 5484 C 525.791 5.89784 -0.436883 0
M  V30 5485 C 525.153 6.95743 -1.10095 0
M  V30 5486 H 521.252 0.711117 0.325325 0
M  V30 5487 H 523.836 1.93522 0.213854 0
M  V30 5488 H 522.007 2.95795 2.51714 0
M  V30 5489 H 523.739 3.20191 2.47508 0
M  V30 5490 H 520.494 4.62075 1.03843 0
M  V30 5491 H 520.918 6.75249 -0.486615 0
M  V30 5492 H 525.56 4.15107 0.802896 0
M  V30 5493 H 523.278 7.93105 -1.54949 0
M  V30 5494 H 526.864 5.79603 -0.505181 0
M  V30 5495 H 525.744 7.66322 -1.66495 0
M  V30 5496 N 523.247 -0.488276 1.49845 0
M  V30 5497 C 524.493 -1.24341 1.6021 0
M  V30 5498 C 524.826 -1.91967 0.293651 0
M  V30 5499 O 524.101 -1.81323 -0.703718 0
M  V30 5500 C 524.384 -2.3005 2.77036 0
M  V30 5501 C 524.237 -1.66842 4.17713 0
M  V30 5502 C 525.556 -3.31509 2.89464 0
M  V30 5503 H 522.675 -0.450704 0.583125 0
M  V30 5504 H 525.317 -0.539673 1.82174 0
M  V30 5505 H 523.467 -2.90071 2.58439 0
M  V30 5506 H 525.139 -1.1055 4.47858 0
M  V30 5507 H 523.382 -0.972079 4.22768 0
M  V30 5508 H 524.053 -2.43576 4.95353 0
M  V30 5509 H 526.529 -2.81493 3.06433 0
M  V30 5510 H 525.405 -4.02822 3.72861 0
M  V30 5511 H 525.666 -3.94603 1.99351 0
M  V30 5512 N 524.725 -1.39134 -0.740242 0
M  V30 5513 C 525.655 -1.40165 -1.86751 0
M  V30 5514 C 526.636 -0.265708 -1.68012 0
M  V30 5515 O 527.821 -0.47076 -1.88408 0
M  V30 5516 C 524.951 -1.2392 -3.2444 0
M  V30 5517 C 523.905 -2.34858 -3.57807 0
M  V30 5518 C 523.231 -2.03707 -4.94376 0
M  V30 5519 C 524.531 -3.77159 -3.61315 0
M  V30 5520 H 526.225 -2.345 -1.86145 0
M  V30 5521 H 523.771 -1.12875 -0.89416 0
M  V30 5522 H 525.724 -1.23263 -4.02969 0
M  V30 5523 H 524.448 -0.26051 -3.25559 0
M  V30 5524 H 523.107 -2.34723 -2.81604 0
M  V30 5525 H 522.755 -1.04289 -4.9207 0
M  V30 5526 H 522.455 -2.78016 -5.17669 0
M  V30 5527 H 523.979 -2.04691 -5.75268 0
M  V30 5528 H 525.393 -3.79252 -4.29931 0
M  V30 5529 H 523.79 -4.50784 -3.96124 0
M  V30 5530 H 524.86 -4.08513 -2.61238 0
M  V30 5531 N 526.204 0.969867 -1.24223 0
M  V30 5532 C 527.452 1.70918 -1.0785 0
M  V30 5533 C 527.773 1.91186 0.383763 0
M  V30 5534 O 527.043 1.48806 1.27411 0
M  V30 5535 H 525.623 0.633334 -0.396103 0
M  V30 5536 H 528.285 1.16689 -1.56108 0
M  V30 5537 H 527.381 2.69455 -1.57482 0
M  V30 5538 N 527.682 1.05563 1.17022 0
M  V30 5539 C 528.959 0.68165 1.83338 0
M  V30 5540 C 529.339 -0.837665 1.93769 0
M  V30 5541 O 528.687 -1.74507 1.47511 0
M  V30 5542 C 528.897 1.375 3.20772 0
M  V30 5543 C 530.245 1.51545 3.96635 0
M  V30 5544 O 531.269 1.33431 3.30264 0
M  V30 5545 O 530.128 1.812 5.15586 0
M  V30 5546 H 527.222 0.240412 0.791285 0
M  V30 5547 H 529.768 1.15545 1.24288 0
M  V30 5548 H 528.54 2.41135 3.08171 0
M  V30 5549 H 528.163 0.890798 3.87493 0
M  V30 5550 N 529.16 -1.33526 0.837174 0
M  V30 5551 C 530.385 -2.0258 0.444545 0
M  V30 5552 C 530.81 -1.6258 -0.946006 0
M  V30 5553 O 530.168 -0.817548 -1.6182 0
M  V30 5554 C 530.216 -3.5605 0.571006 0
M  V30 5555 O 529.32 -4.10422 -0.403431 0
M  V30 5556 H 528.661 -0.638866 0.180958 0
M  V30 5557 H 531.191 -1.70462 1.13154 0
M  V30 5558 H 531.201 -4.05488 0.452024 0
M  V30 5559 H 529.876 -3.84509 1.58512 0
M  V30 5560 H 528.453 -3.72113 -0.242147 0
M  V30 5561 N 530.638 -0.59345 -1.46 0
M  V30 5562 C 531.57 0.171569 -2.28557 0
M  V30 5563 C 532.583 0.845273 -1.39137 0
M  V30 5564 O 533.772 0.713033 -1.6364 0
M  V30 5565 C 530.872 1.26311 -3.14482 0
M  V30 5566 C 530.045 0.679258 -4.32094 0
M  V30 5567 C 529.104 1.65987 -4.99334 0
M  V30 5568 O 528.13 1.19171 -5.56585 0
M  V30 5569 N 529.332 2.99414 -4.97324 0
M  V30 5570 H 532.097 -0.536771 -2.94854 0
M  V30 5571 H 529.658 -0.431954 -1.56031 0
M  V30 5572 H 531.65 1.91863 -3.5633 0
M  V30 5573 H 530.22 1.87416 -2.50188 0
M  V30 5574 H 529.44 -0.153992 -3.93899 0
M  V30 5575 H 530.728 0.26916 -5.08088 0
M  V30 5576 H 530.126 3.40064 -4.52076 0
M  V30 5577 H 528.683 3.60426 -5.4308 0
M  V30 5578 N 532.116 1.54067 -0.331816 0
M  V30 5579 C 533.064 2.26105 0.54582 0
M  V30 5580 C 534.058 1.27816 1.11173 0
M  V30 5581 O 535.264 1.45565 1.05882 0
M  V30 5582 H 531.639 0.726363 0.194683 0
M  V30 5583 H 533.61 2.98282 -0.083931 0
M  V30 5584 C 532.359 3.03814 1.69092 0
M  V30 5585 H 531.682 3.79269 1.26473 0
M  V30 5586 H 533.122 3.57453 2.28043 0
M  V30 5587 C 531.581 2.12606 2.61343 0
M  V30 5588 O 532.111 1.71437 3.6328 0
M  V30 5589 N 530.317 1.77925 2.29763 0
M  V30 5590 H 529.864 2.11602 1.46909 0
M  V30 5591 H 529.822 1.1718 2.91747 0
M  V30 5592 N 533.594 0.0601682 1.57485 0
M  V30 5593 C 534.84 -0.612501 1.93329 0
M  V30 5594 C 535.173 -1.6996 0.939526 0
M  V30 5595 O 534.448 -1.94472 -0.0330957 0
M  V30 5596 C 534.731 -1.20025 3.39508 0
M  V30 5597 C 534.584 -0.12059 4.49638 0
M  V30 5598 C 535.903 -2.10923 3.86264 0
M  V30 5599 H 533.022 -0.221185 0.703027 0
M  V30 5600 H 535.664 0.123768 1.89596 0
M  V30 5601 H 533.814 -1.82774 3.42821 0
M  V30 5602 H 535.486 0.51185 4.58452 0
M  V30 5603 H 533.729 0.550251 4.30296 0
M  V30 5604 H 534.4 -0.572019 5.49028 0
M  V30 5605 H 536.876 -1.58124 3.84884 0
M  V30 5606 H 535.752 -2.48987 4.8918 0
M  V30 5607 H 536.013 -3.01292 3.23536 0
M  V30 5608 N 535.072 -1.5615 -0.213296 0
M  V30 5609 C 535.982 -1.96265 -1.28519 0
M  V30 5610 C 536.998 -0.86765 -1.50824 0
M  V30 5611 O 538.174 -1.17191 -1.63793 0
M  V30 5612 C 535.239 -2.27836 -2.61327 0
M  V30 5613 C 534.3 -3.50949 -2.47252 0
M  V30 5614 C 533.533 -3.81004 -3.73727 0
M  V30 5615 O 533.756 -3.12612 -4.77106 0
M  V30 5616 O 532.69 -4.74477 -3.70344 0
M  V30 5617 H 536.516 -2.87631 -0.974795 0
M  V30 5618 H 534.101 -1.43467 -0.416832 0
M  V30 5619 H 535.983 -2.49299 -3.39747 0
M  V30 5620 H 534.658 -1.39643 -2.9203 0
M  V30 5621 H 533.565 -3.34754 -1.67004 0
M  V30 5622 H 534.898 -4.39551 -2.21486 0
M  V30 5623 N 536.55 0.480323 -1.50102 0
M  V30 5624 C 537.46 1.60547 -1.71061 0
M  V30 5625 C 538.476 1.63564 -0.593529 0
M  V30 5626 O 539.652 1.81604 -0.870751 0
M  V30 5627 C 536.717 2.96814 -1.79171 0
M  V30 5628 C 535.778 3.04259 -3.02861 0
M  V30 5629 C 535.011 4.34027 -3.10574 0
M  V30 5630 O 535.234 5.24009 -2.25323 0
M  V30 5631 O 534.168 4.46873 -4.03223 0
M  V30 5632 H 537.994 1.45788 -2.6642 0
M  V30 5633 H 535.579 0.658838 -1.34088 0
M  V30 5634 H 537.461 3.77765 -1.86738 0
M  V30 5635 H 536.136 3.11791 -0.869947 0
M  V30 5636 H 535.043 2.22419 -3.008 0
M  V30 5637 H 536.376 2.94216 -3.94586 0
M  V30 5638 N 538.028 1.39524 0.732853 0
M  V30 5639 C 538.958 1.41153 1.86005 0
M  V30 5640 C 539.939 0.274614 1.67869 0
M  V30 5641 O 541.124 0.480745 1.88155 0
M  V30 5642 C 538.254 1.25638 3.23778 0
M  V30 5643 C 537.208 2.36752 3.56556 0
M  V30 5644 C 536.534 2.06326 4.93289 0
M  V30 5645 C 537.834 3.79069 3.5931 0
M  V30 5646 H 539.528 2.35484 1.84899 0
M  V30 5647 H 537.074 1.13348 0.888162 0
M  V30 5648 H 539.027 1.25398 4.0231 0
M  V30 5649 H 537.751 0.277772 3.25417 0
M  V30 5650 H 536.41 2.36213 2.80355 0
M  V30 5651 H 536.058 1.06897 4.9151 0
M  V30 5652 H 535.758 2.80757 5.16187 0
M  V30 5653 H 537.282 2.07739 5.74175 0
M  V30 5654 H 538.696 3.81526 4.27914 0
M  V30 5655 H 537.093 4.52878 3.93728 0
M  V30 5656 H 538.163 4.09893 2.59068 0
M  V30 5657 N 539.506 -0.963266 1.24736 0
M  V30 5658 C 540.922 -1.23273 1.01371 0
M  V30 5659 C 541.122 -1.99618 -0.274776 0
M  V30 5660 O 540.178 -2.32293 -0.989769 0
M  V30 5661 C 541.491 -2.01554 2.23152 0
M  V30 5662 C 543.039 -2.14629 2.27823 0
M  V30 5663 C 543.514 -2.96307 3.49237 0
M  V30 5664 N 545.005 -3.03887 3.49581 0
M  V30 5665 C 545.74 -3.67456 4.40186 0
M  V30 5666 N 545.236 -4.32706 5.41052 0
M  V30 5667 N 547.029 -3.64511 4.27888 0
M  V30 5668 H 539.18 -0.452294 2.07528 0
M  V30 5669 H 541.443 -0.262521 0.910926 0
M  V30 5670 H 541.149 -1.52847 3.1675 0
M  V30 5671 H 541.023 -3.02278 2.25628 0
M  V30 5672 H 543.41 -2.62537 1.34753 0
M  V30 5673 H 543.491 -1.13238 2.2937 0
M  V30 5674 H 543.135 -2.49091 4.42624 0
M  V30 5675 H 543.065 -3.97905 3.44933 0
M  V30 5676 H 545.556 -2.57477 2.76611 0
M  V30 5677 H 545.869 -4.79042 6.06415 0
M  V30 5678 H 544.214 -4.31361 5.44934 0
M  V30 5679 H 547.405 -3.12715 3.4832 0
M  V30 5680 H 547.578 -4.13768 4.98698 0
M  V30 5681 N 540.985 -1.06182 -1.16461 0
M  V30 5682 C 542.213 -0.798583 -1.90867 0
M  V30 5683 C 542.628 0.646921 -1.77371 0
M  V30 5684 O 541.985 1.44279 -1.11758 0
M  V30 5685 C 542.036 -1.18258 -3.4161 0
M  V30 5686 O 541.757 -2.57135 -3.54701 0
M  V30 5687 C 543.258 -0.946917 -4.33069 0
M  V30 5688 H 540.478 -0.289603 -0.605286 0
M  V30 5689 H 543.022 -1.41515 -1.47627 0
M  V30 5690 H 541.177 -0.610562 -3.82558 0
M  V30 5691 H 541.591 -2.72477 -4.4817 0
M  V30 5692 H 543.065 -1.26523 -5.37304 0
M  V30 5693 H 543.542 0.117406 -4.39043 0
M  V30 5694 H 544.148 -1.50326 -3.97847 0
M  V30 5695 N 542.463 1.3308 -0.844243 0
M  V30 5696 C 543.373 2.32876 -0.283922 0
M  V30 5697 C 544.389 1.63589 0.592846 0
M  V30 5698 O 545.565 1.95205 0.495693 0
M  V30 5699 C 542.63 3.42667 0.527283 0
M  V30 5700 C 541.691 4.27664 -0.374394 0
M  V30 5701 C 540.924 5.32212 0.39819 0
M  V30 5702 O 541.147 5.46635 1.62932 0
M  V30 5703 O 540.081 6.01458 -0.2306 0
M  V30 5704 H 543.907 2.82671 -1.11045 0
M  V30 5705 H 541.492 1.36518 -0.606903 0
M  V30 5706 H 543.374 4.09652 0.988078 0
M  V30 5707 H 542.049 2.95079 1.33078 0
M  V30 5708 H 540.956 3.63526 -0.883144 0
M  V30 5709 H 542.289 4.78749 -1.1428 0
M  V30 5710 N 543.941 0.601185 1.45683 0
M  V30 5711 C 545.189 0.0936957 2.01883 0
M  V30 5712 C 545.51 -1.2779 1.47291 0
M  V30 5713 O 544.78 -1.84279 0.664691 0
M  V30 5714 H 543.36 0.0316466 0.746329 0
M  V30 5715 H 546.022 0.781137 1.78562 0
M  V30 5716 H 545.118 0.0386297 3.12076 0
M  V30 5717 N 545.419 -1.53889 0.339982 0
M  V30 5718 C 546.349 -2.27843 -0.510856 0
M  V30 5719 C 547.33 -1.29267 -1.10563 0
M  V30 5720 O 548.515 -1.58104 -1.12768 0
M  V30 5721 C 545.645 -3.04857 -1.66372 0
M  V30 5722 C 544.599 -4.10907 -1.19746 0
M  V30 5723 C 543.925 -4.75855 -2.43857 0
M  V30 5724 C 545.225 -5.21435 -0.300501 0
M  V30 5725 H 546.919 -2.99212 0.106067 0
M  V30 5726 H 544.465 -1.43904 0.0524533 0
M  V30 5727 H 546.418 -3.5533 -2.26537 0
M  V30 5728 H 545.142 -2.31133 -2.30749 0
M  V30 5729 H 543.801 -3.61342 -0.618654 0
M  V30 5730 H 543.449 -3.9873 -3.06633 0
M  V30 5731 H 543.149 -5.47502 -2.13343 0
M  V30 5732 H 544.673 -5.2911 -3.04754 0
M  V30 5733 H 546.087 -5.67565 -0.80889 0
M  V30 5734 H 544.484 -6.00036 -0.0874076 0
M  V30 5735 H 545.554 -4.80328 0.664321 0
M  V30 5736 N 546.897 -0.0685191 -1.57451 0
M  V30 5737 C 548.308 0.464634 -1.80826 0
M  V30 5738 C 548.659 1.69847 -0.982169 0
M  V30 5739 O 547.784 2.15439 -0.203734 0
M  V30 5740 C 548.379 0.849721 -3.27971 0
M  V30 5741 C 546.938 1.32776 -3.52204 0
M  V30 5742 C 546.085 0.311332 -2.75547 0
M  V30 5743 H 549.036 -0.294248 -1.55948 0
M  V30 5744 H 549.057 1.71138 -3.39841 0
M  V30 5745 H 548.569 -0.0484736 -3.8807 0
M  V30 5746 H 546.67 2.24456 -2.97406 0
M  V30 5747 H 546.783 1.30794 -4.60901 0
M  V30 5748 H 545.147 0.787915 -2.42206 0
M  V30 5749 H 545.93 -0.579078 -3.38381 0
M  V30 5750 N 548.375 1.56261 0.205012 0
M  V30 5751 C 549.305 1.96779 1.257 0
M  V30 5752 C 550.286 0.838309 1.48008 0
M  V30 5753 O 551.471 1.10189 1.59913 0
M  V30 5754 C 548.601 2.29876 2.60335 0
M  V30 5755 C 547.555 3.45469 2.52656 0
M  V30 5756 C 546.881 3.64215 3.91473 0
M  V30 5757 C 548.181 4.79954 2.06014 0
M  V30 5758 H 549.875 2.84904 0.920338 0
M  V30 5759 H 547.421 1.37072 0.441277 0
M  V30 5760 H 549.374 2.56814 3.34102 0
M  V30 5761 H 548.098 1.38622 2.95722 0
M  V30 5762 H 546.757 3.18605 1.81345 0
M  V30 5763 H 546.405 2.70309 4.24196 0
M  V30 5764 H 546.105 4.41973 3.87213 0
M  V30 5765 H 547.629 3.93519 4.66878 0
M  V30 5766 H 549.043 5.05989 2.69533 0
M  V30 5767 H 547.44 5.61111 2.12777 0
M  V30 5768 H 548.51 4.74201 1.01297 0
M  V30 5769 N 549.853 -0.472356 1.50355 0
M  V30 5770 C 551.101 -1.22211 1.60962 0
M  V30 5771 C 551.422 -1.92497 0.311439 0
M  V30 5772 O 550.692 -1.8405 -0.671002 0
M  V30 5773 H 549.272 -0.454092 0.593135 0
M  V30 5774 H 551.934 -0.544977 1.87126 0
M  V30 5775 H 551.03 -1.9707 2.42012 0
M  V30 5776 N 551.331 -1.39911 -0.725443 0
M  V30 5777 C 552.261 -1.42138 -1.85254 0
M  V30 5778 C 553.242 -0.283513 -1.67721 0
M  V30 5779 O 554.427 -0.490717 -1.87898 0
M  V30 5780 C 551.557 -1.27354 -3.23107 0
M  V30 5781 C 550.511 -2.3864 -3.55296 0
M  V30 5782 C 549.837 -2.08939 -4.92188 0
M  V30 5783 C 551.137 -3.8097 -3.57295 0
M  V30 5784 H 552.831 -2.36461 -1.83648 0
M  V30 5785 H 550.377 -1.13817 -0.882138 0
M  V30 5786 H 552.33 -1.2753 -4.01639 0
M  V30 5787 H 551.054 -0.295025 -3.25265 0
M  V30 5788 H 549.713 -2.37696 -2.79099 0
M  V30 5789 H 549.361 -1.09502 -4.90936 0
M  V30 5790 H 549.061 -2.83491 -5.14691 0
M  V30 5791 H 550.585 -2.10781 -5.73065 0
M  V30 5792 H 551.999 -3.8379 -4.25885 0
M  V30 5793 H 550.396 -4.5496 -3.9132 0
M  V30 5794 H 551.466 -4.11261 -2.5689 0
M  V30 5795 N 552.809 0.956637 -1.25245 0
M  V30 5796 C 554.058 1.69537 -1.0927 0
M  V30 5797 C 554.371 1.92136 0.366503 0
M  V30 5798 O 555.577 2.63687 0.64665 0
M  V30 5799 C 554.033 3.05211 -1.9072 0
M  V30 5800 C 553.641 2.90416 -3.41119 0
M  V30 5801 C 555.385 3.82882 -1.83308 0
M  V30 5802 C 553.292 4.21468 -4.14872 0
M  V30 5803 H 552.222 0.635804 -0.405302 0
M  V30 5804 H 554.873 1.06513 -1.49423 0
M  V30 5805 H 553.255 3.69128 -1.43389 0
M  V30 5806 H 554.429 2.35444 -3.9611 0
M  V30 5807 H 552.744 2.26203 -3.49602 0
M  V30 5808 H 555.341 4.79944 -2.35706 0
M  V30 5809 H 555.684 4.0853 -0.800572 0
M  V30 5810 H 556.217 3.25711 -2.28379 0
M  V30 5811 H 552.956 4.01009 -5.18529 0
M  V30 5812 H 552.476 4.76213 -3.64665 0
M  V30 5813 H 554.155 4.90022 -4.22478 0
M  V30 5814 N 554.287 1.06798 1.15896 0
M  V30 5815 C 555.25 0.687328 2.18651 0
M  V30 5816 C 556.25 -0.269559 1.58524 0
M  V30 5817 O 557.44 -0.0512627 1.74125 0
M  V30 5818 C 554.572 0.0121642 3.40898 0
M  V30 5819 H 555.765 1.59701 2.53842 0
M  V30 5820 H 553.318 0.863828 1.3026 0
M  V30 5821 H 554.053 -0.910025 3.1127 0
M  V30 5822 H 553.838 0.700309 3.85795 0
M  V30 5823 H 555.328 -0.239703 4.16911 0
M  V30 5824 N 555.766 -1.3263 0.851289 0
M  V30 5825 C 556.716 -2.26451 0.265302 0
M  V30 5826 C 557.7 -1.49814 -0.586899 0
M  V30 5827 O 558.892 -1.71525 -0.436834 0
M  V30 5828 C 556.021 -3.38895 -0.548212 0
M  V30 5829 C 555.107 -4.2292 0.316189 0
M  V30 5830 N 555.498 -4.86014 1.40084 0
M  V30 5831 C 553.796 -4.45876 0.105356 0
M  V30 5832 C 554.497 -5.48667 1.93235 0
M  V30 5833 N 553.473 -5.29455 1.232 0
M  V30 5834 H 557.275 -2.72757 1.09457 0
M  V30 5835 H 554.789 -1.4668 0.697047 0
M  V30 5836 H 556.786 -4.05111 -0.984402 0
M  V30 5837 H 555.446 -2.94135 -1.37531 0
M  V30 5838 H 556.457 -4.86212 1.78377 0
M  V30 5839 H 553.134 -4.11804 -0.687299 0
M  V30 5840 H 554.524 -6.08865 2.84135 0
M  V30 5841 N 557.244 -0.608902 -1.45362 0
M  V30 5842 C 558.492 -0.104401 -2.0183 0
M  V30 5843 C 558.813 1.27007 -1.47967 0
M  V30 5844 O 558.083 1.83924 -0.674455 0
M  V30 5845 H 556.663 -0.0356042 -0.746151 0
M  V30 5846 H 559.325 -0.790596 -1.78145 0
M  V30 5847 H 558.421 -0.0551793 -3.12051 0
M  V30 5848 N 558.722 1.53707 -0.348139 0
M  V30 5849 C 559.669 2.25173 0.506518 0
M  V30 5850 C 560.639 1.25174 1.09182 0
M  V30 5851 O 561.824 1.53917 1.12757 0
M  V30 5852 C 558.964 3.03141 1.64923 0
M  V30 5853 C 558.077 4.18002 1.0908 0
M  V30 5854 C 557.212 4.83447 2.20119 0
M  V30 5855 C 556.251 5.90369 1.61651 0
M  V30 5856 N 555.388 6.49575 2.66451 0
M  V30 5857 H 560.228 2.97799 -0.109452 0
M  V30 5858 H 557.765 1.46953 -0.0657866 0
M  V30 5859 H 559.723 3.46607 2.32205 0
M  V30 5860 H 558.353 2.32803 2.23612 0
M  V30 5861 H 557.405 3.79145 0.308783 0
M  V30 5862 H 558.717 4.94892 0.623178 0
M  V30 5863 H 557.871 5.30008 2.95257 0
M  V30 5864 H 556.61 4.05991 2.70227 0
M  V30 5865 H 555.615 5.43186 0.850209 0
M  V30 5866 H 556.84 6.69735 1.1239 0
M  V30 5867 H 554.786 5.74981 3.15805 0
M  V30 5868 H 554.703 7.21952 2.24325 0
M  V30 5869 H 555.971 7.00789 3.41344 0
M  V30 5870 N 560.2 0.0768682 1.57412 0
M  V30 5871 C 561.428 -0.59997 1.9801 0
M  V30 5872 C 561.843 -1.62842 0.955408 0
M  V30 5873 O 561.2 -1.8241 -0.057314 0
M  V30 5874 C 561.251 -1.26401 3.38681 0
M  V30 5875 O 560.972 -0.276723 4.37225 0
M  V30 5876 C 562.473 -2.0282 3.94182 0
M  V30 5877 H 559.693 -0.162239 0.651091 0
M  V30 5878 H 562.237 0.150771 2.03943 0
M  V30 5879 H 560.392 -1.96581 3.33819 0
M  V30 5880 H 560.806 -0.753744 5.19056 0
M  V30 5881 H 562.28 -2.44667 4.94815 0
M  V30 5882 H 562.757 -2.88678 3.31001 0
M  V30 5883 H 563.363 -1.37496 4.02461 0
M  V30 5884 N 561.678 -1.56367 -0.196722 0
M  V30 5885 C 562.906 -1.84639 -0.933608 0
M  V30 5886 C 563.321 -0.659164 -1.76919 0
M  V30 5887 O 562.678 0.372142 -1.78665 0
M  V30 5888 C 562.729 -3.11694 -1.83109 0
M  V30 5889 O 562.45 -4.25838 -1.02924 0
M  V30 5890 C 563.951 -3.53132 -2.67979 0
M  V30 5891 H 561.171 -0.613188 -0.272473 0
M  V30 5892 H 563.715 -2.03475 -0.204465 0
M  V30 5893 H 561.87 -2.94759 -2.51387 0
M  V30 5894 H 562.284 -4.98178 -1.64069 0
M  V30 5895 H 563.758 -4.45005 -3.26611 0
M  V30 5896 H 564.235 -2.76045 -3.41608 0
M  V30 5897 H 564.841 -3.72592 -2.05074 0
M  V30 5898 N 563.156 0.464375 -1.50603 0
M  V30 5899 C 564.088 1.57916 -1.66118 0
M  V30 5900 C 565.101 1.53497 -0.54246 0
M  V30 5901 O 566.29 1.58763 -0.815877 0
M  V30 5902 C 563.39 2.96809 -1.63577 0
M  V30 5903 C 562.563 3.26026 -2.91592 0
M  V30 5904 C 561.622 4.44506 -2.81604 0
M  V30 5905 O 560.648 4.44484 -3.55559 0
M  V30 5906 N 561.85 5.46549 -1.95614 0
M  V30 5907 H 564.615 1.45022 -2.62276 0
M  V30 5908 H 562.176 0.652903 -1.48151 0
M  V30 5909 H 564.168 3.74048 -1.54499 0
M  V30 5910 H 562.738 3.03438 -0.751262 0
M  V30 5911 H 561.958 2.37337 -3.14746 0
M  V30 5912 H 563.246 3.42361 -3.76386 0
M  V30 5913 H 562.644 5.49391 -1.34854 0
M  V30 5914 H 561.201 6.22746 -1.92435 0
M  V30 5915 N 564.634 1.40294 0.718013 0
M  V30 5916 C 565.859 1.41941 1.5122 0
M  V30 5917 C 566.284 0.0202371 1.88089 0
M  V30 5918 O 565.642 -0.971078 1.53101 0
M  V30 5919 C 565.69 2.3141 2.76554 0
M  V30 5920 O 564.794 1.75567 3.73162 0
M  V30 5921 H 564.135 0.482644 0.456016 0
M  V30 5922 H 566.665 1.84494 0.884478 0
M  V30 5923 H 566.675 2.46513 3.25108 0
M  V30 5924 H 565.35 3.33085 2.49053 0
M  V30 5925 H 563.927 1.69798 3.31999 0
M  V30 5926 N 566.112 -0.949982 1.2575 0
M  V30 5927 C 567.358 -1.69766 1.10938 0
M  V30 5928 C 567.691 -1.91056 -0.348028 0
M  V30 5929 O 566.966 -1.48488 -1.25625 0
M  V30 5930 C 567.249 -3.07779 1.86933 0
M  V30 5931 C 567.102 -2.9387 3.4053 0
M  V30 5932 C 568.421 -4.07749 1.65616 0
M  V30 5933 H 565.54 -0.616144 0.404396 0
M  V30 5934 H 568.182 -1.10394 1.54639 0
M  V30 5935 H 566.332 -3.58462 1.4979 0
M  V30 5936 H 568.004 -2.50476 3.87375 0
M  V30 5937 H 566.247 -2.29686 3.68004 0
M  V30 5938 H 566.918 -3.91719 3.88922 0
M  V30 5939 H 569.394 -3.65994 1.97959 0
M  V30 5940 H 568.27 -5.02348 2.21218 0
M  V30 5941 H 568.531 -4.38029 0.598595 0
M  V30 5942 N 567.59 -1.07411 -1.15328 0
M  V30 5943 C 568.837 -0.797649 -1.86128 0
M  V30 5944 C 569.165 0.676298 -1.82364 0
M  V30 5945 O 568.42 1.51223 -1.24218 0
M  V30 5946 C 568.719 -1.25191 -3.34757 0
M  V30 5947 C 568.385 -2.73191 -3.58716 0
M  V30 5948 C 567.047 -3.13616 -3.64964 0
M  V30 5949 C 569.399 -3.68718 -3.6837 0
M  V30 5950 C 566.727 -4.48383 -3.78377 0
M  V30 5951 C 569.079 -5.03248 -3.83306 0
M  V30 5952 C 567.743 -5.43293 -3.878 0
M  V30 5953 H 567.013 -0.29188 -0.681092 0
M  V30 5954 H 569.66 -1.34524 -1.36292 0
M  V30 5955 H 567.965 -0.623712 -3.86804 0
M  V30 5956 H 569.662 -1.01489 -3.87945 0
M  V30 5957 H 566.252 -2.40898 -3.54494 0
M  V30 5958 H 570.436 -3.38614 -3.62842 0
M  V30 5959 H 565.692 -4.78877 -3.80114 0
M  V30 5960 H 569.866 -5.77142 -3.89718 0
M  V30 5961 H 567.493 -6.47721 -3.97946 0
M  V30 5962 N 569.068 1.32177 -0.85831 0
M  V30 5963 C 569.978 2.32561 -0.308606 0
M  V30 5964 C 570.994 1.64209 0.575462 0
M  V30 5965 O 572.17 1.95719 0.474961 0
M  V30 5966 C 569.235 3.43207 0.490909 0
M  V30 5967 C 568.296 4.27243 -0.419733 0
M  V30 5968 C 567.529 5.32605 0.341719 0
M  V30 5969 O 567.752 5.48332 1.57125 0
M  V30 5970 O 566.686 6.0118 -0.294379 0
M  V30 5971 H 570.512 2.81477 -1.14037 0
M  V30 5972 H 568.097 1.35866 -0.621349 0
M  V30 5973 H 569.979 4.10677 0.944574 0
M  V30 5974 H 568.654 2.96474 1.29941 0
M  V30 5975 H 567.561 3.62569 -0.921652 0
M  V30 5976 H 568.894 4.7751 -1.19352 0
M  V30 5977 N 570.547 0.616602 1.45037 0
M  V30 5978 C 571.497 -0.118543 2.27692 0
M  V30 5979 C 572.481 -0.830025 1.37838 0
M  V30 5980 O 573.673 -0.718528 1.6176 0
M  V30 5981 C 570.802 -1.10924 3.24886 0
M  V30 5982 C 569.888 -0.398134 4.22227 0
M  V30 5983 N 570.279 0.565233 5.02632 0
M  V30 5984 C 568.577 -0.644506 4.41319 0
M  V30 5985 C 569.278 0.984043 5.73316 0
M  V30 5986 N 568.254 0.325879 5.42622 0
M  V30 5987 H 572.056 0.621239 2.87259 0
M  V30 5988 H 569.57 0.440968 1.56299 0
M  V30 5989 H 571.567 -1.65038 3.82842 0
M  V30 5990 H 570.227 -1.84948 2.66879 0
M  V30 5991 H 571.238 0.942395 5.09254 0
M  V30 5992 H 567.915 -1.36873 3.94426 0
M  V30 5993 H 569.305 1.77911 6.47918 0
M  V30 5994 N 572.025 -1.5352 0.356285 0
M  V30 5995 C 573.255 -2.05236 -0.236983 0
M  V30 5996 C 573.663 -1.23016 -1.43749 0
M  V30 5997 O 573.006 -0.2615 -1.81829 0
M  V30 5998 C 573.068 -3.52549 -0.7035 0
M  V30 5999 C 572.732 -4.55425 0.379059 0
M  V30 6000 C 573.729 -5.0524 1.22592 0
M  V30 6001 C 571.414 -4.99425 0.536638 0
M  V30 6002 C 573.408 -5.97647 2.21578 0
M  V30 6003 C 571.095 -5.9164 1.52988 0
M  V30 6004 C 572.093 -6.4064 2.3679 0
M  V30 6005 O 571.781 -7.31039 3.34421 0
M  V30 6006 H 571.513 -0.674346 -0.047254 0
M  V30 6007 H 574.067 -1.98962 0.510238 0
M  V30 6008 H 572.297 -3.56331 -1.50217 0
M  V30 6009 H 573.986 -3.87171 -1.21873 0
M  V30 6010 H 574.752 -4.72002 1.11532 0
M  V30 6011 H 570.631 -4.60879 -0.105834 0
M  V30 6012 H 574.175 -6.35816 2.87025 0
M  V30 6013 H 570.072 -6.24293 1.64099 0
M  V30 6014 H 570.84 -7.49009 3.30041 0
M  V30 6015 N 573.503 -0.0852151 -1.57369 0
M  V30 6016 C 574.749 0.581666 -1.94279 0
M  V30 6017 C 575.082 1.68444 -0.966446 0
M  V30 6018 O 574.357 1.945 0.00215277 0
M  V30 6019 C 574.64 1.14609 -3.41375 0
M  V30 6020 C 574.493 0.0490414 -4.49773 0
M  V30 6021 C 575.812 2.04751 -3.8957 0
M  V30 6022 H 572.931 0.209972 -0.706456 0
M  V30 6023 H 575.573 -0.153915 -1.89376 0
M  V30 6024 H 573.723 1.77297 -3.45685 0
M  V30 6025 H 575.395 -0.584721 -4.57579 0
M  V30 6026 H 573.638 -0.618638 -4.29366 0
M  V30 6027 H 574.309 0.484601 -5.49869 0
M  V30 6028 H 576.785 1.51981 -3.87351 0
M  V30 6029 H 575.661 2.41173 -4.93079 0
M  V30 6030 H 575.922 2.96107 -3.28288 0
M  V30 6031 N 574.981 1.5647 0.188427 0
M  V30 6032 C 575.913 1.91611 1.25769 0
M  V30 6033 C 576.926 0.807436 1.41366 0
M  V30 6034 O 578.115 1.08586 1.41673 0
M  V30 6035 C 575.215 2.13874 2.6289 0
M  V30 6036 C 574.388 3.45047 2.68815 0
M  V30 6037 C 573.447 3.56342 3.87178 0
M  V30 6038 O 572.473 4.29109 3.73971 0
M  V30 6039 N 573.675 2.89924 5.02916 0
M  V30 6040 H 576.44 2.8393 0.959373 0
M  V30 6041 H 574.001 1.57418 0.378306 0
M  V30 6042 H 575.993 2.18713 3.4051 0
M  V30 6043 H 574.563 1.28022 2.85183 0
M  V30 6044 H 573.783 3.52017 1.77419 0
M  V30 6045 H 575.071 4.31395 2.6977 0
M  V30 6046 H 574.469 2.30644 5.16546 0
M  V30 6047 H 573.026 3.0038 5.78459 0
M  V30 6048 N 576.459 -0.456382 1.50847 0
M  V30 6049 C 577.736 -1.21739 1.53098 0
M  V30 6050 C 578.116 -2.09179 0.284132 0
M  V30 6051 O 577.464 -2.16466 -0.731773 0
M  V30 6052 C 577.674 -2.03573 2.83477 0
M  V30 6053 C 579.022 -2.61264 3.34703 0
M  V30 6054 O 580.046 -2.13802 2.84898 0
M  V30 6055 O 578.905 -3.47779 4.21559 0
M  V30 6056 H 575.999 -0.553219 0.614718 0
M  V30 6057 H 578.545 -0.467003 1.63148 0
M  V30 6058 H 577.317 -1.39232 3.65691 0
M  V30 6059 H 576.94 -2.85716 2.76499 0
M  V30 6060 N 577.937 -1.40673 -0.710563 0
M  V30 6061 C 578.9 -1.4108 -1.80635 0
M  V30 6062 C 579.9 -0.303783 -1.57904 0
M  V30 6063 O 581.09 -0.562937 -1.64853 0
M  V30 6064 C 578.222 -1.20748 -3.18799 0
M  V30 6065 H 579.415 -2.38612 -1.81671 0
M  V30 6066 H 576.968 -1.26595 -0.916704 0
M  V30 6067 H 577.703 -0.239964 -3.23411 0
M  V30 6068 H 577.488 -2.00941 -3.36698 0
M  V30 6069 H 578.978 -1.23833 -3.98817 0
M  V30 6070 N 579.415 0.9433 -1.26252 0
M  V30 6071 C 580.348 2.04162 -1.01946 0
M  V30 6072 C 581.326 1.62507 0.0550808 0
M  V30 6073 O 582.51 1.883 -0.0869025 0
M  V30 6074 C 579.637 3.34313 -0.54335 0
M  V30 6075 C 578.683 3.94939 -1.61013 0
M  V30 6076 S 579.516 4.29484 -3.19849 0
M  V30 6077 C 580.672 5.62738 -2.74001 0
M  V30 6078 H 580.905 2.24466 -1.94942 0
M  V30 6079 H 578.438 1.08441 -1.09909 0
M  V30 6080 H 580.396 4.09576 -0.275315 0
M  V30 6081 H 579.057 3.11957 0.36629 0
M  V30 6082 H 578.25 4.88812 -1.22795 0
M  V30 6083 H 577.852 3.26202 -1.82943 0
M  V30 6084 H 580.144 6.41356 -2.18333 0
M  V30 6085 H 581.087 6.05839 -3.66558 0
M  V30 6086 H 581.495 5.22514 -2.13634 0
M  V30 6087 N 580.893 1.08022 1.14757 0
M  V30 6088 C 581.803 0.718292 2.23333 0
M  V30 6089 C 582.819 -0.273477 1.71837 0
M  V30 6090 O 583.995 -0.118406 2.01052 0
M  V30 6091 C 581.06 0.128855 3.4646 0
M  V30 6092 C 580.121 1.17473 4.12915 0
M  V30 6093 C 579.354 0.61333 5.30164 0
M  V30 6094 O 579.577 -0.568458 5.6756 0
M  V30 6095 O 578.511 1.3615 5.86299 0
M  V30 6096 H 582.337 1.62394 2.56636 0
M  V30 6097 H 579.922 0.853628 1.22611 0
M  V30 6098 H 581.804 -0.197249 4.20938 0
M  V30 6099 H 580.479 -0.750014 3.14891 0
M  V30 6100 H 579.386 1.5533 3.40328 0
M  V30 6101 H 580.719 2.02574 4.48581 0
M  V30 6102 N 582.371 -1.3172 0.865308 0
M  V30 6103 C 583.301 -2.31109 0.333302 0
M  V30 6104 C 584.282 -1.60148 -0.573301 0
M  V30 6105 O 585.467 -1.87882 -0.491305 0
M  V30 6106 C 582.597 -3.44104 -0.470078 0
M  V30 6107 C 581.551 -4.26623 0.343021 0
M  V30 6108 C 580.877 -5.31482 -0.585756 0
M  V30 6109 C 582.177 -4.98001 1.57456 0
M  V30 6110 H 583.871 -2.75855 1.1638 0
M  V30 6111 H 581.417 -1.3262 0.561069 0
M  V30 6112 H 583.37 -4.12682 -0.852752 0
M  V30 6113 H 582.094 -2.98112 -1.33404 0
M  V30 6114 H 580.753 -3.59707 0.707583 0
M  V30 6115 H 580.401 -4.81741 -1.44686 0
M  V30 6116 H 580.101 -5.87582 -0.0456494 0
M  V30 6117 H 581.625 -6.0292 -0.965375 0
M  V30 6118 H 583.039 -5.59201 1.26359 0
M  V30 6119 H 581.436 -5.63876 2.05339 0
M  V30 6120 H 582.506 -4.25253 2.32997 0
M  V30 6121 N 583.85 -0.624285 -1.44708 0
M  V30 6122 C 585.096 -0.126237 -2.02407 0
M  V30 6123 C 585.428 1.24618 -1.48943 0
M  V30 6124 O 584.704 1.82569 -0.670742 0
M  V30 6125 C 584.986 -0.105449 -3.59946 0
M  V30 6126 C 584.84 -1.50972 -4.23707 0
M  V30 6127 C 586.159 0.573629 -4.36346 0
M  V30 6128 H 583.278 -0.0473472 -0.735478 0
M  V30 6129 H 585.92 -0.799452 -1.72362 0
M  V30 6130 H 584.07 0.46783 -3.85673 0
M  V30 6131 H 585.742 -2.13136 -4.0911 0
M  V30 6132 H 583.985 -2.0656 -3.81465 0
M  V30 6133 H 584.656 -1.44727 -5.32689 0
M  V30 6134 H 587.132 0.0861787 -4.16011 0
M  V30 6135 H 586.008 0.557338 -5.46063 0
M  V30 6136 H 586.269 1.64276 -4.10446 0
M  V30 6137 N 585.328 1.53329 -0.364422 0
M  V30 6138 C 586.291 2.24323 0.470292 0
M  V30 6139 C 587.291 1.25068 1.01067 0
M  V30 6140 O 588.481 1.49354 0.896605 0
M  V30 6141 C 585.613 2.97908 1.65722 0
M  V30 6142 H 586.806 2.9952 -0.150917 0
M  V30 6143 H 584.359 1.55868 -0.116092 0
M  V30 6144 H 585.094 2.2695 2.31655 0
M  V30 6145 H 584.879 3.70732 1.27671 0
M  V30 6146 H 586.369 3.5188 2.24878 0
M  V30 6147 N 586.806 0.0935595 1.57322 0
M  V30 6148 C 588.222 -0.263091 1.57417 0
M  V30 6149 C 588.422 -1.68526 1.1046 0
M  V30 6150 O 587.478 -2.40139 0.780357 0
M  V30 6151 C 588.791 -0.0529201 3.00653 0
M  V30 6152 C 590.339 -0.120788 3.12767 0
M  V30 6153 C 590.814 0.0613707 4.57959 0
M  V30 6154 N 592.305 0.00648534 4.632 0
M  V30 6155 C 593.04 0.122699 5.73269 0
M  V30 6156 N 592.536 0.29366 6.92177 0
M  V30 6157 N 594.329 0.0640787 5.62063 0
M  V30 6158 H 586.48 1.02277 1.86154 0
M  V30 6159 H 588.743 0.4007 0.859153 0
M  V30 6160 H 588.449 0.929279 3.39201 0
M  V30 6161 H 588.323 -0.795899 3.68708 0
M  V30 6162 H 590.71 -1.09349 2.74093 0
M  V30 6163 H 590.791 0.653656 2.47307 0
M  V30 6164 H 590.435 1.03093 4.97327 0
M  V30 6165 H 590.365 -0.732748 5.21477 0
M  V30 6166 H 592.856 -0.123173 3.77699 0
M  V30 6167 H 593.169 0.37389 7.71895 0
M  V30 6168 H 591.514 0.329307 6.94219 0
M  V30 6169 H 594.705 -0.0683396 4.6805 0
M  V30 6170 H 594.878 0.158097 6.47807 0
M  V30 6171 N 588.284 -1.56567 -0.180126 0
M  V30 6172 C 589.247 -1.94852 -1.20686 0
M  V30 6173 C 590.247 -0.831212 -1.3765 0
M  V30 6174 O 591.437 -1.09841 -1.35206 0
M  V30 6175 C 588.569 -2.23565 -2.57355 0
M  V30 6176 H 589.762 -2.86722 -0.879225 0
M  V30 6177 H 587.315 -1.50489 -0.422237 0
M  V30 6178 H 588.05 -1.34381 -2.95148 0
M  V30 6179 H 587.835 -3.04999 -2.46411 0
M  V30 6180 H 589.325 -2.54137 -3.31367 0
M  V30 6181 N 589.762 0.448376 -1.51087 0
M  V30 6182 C 591.008 1.20049 -1.6345 0
M  V30 6183 C 591.341 1.91121 -0.344444 0
M  V30 6184 O 590.616 1.83125 0.655396 0
M  V30 6185 C 590.899 2.22624 -2.83038 0
M  V30 6186 C 590.752 1.55708 -4.21989 0
M  V30 6187 C 592.071 3.23718 -2.98152 0
M  V30 6188 H 589.19 0.435085 -0.59487 0
M  V30 6189 H 591.832 0.491183 -1.83541 0
M  V30 6190 H 589.982 2.83117 -2.66039 0
M  V30 6191 H 591.654 0.986367 -4.50631 0
M  V30 6192 H 589.897 0.859647 -4.25197 0
M  V30 6193 H 590.568 2.30357 -5.01637 0
M  V30 6194 H 593.044 2.73269 -3.13788 0
M  V30 6195 H 591.92 3.92795 -3.83411 0
M  V30 6196 H 592.181 3.89179 -2.09743 0
M  V30 6197 N 591.24 1.41047 0.703093 0
M  V30 6198 C 592.203 1.42036 1.79884 0
M  V30 6199 C 593.203 0.312153 1.57741 0
M  V30 6200 O 594.393 0.571672 1.64553 0
M  V30 6201 C 591.525 1.22437 3.18154 0
M  V30 6202 H 592.718 2.39572 1.80403 0
M  V30 6203 H 590.271 1.27079 0.909977 0
M  V30 6204 H 591.006 0.257112 3.23279 0
M  V30 6205 H 590.791 2.02723 3.35627 0
M  V30 6206 H 592.281 1.25946 3.98155 0
M  V30 6207 N 592.718 -0.936591 1.26751 0
M  V30 6208 C 593.946 -1.71758 1.15355 0
M  V30 6209 C 594.361 -1.86549 -0.290683 0
M  V30 6210 O 593.718 -1.37616 -1.19868 0
M  V30 6211 C 593.769 -3.12193 1.82258 0
M  V30 6212 O 593.49 -2.98105 3.21038 0
M  V30 6213 C 594.991 -4.06485 1.76875 0
M  V30 6214 H 592.211 -0.537636 0.401483 0
M  V30 6215 H 594.755 -1.17382 1.67457 0
M  V30 6216 H 592.91 -3.63456 1.34083 0
M  V30 6217 H 593.324 -3.86824 3.54214 0
M  V30 6218 H 594.798 -5.02569 2.28316 0
M  V30 6219 H 595.275 -4.32986 0.736216 0
M  V30 6220 H 595.881 -3.61144 2.24623 0
M  V30 6221 N 594.196 -1.08629 -1.14182 0
M  V30 6222 C 595.159 -0.722027 -2.1753 0
M  V30 6223 C 596.159 0.244305 -1.58933 0
M  V30 6224 O 597.349 0.0235545 -1.74184 0
M  V30 6225 C 594.481 -0.0663966 -3.40835 0
M  V30 6226 H 595.674 -1.63719 -2.51269 0
M  V30 6227 H 593.227 -0.884442 -1.28869 0
M  V30 6228 H 593.962 0.860389 -3.12678 0
M  V30 6229 H 593.747 -0.761598 -3.84632 0
M  V30 6230 H 595.237 0.173346 -4.1724 0
M  V30 6231 N 595.674 1.31259 -0.872281 0
M  V30 6232 C 596.902 2.00795 -0.498907 0
M  V30 6233 C 597.317 1.65464 0.909238 0
M  V30 6234 O 596.674 0.885073 1.59602 0
M  V30 6235 C 596.725 3.55625 -0.649092 0
M  V30 6236 O 596.446 3.89692 -2.00179 0
M  V30 6237 C 597.947 4.42434 -0.277034 0
M  V30 6238 H 595.167 0.642299 -0.194145 0
M  V30 6239 H 597.711 1.67438 -1.17408 0
M  V30 6240 H 595.866 3.87394 -0.0214402 0
M  V30 6241 H 596.28 4.84407 -2.01122 0
M  V30 6242 H 597.754 5.50299 -0.433064 0
M  V30 6243 H 598.231 4.32146 0.783989 0
M  V30 6244 H 598.837 4.16086 -0.880483 0
M  V30 6245 N 597.152 0.631951 1.44375 0
M  V30 6246 C 598.085 -0.121822 2.27875 0
M  V30 6247 C 599.063 -0.850457 1.38586 0
M  V30 6248 O 600.247 -0.854378 1.68026 0
M  V30 6249 C 597.374 -1.17859 3.17533 0
M  V30 6250 C 596.42 -0.550391 4.22934 0
M  V30 6251 S 597.253 0.660145 5.31415 0
M  V30 6252 C 598.409 -0.396613 6.24642 0
M  V30 6253 H 598.642 0.586537 2.91457 0
M  V30 6254 H 596.175 0.420146 1.48574 0
M  V30 6255 H 598.133 -1.78335 3.69739 0
M  V30 6256 H 596.794 -1.85915 2.53169 0
M  V30 6257 H 595.987 -1.34631 4.85685 0
M  V30 6258 H 595.589 -0.0202306 3.73995 0
M  V30 6259 H 597.881 -1.26893 6.65511 0
M  V30 6260 H 598.824 0.195345 7.0783 0
M  V30 6261 H 599.232 -0.72288 5.59852 0
M  V30 6262 N 598.631 -1.53133 0.372548 0
M  V30 6263 C 599.88 -2.00539 -0.216115 0
M  V30 6264 C 600.193 -1.26374 -1.49295 0
M  V30 6265 O 601.399 -1.64404 -2.16064 0
M  V30 6266 C 599.855 -3.57253 -0.435678 0
M  V30 6267 C 599.463 -4.40302 0.82693 0
M  V30 6268 C 601.207 -4.12995 -0.981618 0
M  V30 6269 C 599.114 -5.88583 0.576567 0
M  V30 6270 H 598.044 -0.749246 -0.084536 0
M  V30 6271 H 600.695 -1.76771 0.492364 0
M  V30 6272 H 599.077 -3.77202 -1.20559 0
M  V30 6273 H 600.251 -4.32124 1.60017 0
M  V30 6274 H 598.566 -3.95699 1.29659 0
M  V30 6275 H 601.163 -5.21418 -1.18436 0
M  V30 6276 H 601.506 -3.68027 -1.94581 0
M  V30 6277 H 602.039 -3.96871 -0.271696 0
M  V30 6278 H 598.778 -6.37841 1.51128 0
M  V30 6279 H 598.298 -5.99592 -0.158047 0
M  V30 6280 H 599.977 -6.46676 0.204722 0
M  V30 6281 N 600.109 -0.101901 -1.5727 0
M  V30 6282 C 601.041 0.884723 -2.11436 0
M  V30 6283 C 602.054 1.24149 -1.05314 0
M  V30 6284 O 603.243 1.19341 -1.3274 0
M  V30 6285 C 600.343 2.19179 -2.58484 0
M  V30 6286 C 599.516 2.00933 -3.88516 0
M  V30 6287 C 598.575 3.15213 -4.2134 0
M  V30 6288 O 597.601 2.88877 -4.90448 0
M  V30 6289 N 598.803 4.41174 -3.77288 0
M  V30 6290 H 601.568 0.422058 -2.96713 0
M  V30 6291 H 599.129 0.0830128 -1.61687 0
M  V30 6292 H 601.121 2.94593 -2.77484 0
M  V30 6293 H 599.691 2.56847 -1.7818 0
M  V30 6294 H 598.911 1.09809 -3.78597 0
M  V30 6295 H 600.199 1.86026 -4.73573 0
M  V30 6296 H 599.597 4.6545 -3.21516 0
M  V30 6297 H 598.154 5.13515 -4.01429 0
M  V30 6298 N 601.587 1.56661 0.17182 0
M  V30 6299 C 602.998 1.71652 0.734329 0
M  V30 6300 C 603.349 0.712335 1.82812 0
M  V30 6301 O 602.474 -0.126401 2.16031 0
M  V30 6302 C 603.069 3.11226 1.3388 0
M  V30 6303 C 601.628 3.27904 1.84813 0
M  V30 6304 C 600.775 2.67603 0.726917 0
M  V30 6305 H 603.726 1.5861 -0.0535665 0
M  V30 6306 H 603.747 3.09849 2.20849 0
M  V30 6307 H 603.259 3.8429 0.54249 0
M  V30 6308 H 601.36 2.59796 2.6709 0
M  V30 6309 H 601.473 4.35637 1.99392 0
M  V30 6310 H 599.837 2.274 1.14723 0
M  V30 6311 H 600.62 3.43252 -0.0575334 0
M  V30 6312 N 603.065 -0.440357 1.51323 0
M  V30 6313 C 603.975 -1.55955 1.75258 0
M  V30 6314 C 604.991 -1.61933 0.636687 0
M  V30 6315 O 606.167 -1.79231 0.918593 0
M  V30 6316 C 603.232 -2.9196 1.86977 0
M  V30 6317 C 602.293 -2.96122 3.10822 0
M  V30 6318 C 601.526 -4.2564 3.21973 0
M  V30 6319 O 601.749 -5.17851 2.39137 0
M  V30 6320 O 600.683 -4.36025 4.14929 0
M  V30 6321 H 604.509 -1.38673 2.70191 0
M  V30 6322 H 602.094 -0.623055 1.35788 0
M  V30 6323 H 603.976 -3.72682 1.96688 0
M  V30 6324 H 602.651 -3.09375 0.952307 0
M  V30 6325 H 601.558 -2.14366 3.06591 0
M  V30 6326 H 602.891 -2.83651 4.02247 0
M  V30 6327 N 604.543 -1.41418 -0.695603 0
M  V30 6328 C 605.473 -1.46035 -1.82197 0
M  V30 6329 C 606.454 -0.319025 -1.67082 0
M  V30 6330 O 607.639 -0.530462 -1.86815 0
M  V30 6331 C 604.769 -1.34179 -3.20333 0
M  V30 6332 C 603.723 -2.46123 -3.50154 0
M  V30 6333 C 603.049 -2.19332 -4.87645 0
M  V30 6334 C 604.349 -3.88463 -3.49133 0
M  V30 6335 H 606.043 -2.40303 -1.78591 0
M  V30 6336 H 603.589 -1.15663 -0.857797 0
M  V30 6337 H 605.542 -1.36021 -3.98844 0
M  V30 6338 H 604.266 -0.363952 -3.24566 0
M  V30 6339 H 602.925 -2.43563 -2.73994 0
M  V30 6340 H 602.573 -1.19891 -4.88503 0
M  V30 6341 H 602.273 -2.94344 -5.08562 0
M  V30 6342 H 603.797 -2.22889 -5.68465 0
M  V30 6343 H 605.211 -3.92738 -4.17648 0
M  V30 6344 H 603.608 -4.63158 -3.81582 0
M  V30 6345 H 604.678 -4.16617 -2.48109 0
M  V30 6346 N 606.021 0.929856 -1.27246 0
M  V30 6347 C 606.984 2.01172 -1.09829 0
M  V30 6348 C 607.984 1.60743 -0.0429687 0
M  V30 6349 O 609.174 1.71813 -0.287373 0
M  V30 6350 C 606.306 3.34191 -0.673003 0
M  V30 6351 H 607.499 2.18054 -2.05895 0
M  V30 6352 H 605.052 1.11036 -1.10003 0
M  V30 6353 H 605.787 3.23009 0.289134 0
M  V30 6354 H 605.572 3.64892 -1.43515 0
M  V30 6355 H 607.062 4.13646 -0.573323 0
M  V30 6356 N 607.499 1.09233 1.13605 0
M  V30 6357 C 608.429 0.751738 2.21068 0
M  V30 6358 C 609.41 -0.269688 1.67948 0
M  V30 6359 O 610.595 -0.13819 1.93708 0
M  V30 6360 C 607.725 0.16935 3.46887 0
M  V30 6361 C 606.679 1.12007 4.13084 0
M  V30 6362 C 606.005 0.399483 5.33206 0
M  V30 6363 C 607.305 2.46168 4.6065 0
M  V30 6364 H 608.999 1.65024 2.49815 0
M  V30 6365 H 606.545 0.794905 1.20072 0
M  V30 6366 H 608.498 -0.0809824 4.21322 0
M  V30 6367 H 607.222 -0.764335 3.1753 0
M  V30 6368 H 605.881 1.35564 3.40614 0
M  V30 6369 H 605.529 -0.538277 5.00112 0
M  V30 6370 H 605.229 1.03337 5.78442 0
M  V30 6371 H 606.753 0.157403 6.10397 0
M  V30 6372 H 608.167 2.26829 5.26518 0
M  V30 6373 H 606.564 3.05326 5.1662 0
M  V30 6374 H 607.634 3.07076 3.75276 0
M  V30 6375 N 608.977 -1.30795 0.87923 0
M  V30 6376 C 610.226 -1.95636 0.490875 0
M  V30 6377 C 610.539 -1.70214 -0.963674 0
M  V30 6378 O 611.745 -2.28991 -1.45861 0
M  V30 6379 C 610.201 -3.50271 0.826929 0
M  V30 6380 C 609.809 -3.84521 2.29886 0
M  V30 6381 C 611.553 -4.21456 0.507494 0
M  V30 6382 C 609.46 -5.32309 2.57685 0
M  V30 6383 H 608.39 -0.732238 0.179841 0
M  V30 6384 H 611.041 -1.48829 1.07341 0
M  V30 6385 H 609.423 -3.9562 0.173542 0
M  V30 6386 H 610.597 -3.50102 2.99609 0
M  V30 6387 H 608.912 -3.26425 2.58526 0
M  V30 6388 H 611.509 -5.30199 0.692293 0
M  V30 6389 H 611.852 -4.12614 -0.552718 0
M  V30 6390 H 612.385 -3.81772 1.11782 0
M  V30 6391 H 609.124 -5.46195 3.62424 0
M  V30 6392 H 608.644 -5.68048 1.92566 0
M  V30 6393 H 610.323 -5.99678 2.42889 0
M  V30 6394 N 610.455 -0.639598 -1.44038 0
M  V30 6395 C 611.866 -0.228866 -1.85292 0
M  V30 6396 C 612.217 1.22161 -1.53529 0
M  V30 6397 O 611.342 1.93064 -0.977518 0
M  V30 6398 C 611.937 -0.408592 -3.36327 0
M  V30 6399 C 610.496 -0.0522953 -3.76364 0
M  V30 6400 C 609.643 -0.717959 -2.67844 0
M  V30 6401 H 612.594 -0.844194 -1.34384 0
M  V30 6402 H 612.615 0.349968 -3.78887 0
M  V30 6403 H 612.127 -1.46435 -3.59414 0
M  V30 6404 H 610.228 1.0014 -3.58891 0
M  V30 6405 H 610.341 -0.468261 -4.76806 0
M  V30 6406 H 608.705 -0.152459 -2.54243 0
M  V30 6407 H 609.488 -1.77648 -2.93762 0
M  V30 6408 N 611.933 1.52934 -0.380664 0
M  V30 6409 C 613.158 2.06363 0.207157 0
M  V30 6410 C 613.583 1.25122 1.4045 0
M  V30 6411 O 612.941 0.274062 1.79217 0
M  V30 6412 C 612.989 3.56162 0.563996 0
M  V30 6413 O 612.093 3.77552 1.65917 0
M  V30 6414 H 611.434 0.663468 0.0265859 0
M  V30 6415 H 613.964 1.9719 -0.545635 0
M  V30 6416 H 613.974 3.99453 0.830752 0
M  V30 6417 H 612.649 4.14732 -0.311427 0
M  V30 6418 H 611.226 3.46154 1.3868 0
M  V30 6419 N 613.412 0.11024 1.57214 0
M  V30 6420 C 614.64 -0.557834 1.99238 0
M  V30 6421 C 615.055 -1.60778 0.989734 0
M  V30 6422 O 614.412 -1.82491 -0.0186092 0
M  V30 6423 C 614.463 -1.19189 3.41286 0
M  V30 6424 O 614.184 -0.183919 4.37714 0
M  V30 6425 C 615.685 -1.94413 3.98395 0
M  V30 6426 H 612.905 -0.148392 0.654386 0
M  V30 6427 H 615.449 0.193996 2.03578 0
M  V30 6428 H 613.604 -1.89456 3.37913 0
M  V30 6429 H 614.018 -0.643475 5.20538 0
M  V30 6430 H 615.492 -2.34116 4.99894 0
M  V30 6431 H 615.969 -2.81592 3.3705 0
M  V30 6432 H 616.575 -1.28928 4.05287 0
M  V30 6433 N 614.89 -1.56749 -0.16351 0
M  V30 6434 C 615.823 -1.9213 -1.23132 0
M  V30 6435 C 616.801 -0.785047 -1.42393 0
M  V30 6436 O 617.985 -1.0391 -1.57273 0
M  V30 6437 C 615.112 -2.17901 -2.59301 0
M  V30 6438 C 614.158 -3.40576 -2.5673 0
M  V30 6439 S 614.991 -4.94689 -2.05045 0
M  V30 6440 C 616.147 -5.23564 -3.42975 0
M  V30 6441 H 616.38 -2.824 -0.929383 0
M  V30 6442 H 613.913 -1.4994 -0.368418 0
M  V30 6443 H 615.871 -2.33429 -3.3767 0
M  V30 6444 H 614.532 -1.28324 -2.86691 0
M  V30 6445 H 613.725 -3.55833 -3.5693 0
M  V30 6446 H 613.327 -3.24204 -1.86462 0
M  V30 6447 H 615.619 -5.16019 -4.3901 0
M  V30 6448 H 616.562 -6.25134 -3.32586 0
M  V30 6449 H 616.97 -4.51113 -3.39348 0
M  V30 6450 N 616.368 0.432326 -1.51554 0
M  V30 6451 C 617.316 1.54572 -1.73811 0
M  V30 6452 C 618.31 1.58246 -0.604539 0
M  V30 6453 O 619.516 1.6193 -0.786041 0
M  V30 6454 H 615.891 0.513626 -0.549265 0
M  V30 6455 H 617.862 1.32977 -2.67132 0
M  V30 6456 C 616.611 2.92181 -1.88483 0
M  V30 6457 H 615.934 2.90088 -2.75116 0
M  V30 6458 H 617.374 3.69439 -2.08065 0
M  V30 6459 C 615.833 3.3065 -0.645909 0
M  V30 6460 O 616.363 4.01216 0.197093 0
M  V30 6461 N 614.569 2.86464 -0.488538 0
M  V30 6462 H 614.116 2.29209 -1.17562 0
M  V30 6463 H 614.074 3.12565 0.339156 0
M  V30 6464 N 617.846 1.41785 0.688094 0
M  V30 6465 C 619.086 1.43018 1.46032 0
M  V30 6466 C 619.45 0.0402632 1.91958 0
M  V30 6467 O 620.651 -0.0726425 2.68702 0
M  V30 6468 C 618.922 2.4151 2.63453 0
M  V30 6469 S 620.481 2.61335 3.5249 0
M  V30 6470 H 617.299 0.506546 0.498931 0
M  V30 6471 H 619.901 1.78283 0.80221 0
M  V30 6472 H 618.605 3.41286 2.27929 0
M  V30 6473 H 618.136 2.07624 3.34149 0
M  V30 6474 H 620.151 1.88637 4.58945 0
M  V30 6475 N 619.324 -0.923095 1.27737 0
M  V30 6476 C 620.257 -2.02515 1.05181 0
M  V30 6477 C 621.235 -1.62574 -0.0292204 0
M  V30 6478 O 622.419 -1.88137 0.116848 0
M  V30 6479 C 619.546 -3.33407 0.596468 0
M  V30 6480 C 618.592 -3.92328 1.67276 0
M  V30 6481 S 619.425 -4.24342 3.26641 0
M  V30 6482 C 620.581 -5.58308 2.82919 0
M  V30 6483 H 620.814 -2.21336 1.98488 0
M  V30 6484 H 618.347 -1.06679 1.1162 0
M  V30 6485 H 620.305 -4.09086 0.34044 0
M  V30 6486 H 618.966 -3.125 -0.316614 0
M  V30 6487 H 618.159 -4.86797 1.30556 0
M  V30 6488 H 617.761 -3.2325 1.8811 0
M  V30 6489 H 620.053 -6.37801 2.28509 0
M  V30 6490 H 620.996 -5.99931 3.7615 0
M  V30 6491 H 621.404 -5.19049 2.21919 0
M  V30 6492 N 620.802 -1.09834 -1.13024 0
M  V30 6493 C 621.712 -0.753731 -2.22162 0
M  V30 6494 C 622.728 0.246105 -1.72251 0
M  V30 6495 O 623.904 0.0864051 -2.01215 0
M  V30 6496 C 620.969 -0.183958 -3.46212 0
M  V30 6497 C 620.03 -1.24028 -4.10993 0
M  V30 6498 C 619.263 -0.697597 -5.29121 0
M  V30 6499 O 619.486 0.478092 -5.68393 0
M  V30 6500 O 618.42 -1.4546 -5.84059 0
M  V30 6501 H 622.246 -1.66456 -2.5402 0
M  V30 6502 H 619.831 -0.873026 -1.21238 0
M  V30 6503 H 621.713 0.130257 -4.21199 0
M  V30 6504 H 620.388 0.699823 -3.16045 0
M  V30 6505 H 619.295 -1.60725 -3.37814 0
M  V30 6506 H 620.628 -2.09685 -4.45301 0
M  V30 6507 N 622.28 1.30327 -0.886154 0
M  V30 6508 C 623.526 1.96388 -0.505941 0
M  V30 6509 C 623.859 1.69784 0.942712 0
M  V30 6510 O 623.134 1.00322 1.6663 0
M  V30 6511 C 623.417 3.51488 -0.782826 0
M  V30 6512 C 623.27 3.87603 -2.28219 0
M  V30 6513 C 624.589 4.39331 -0.260128 0
M  V30 6514 H 621.708 0.713327 -0.185292 0
M  V30 6515 H 624.35 1.54178 -1.11036 0
M  V30 6516 H 622.5 3.87572 -0.268399 0
M  V30 6517 H 624.172 3.61537 -2.86512 0
M  V30 6518 H 622.415 3.3563 -2.74837 0
M  V30 6519 H 623.086 4.95806 -2.42653 0
M  V30 6520 H 625.562 4.10162 -0.700444 0
M  V30 6521 H 624.438 5.46769 -0.483179 0
M  V30 6522 H 624.699 4.34072 0.838674 0
M  V30 6523 N 623.758 0.647228 1.43697 0
M  V30 6524 C 624.668 -0.0487997 2.34549 0
M  V30 6525 C 625.684 -0.818586 1.53542 0
M  V30 6526 O 626.86 -0.767195 1.86215 0
M  V30 6527 C 623.925 -1.00734 3.31743 0
M  V30 6528 C 622.986 -0.23515 4.28655 0
M  V30 6529 C 622.219 -1.14803 5.21206 0
M  V30 6530 O 622.442 -2.38717 5.18045 0
M  V30 6531 O 621.376 -0.623667 5.9866 0
M  V30 6532 H 625.202 0.698863 2.9555 0
M  V30 6533 H 622.787 0.407412 1.43738 0
M  V30 6534 H 624.669 -1.55837 3.91526 0
M  V30 6535 H 623.344 -1.73534 2.73254 0
M  V30 6536 H 622.251 0.359319 3.7237 0
M  V30 6537 H 623.584 0.453152 4.9011 0
M  V30 6538 N 625.236 -1.5273 0.388769 0
M  V30 6539 C 626.464 -2.05992 -0.193677 0
M  V30 6540 C 626.879 -1.26053 -1.40557 0
M  V30 6541 O 626.236 -0.307049 -1.79898 0
M  V30 6542 C 626.287 -3.57068 -0.564321 0
M  V30 6543 O 626.008 -4.3398 0.599422 0
M  V30 6544 C 627.509 -4.26674 -1.20269 0
M  V30 6545 H 624.729 -0.670358 -0.0293445 0
M  V30 6546 H 627.273 -1.96857 0.553844 0
M  V30 6547 H 625.428 -3.66277 -1.26174 0
M  V30 6548 H 625.842 -5.2367 0.294895 0
M  V30 6549 H 627.316 -5.33625 -1.4124 0
M  V30 6550 H 627.793 -3.81854 -2.16989 0
M  V30 6551 H 628.399 -4.2178 -0.546047 0
M  V30 6552 N 626.714 -0.118576 -1.57153 0
M  V30 6553 C 627.942 0.54726 -1.99531 0
M  V30 6554 C 628.357 1.60251 -0.998246 0
M  V30 6555 O 627.714 1.82498 0.00893106 0
M  V30 6556 C 627.765 1.17378 -3.41913 0
M  V30 6557 O 627.486 0.160703 -4.37805 0
M  V30 6558 C 628.987 1.92297 -3.9942 0
M  V30 6559 H 626.207 0.144919 -0.655164 0
M  V30 6560 H 628.751 -0.20479 -2.03472 0
M  V30 6561 H 626.906 1.87661 -3.38913 0
M  V30 6562 H 627.32 0.61586 -5.20872 0
M  V30 6563 H 628.794 2.31462 -5.01128 0
M  V30 6564 H 629.271 2.79801 -3.38538 0
M  V30 6565 H 629.877 1.26777 -4.05965 0
M  V30 6566 N 628.193 1.56834 0.155195 0
M  V30 6567 C 629.141 1.98584 1.21107 0
M  V30 6568 C 630.135 0.876987 1.44932 0
M  V30 6569 O 631.341 1.06215 1.45322 0
M  V30 6570 H 627.716 0.632039 0.407469 0
M  V30 6571 H 629.687 2.86561 0.832195 0
M  V30 6572 C 628.436 2.37555 2.53895 0
M  V30 6573 H 627.759 3.22428 2.3639 0
M  V30 6574 H 629.199 2.70598 3.26424 0
M  V30 6575 C 627.658 1.22507 3.13837 0
M  V30 6576 O 628.188 0.521388 3.98302 0
M  V30 6577 N 626.394 0.991444 2.73164 0
M  V30 6578 H 625.941 1.56544 2.04577 0
M  V30 6579 H 625.899 0.223546 3.13604 0
M  V30 6580 N 629.671 -0.424282 1.51781 0
M  V30 6581 C 630.601 -1.52305 1.7699 0
M  V30 6582 C 631.582 -1.5839 0.620209 0
M  V30 6583 O 632.767 -1.73908 0.864268 0
M  V30 6584 C 629.897 -2.90271 1.90683 0
M  V30 6585 C 628.851 -2.99043 3.06198 0
M  V30 6586 C 628.177 -4.39116 3.05092 0
M  V30 6587 C 629.477 -2.7192 4.45934 0
M  V30 6588 H 631.171 -1.31461 2.68995 0
M  V30 6589 H 628.717 -0.630985 1.29439 0
M  V30 6590 H 630.67 -3.6711 2.06901 0
M  V30 6591 H 629.394 -3.12376 0.953365 0
M  V30 6592 H 628.053 -2.24646 2.89706 0
M  V30 6593 H 627.701 -4.58207 2.07498 0
M  V30 6594 H 627.401 -4.45912 3.82669 0
M  V30 6595 H 628.925 -5.17911 3.2342 0
M  V30 6596 H 630.339 -3.38487 4.62709 0
M  V30 6597 H 628.736 -2.90111 5.25315 0
M  V30 6598 H 629.806 -1.67445 4.55072 0
M  V30 6599 N 631.149 -1.42148 -0.680565 0
M  V30 6600 C 632.377 -1.45696 -1.46902 0
M  V30 6601 C 632.792 -0.0665858 -1.88683 0
M  V30 6602 O 632.149 0.917436 -1.57764 0
M  V30 6603 C 632.2 -2.37898 -2.72188 0
M  V30 6604 O 631.921 -3.71526 -2.32163 0
M  V30 6605 C 633.422 -2.50407 -3.65802 0
M  V30 6606 H 630.642 -0.495729 -0.45221 0
M  V30 6607 H 633.186 -1.866 -0.836709 0
M  V30 6608 H 631.341 -2.00263 -3.31622 0
M  V30 6609 H 631.755 -4.20849 -3.13027 0
M  V30 6610 H 633.229 -3.19056 -4.50452 0
M  V30 6611 H 633.706 -1.5401 -4.11312 0
M  V30 6612 H 634.312 -2.8874 -3.12265 0
M  V30 6613 N 632.627 0.916307 -1.28225 0
M  V30 6614 C 633.852 1.7043 -1.18188 0
M  V30 6615 C 634.277 1.86346 0.256274 0
M  V30 6616 O 633.635 1.37175 1.18544 0
M  V30 6617 C 633.683 3.07546 -1.88275 0
M  V30 6618 O 632.787 3.94904 -1.18848 0
M  V30 6619 H 632.128 0.521967 -0.410423 0
M  V30 6620 H 634.658 1.14589 -1.69501 0
M  V30 6621 H 634.668 3.57793 -1.96082 0
M  V30 6622 H 633.343 2.95279 -2.92887 0
M  V30 6623 H 631.92 3.53339 -1.19187 0
M  V30 6624 N 634.105 1.10431 1.1244 0
M  V30 6625 C 635.353 0.845045 1.83585 0
M  V30 6626 C 635.674 -0.631168 1.84503 0
M  V30 6627 O 634.944 -1.45825 1.30813 0
M  V30 6628 H 633.524 0.309628 0.679809 0
M  V30 6629 H 636.186 1.39458 1.36153 0
M  V30 6630 H 635.282 1.20786 2.8778 0
M  V30 6631 N 635.583 -1.29855 0.893053 0
M  V30 6632 C 636.515 -2.26911 0.32311 0
M  V30 6633 C 637.528 -1.54039 -0.526858 0
M  V30 6634 O 638.717 -1.75132 -0.345095 0
M  V30 6635 C 635.817 -3.34266 -0.558509 0
M  V30 6636 C 634.99 -4.36601 0.264222 0
M  V30 6637 C 634.049 -5.23326 -0.549171 0
M  V30 6638 O 633.075 -5.69192 0.0309883 0
M  V30 6639 N 634.277 -5.50008 -1.85664 0
M  V30 6640 H 637.042 -2.76455 1.15726 0
M  V30 6641 H 634.603 -1.4312 0.756859 0
M  V30 6642 H 636.595 -3.89211 -1.1089 0
M  V30 6643 H 635.165 -2.8459 -1.29334 0
M  V30 6644 H 634.385 -3.81409 0.996046 0
M  V30 6645 H 635.673 -5.02019 0.827906 0
M  V30 6646 H 635.071 -5.14542 -2.35081 0
M  V30 6647 H 633.628 -6.07796 -2.35431 0
M  V30 6648 N 637.061 -0.65484 -1.43351 0
M  V30 6649 C 638.291 -0.176429 -2.05845 0
M  V30 6650 C 638.699 1.16375 -1.49176 0
M  V30 6651 O 638.042 1.72981 -0.618322 0
M  V30 6652 C 638.104 -0.0125844 -3.59498 0
M  V30 6653 C 637.768 -1.27831 -4.38758 0
M  V30 6654 C 638.765 -2.2074 -4.70712 0
M  V30 6655 C 636.45 -1.52035 -4.78739 0
M  V30 6656 C 638.444 -3.36145 -5.41558 0
M  V30 6657 C 636.131 -2.67732 -5.49329 0
M  V30 6658 C 637.129 -3.59612 -5.80662 0
M  V30 6659 O 636.817 -4.73289 -6.4981 0
M  V30 6660 H 636.549 -0.0879682 -0.670252 0
M  V30 6661 H 639.103 -0.896193 -1.84818 0
M  V30 6662 H 637.333 0.762567 -3.79107 0
M  V30 6663 H 639.022 0.423392 -4.03686 0
M  V30 6664 H 639.788 -2.03284 -4.40341 0
M  V30 6665 H 635.667 -0.813987 -4.53757 0
M  V30 6666 H 639.211 -4.07881 -5.65932 0
M  V30 6667 H 635.108 -2.85122 -5.79116 0
M  V30 6668 H 635.876 -4.72575 -6.68293 0
M  V30 6669 N 638.539 1.52521 -0.396863 0
M  V30 6670 C 639.469 2.29582 0.425941 0
M  V30 6671 C 640.45 1.33281 1.05689 0
M  V30 6672 O 641.635 1.62181 1.06823 0
M  V30 6673 C 638.765 3.10821 1.54943 0
M  V30 6674 C 637.719 4.15069 1.04413 0
M  V30 6675 C 637.045 4.84578 2.26028 0
M  V30 6676 C 638.345 5.22191 0.106767 0
M  V30 6677 H 640.039 2.98612 -0.217045 0
M  V30 6678 H 637.585 1.43611 -0.105826 0
M  V30 6679 H 639.538 3.63492 2.13193 0
M  V30 6680 H 638.262 2.39538 2.22011 0
M  V30 6681 H 636.921 3.63389 0.484118 0
M  V30 6682 H 636.569 4.09835 2.91623 0
M  V30 6683 H 636.269 5.55043 1.92876 0
M  V30 6684 H 637.793 5.40056 2.84906 0
M  V30 6685 H 639.207 5.70176 0.597685 0
M  V30 6686 H 637.604 5.99947 -0.135352 0
M  V30 6687 H 638.674 4.77531 -0.842134 0
M  V30 6688 N 640.017 0.126909 1.57088 0
M  V30 6689 C 641.242 -0.53997 2.00248 0
M  V30 6690 C 641.667 -1.58927 1.00618 0
M  V30 6691 O 641.025 -1.81288 -0.0210131 0
M  V30 6692 C 641.073 -1.13565 3.4225 0
M  V30 6693 O 640.177 -2.25103 3.45547 0
M  V30 6694 H 639.518 -0.13412 0.650314 0
M  V30 6695 H 642.048 0.217718 2.03438 0
M  V30 6696 H 642.058 -1.46925 3.80627 0
M  V30 6697 H 640.733 -0.367122 4.14277 0
M  V30 6698 H 639.31 -1.93123 3.18995 0
M  V30 6699 N 641.495 -1.56914 -0.146875 0
M  V30 6700 C 642.911 -1.51582 -0.499518 0
M  V30 6701 C 643.111 -0.83535 -1.83369 0
M  V30 6702 O 642.167 -0.405932 -2.49216 0
M  V30 6703 C 643.48 -2.96349 -0.509711 0
M  V30 6704 C 645.028 -3.07288 -0.595217 0
M  V30 6705 C 645.503 -4.53562 -0.636071 0
M  V30 6706 N 646.994 -4.57906 -0.69829 0
M  V30 6707 C 647.729 -5.68462 -0.750886 0
M  V30 6708 N 647.225 -6.88588 -0.76282 0
M  V30 6709 N 649.018 -5.56496 -0.791777 0
M  V30 6710 H 641.169 -1.99547 0.727656 0
M  V30 6711 H 643.432 -0.910113 0.265327 0
M  V30 6712 H 643.138 -3.4939 0.402409 0
M  V30 6713 H 643.012 -3.52307 -1.34758 0
M  V30 6714 H 645.399 -2.54266 -1.49776 0
M  V30 6715 H 645.48 -2.54373 0.2698 0
M  V30 6716 H 645.124 -5.07222 0.262313 0
M  V30 6717 H 645.054 -5.04259 -1.51758 0
M  V30 6718 H 647.545 -3.71429 -0.696362 0
M  V30 6719 H 647.858 -7.68598 -0.804804 0
M  V30 6720 H 646.203 -6.91148 -0.730694 0
M  V30 6721 H 649.394 -4.61562 -0.779624 0
M  V30 6722 H 649.567 -6.42671 -0.829301 0
M  V30 6723 N 642.974 0.416227 -1.52004 0
M  V30 6724 C 644.221 1.16383 -1.65714 0
M  V30 6725 C 644.549 1.9068 -0.383594 0
M  V30 6726 O 643.804 1.85174 0.633185 0
M  V30 6727 C 644.103 2.18923 -2.82502 0
M  V30 6728 C 643.769 1.61485 -4.20991 0
M  V30 6729 C 642.431 1.45545 -4.58661 0
M  V30 6730 C 644.783 1.19468 -5.07323 0
M  V30 6731 C 642.111 0.860937 -5.80349 0
M  V30 6732 C 644.463 0.614386 -6.29609 0
M  V30 6733 C 643.127 0.442056 -6.66035 0
M  V30 6734 H 642.397 0.425875 -0.606392 0
M  V30 6735 H 645.044 0.45199 -1.8609 0
M  V30 6736 H 643.349 2.96225 -2.56433 0
M  V30 6737 H 645.046 2.76628 -2.90307 0
M  V30 6738 H 641.636 1.74873 -3.91302 0
M  V30 6739 H 645.82 1.30596 -4.78809 0
M  V30 6740 H 641.076 0.715372 -6.072 0
M  V30 6741 H 645.25 0.280393 -6.95835 0
M  V30 6742 H 642.877 -0.0207218 -7.60197 0
M  V30 6743 N 644.452 1.42507 0.673017 0
M  V30 6744 C 645.382 1.48916 1.79851 0
M  V30 6745 C 646.363 0.345566 1.66553 0
M  V30 6746 O 647.548 0.560116 1.85947 0
M  V30 6747 C 644.678 1.39258 3.18158 0
M  V30 6748 C 643.632 2.51662 3.46194 0
M  V30 6749 C 642.958 2.27062 4.84094 0
M  V30 6750 C 644.258 3.93968 3.42909 0
M  V30 6751 H 645.952 2.43114 1.74745 0
M  V30 6752 H 643.498 1.17013 0.839288 0
M  V30 6753 H 645.451 1.42349 3.96629 0
M  V30 6754 H 644.175 0.415542 3.23946 0
M  V30 6755 H 642.834 2.47891 2.70084 0
M  V30 6756 H 642.482 1.27648 4.86534 0
M  V30 6757 H 642.182 3.02398 5.03815 0
M  V30 6758 H 643.706 2.31905 5.64847 0
M  V30 6759 H 645.12 3.99332 4.11347 0
M  V30 6760 H 643.517 4.6917 3.74165 0
M  V30 6761 H 644.587 4.20512 2.41449 0
M  V30 6762 N 645.93 -0.909495 1.28709 0
M  V30 6763 C 646.893 -1.99399 1.13016 0
M  V30 6764 C 647.893 -1.60654 0.068536 0
M  V30 6765 O 649.083 -1.71334 0.314671 0
M  V30 6766 C 646.215 -3.33078 0.726085 0
M  V30 6767 H 647.408 -2.14751 2.09338 0
M  V30 6768 H 644.961 -1.09272 1.11756 0
M  V30 6769 H 645.696 -3.23428 -0.23771 0
M  V30 6770 H 645.481 -3.62562 1.49302 0
M  V30 6771 H 646.971 -4.12681 0.639058 0
M  V30 6772 N 647.408 -1.11026 -1.11852 0
M  V30 6773 C 648.356 -0.759643 -2.19846 0
M  V30 6774 C 649.35 0.246964 -1.6759 0
M  V30 6775 O 650.556 0.106693 -1.79684 0
M  V30 6776 H 646.931 -0.22775 -0.716683 0
M  V30 6777 H 648.902 -1.6792 -2.46669 0
M  V30 6778 C 647.651 -0.214364 -3.47039 0
M  V30 6779 H 646.974 -0.980175 -3.87599 0
M  V30 6780 H 648.414 -0.00717047 -4.23999 0
M  V30 6781 C 646.873 1.05436 -3.19976 0
M  V30 6782 O 647.403 2.13483 -3.40276 0
M  V30 6783 N 645.609 0.975436 -2.7374 0
M  V30 6784 H 645.156 0.0960853 -2.57421 0
M  V30 6785 H 645.114 1.82501 -2.5601 0
M  V30 6786 N 648.886 1.2938 -0.899927 0
M  V30 6787 C 650.114 1.99691 -0.541386 0
M  V30 6788 C 650.529 1.67355 0.873936 0
M  V30 6789 O 649.886 0.918728 1.57688 0
M  V30 6790 C 649.937 3.54168 -0.72438 0
M  V30 6791 O 649.658 3.85359 -2.08399 0
M  V30 6792 C 651.159 4.41746 -0.370819 0
M  V30 6793 H 648.379 0.638037 -0.207726 0
M  V30 6794 H 650.923 1.6491 -1.20934 0
M  V30 6795 H 649.078 3.87261 -0.103607 0
M  V30 6796 H 649.492 4.80032 -2.11352 0
M  V30 6797 H 650.966 5.49256 -0.549693 0
M  V30 6798 H 651.443 4.33712 0.692148 0
M  V30 6799 H 652.049 4.14125 -0.968543 0
M  V30 6800 N 650.364 0.662433 1.43002 0
M  V30 6801 C 651.592 0.187615 2.06048 0
M  V30 6802 C 652.007 -1.15039 1.49705 0
M  V30 6803 O 651.364 -1.71209 0.631956 0
M  V30 6804 C 651.415 0.100498 3.6136 0
M  V30 6805 O 651.136 1.38562 4.15611 0
M  V30 6806 C 652.637 -0.399298 4.41498 0
M  V30 6807 H 649.857 0.0941675 0.664359 0
M  V30 6808 H 652.401 0.905681 1.83351 0
M  V30 6809 H 650.556 -0.568181 3.83211 0
M  V30 6810 H 650.97 1.25084 5.09366 0
M  V30 6811 H 652.444 -0.409187 5.50481 0
M  V30 6812 H 652.921 -1.43232 4.15188 0
M  V30 6813 H 653.527 0.23721 4.24638 0
M  V30 6814 N 651.842 -1.52309 0.404946 0
M  V30 6815 C 653.089 -2.01767 -0.1722 0
M  V30 6816 C 653.417 -1.29075 -1.45498 0
M  V30 6817 O 652.672 -0.3843 -1.9189 0
M  V30 6818 C 652.971 -3.54284 -0.470895 0
M  V30 6819 C 652.637 -4.45079 0.722194 0
M  V30 6820 C 651.299 -4.69617 1.04946 0
M  V30 6821 C 653.651 -4.98555 1.51962 0
M  V30 6822 C 650.979 -5.44878 2.17543 0
M  V30 6823 C 653.331 -5.75049 2.63632 0
M  V30 6824 C 651.995 -5.9786 2.9685 0
M  V30 6825 H 651.265 -0.738316 -0.0630125 0
M  V30 6826 H 653.912 -1.83566 0.545506 0
M  V30 6827 H 652.217 -3.70642 -1.27012 0
M  V30 6828 H 653.914 -3.90058 -0.930346 0
M  V30 6829 H 650.504 -4.26155 0.457131 0
M  V30 6830 H 654.688 -4.79509 1.28002 0
M  V30 6831 H 649.944 -5.60762 2.43631 0
M  V30 6832 H 654.118 -6.15483 3.25813 0
M  V30 6833 H 651.745 -6.5596 3.84215 0
M  V30 6834 N 653.32 -0.135238 -1.57019 0
M  V30 6835 C 654.736 0.221262 -1.58059 0
M  V30 6836 C 654.936 1.65538 -1.14889 0
M  V30 6837 O 653.992 2.37985 -0.843751 0
M  V30 6838 C 655.305 -0.0268114 -3.00688 0
M  V30 6839 C 656.853 0.0378206 -3.12977 0
M  V30 6840 C 657.328 -0.182769 -4.57635 0
M  V30 6841 N 658.819 -0.129292 -4.6302 0
M  V30 6842 C 659.554 -0.274648 -5.72742 0
M  V30 6843 N 659.05 -0.477075 -6.91155 0
M  V30 6844 N 660.843 -0.213077 -5.61696 0
M  V30 6845 H 652.994 -1.07177 -1.83376 0
M  V30 6846 H 655.257 -0.423338 -0.848227 0
M  V30 6847 H 654.963 -1.01889 -3.36618 0
M  V30 6848 H 654.837 0.697863 -3.70688 0
M  V30 6849 H 657.224 1.02043 -2.76896 0
M  V30 6850 H 657.305 -0.718996 -2.45487 0
M  V30 6851 H 656.949 -1.16243 -4.94419 0
M  V30 6852 H 656.879 0.59423 -5.23237 0
M  V30 6853 H 659.37 0.0229896 -3.77893 0
M  V30 6854 H 659.683 -0.578413 -7.70632 0
M  V30 6855 H 658.028 -0.513252 -6.93102 0
M  V30 6856 H 661.219 -0.0557796 -4.68067 0
M  V30 6857 H 661.392 -0.329796 -6.4716 0
M  V30 6858 N 654.798 1.5699 0.138552 0
M  V30 6859 C 656.046 1.83446 0.848053 0
M  V30 6860 C 656.367 0.71744 1.81322 0
M  V30 6861 O 655.637 -0.260228 1.94164 0
M  V30 6862 H 654.217 0.676792 0.316166 0
M  V30 6863 H 656.879 1.94462 0.130538 0
M  V30 6864 H 655.975 2.78677 1.40518 0
M  V30 6865 N 656.276 -0.40816 1.52223 0
M  V30 6866 C 657.206 -1.5042 1.78595 0
M  V30 6867 C 658.187 -1.57723 0.636974 0
M  V30 6868 O 659.372 -1.72982 0.882664 0
M  V30 6869 C 656.502 -2.88232 1.93751 0
M  V30 6870 C 655.456 -2.95779 3.09352 0
M  V30 6871 C 654.782 -4.35855 3.09732 0
M  V30 6872 C 656.082 -2.67175 4.48793 0
M  V30 6873 H 657.776 -1.28601 2.70374 0
M  V30 6874 H 655.322 -0.617221 1.30101 0
M  V30 6875 H 657.275 -3.64895 2.10783 0
M  V30 6876 H 655.999 -3.11347 0.986443 0
M  V30 6877 H 654.658 -2.21561 2.92072 0
M  V30 6878 H 654.306 -4.55981 2.12346 0
M  V30 6879 H 654.006 -4.41829 3.87377 0
M  V30 6880 H 655.53 -5.14451 3.28895 0
M  V30 6881 H 656.944 -3.3356 4.66273 0
M  V30 6882 H 655.341 -2.84523 5.28362 0
M  V30 6883 H 656.411 -1.62609 4.56822 0
M  V30 6884 N 657.755 -1.42862 -0.66545 0
M  V30 6885 C 658.98 -1.47456 -1.45848 0
M  V30 6886 C 659.405 -0.0900312 -1.87884 0
M  V30 6887 O 658.763 0.913587 -1.56599 0
M  V30 6888 C 658.811 -2.41514 -2.67774 0
M  V30 6889 O 657.915 -1.89296 -3.66389 0
M  V30 6890 H 657.256 -0.499236 -0.437789 0
M  V30 6891 H 659.786 -1.8765 -0.815394 0
M  V30 6892 H 659.796 -2.58409 -3.15735 0
M  V30 6893 H 658.471 -3.42099 -2.36519 0
M  V30 6894 H 657.048 -1.82003 -3.25468 0
M  V30 6895 N 659.233 0.902656 -1.29189 0
M  V30 6896 C 660.481 1.6496 -1.16758 0
M  V30 6897 C 660.802 1.92952 0.28188 0
M  V30 6898 O 660.072 1.55351 1.19344 0
M  V30 6899 H 658.652 0.611447 -0.429118 0
M  V30 6900 H 661.314 1.0825 -1.62074 0
M  V30 6901 H 660.41 2.60728 -1.71544 0
M  V30 6902 N 660.711 1.11618 1.11262 0
M  V30 6903 C 661.936 0.889013 1.8738 0
M  V30 6904 C 662.361 -0.555884 1.79698 0
M  V30 6905 O 661.719 -1.39272 1.16073 0
M  V30 6906 C 661.767 1.35759 3.34069 0
M  V30 6907 O 660.871 0.530499 4.08974 0
M  V30 6908 H 660.212 0.320082 0.581759 0
M  V30 6909 H 662.742 1.48611 1.40627 0
M  V30 6910 H 662.752 1.35291 3.84916 0
M  V30 6911 H 661.427 2.40973 3.38976 0
M  V30 6912 H 660.004 0.601439 3.68018 0
M  V30 6913 N 662.189 -1.289 0.906776 0
M  V30 6914 C 663.438 -1.9455 0.532262 0
M  V30 6915 C 663.751 -1.72219 -0.927353 0
M  V30 6916 O 664.957 -2.32033 -1.40971 0
M  V30 6917 C 663.413 -3.48438 0.901041 0
M  V30 6918 C 663.021 -3.79558 2.37991 0
M  V30 6919 C 664.765 -4.20284 0.596777 0
M  V30 6920 C 662.672 -5.26723 2.68918 0
M  V30 6921 H 661.602 -0.728259 0.195333 0
M  V30 6922 H 664.253 -1.46519 1.10474 0
M  V30 6923 H 662.635 -3.95162 0.257419 0
M  V30 6924 H 663.809 -3.43668 3.06967 0
M  V30 6925 H 662.124 -3.20868 2.65391 0
M  V30 6926 H 664.721 -5.28612 0.8046 0
M  V30 6927 H 665.064 -4.13694 -0.465072 0
M  V30 6928 H 665.597 -3.79315 1.19855 0
M  V30 6929 H 662.336 -5.38384 3.73928 0
M  V30 6930 H 661.856 -5.63836 2.04571 0
M  V30 6931 H 663.535 -5.94391 2.55555 0
M  V30 6932 N 663.667 -0.670007 -1.42649 0
M  V30 6933 C 665.083 -0.33911 -1.55956 0
M  V30 6934 C 665.283 1.1558 -1.65056 0
M  V30 6935 O 664.339 1.94111 -1.61485 0
M  V30 6936 C 665.652 -1.06522 -2.812 0
M  V30 6937 C 667.2 -1.04708 -2.94966 0
M  V30 6938 C 667.675 -1.75442 -4.23065 0
M  V30 6939 N 669.166 -1.72286 -4.29967 0
M  V30 6940 C 669.901 -2.23877 -5.27889 0
M  V30 6941 N 669.397 -2.83829 -6.31991 0
M  V30 6942 N 671.19 -2.14279 -5.19654 0
M  V30 6943 H 663.341 -1.6399 -1.34986 0
M  V30 6944 H 665.604 -0.690603 -0.649439 0
M  V30 6945 H 665.31 -2.12033 -2.80597 0
M  V30 6946 H 665.184 -0.627398 -3.71946 0
M  V30 6947 H 667.571 -0.000315966 -2.951 0
M  V30 6948 H 667.652 -1.52374 -2.05465 0
M  V30 6949 H 667.296 -2.80084 -4.23693 0
M  V30 6950 H 667.226 -1.25229 -5.11493 0
M  V30 6951 H 669.717 -1.28554 -3.55362 0
M  V30 6952 H 670.03 -3.20827 -7.03057 0
M  V30 6953 H 668.375 -2.87896 -6.32567 0
M  V30 6954 H 671.566 -1.67135 -4.37245 0
M  V30 6955 H 671.739 -2.54792 -5.95806 0
M  V30 6956 N 665.145 1.52092 -0.413018 0
M  V30 6957 C 666.391 2.02154 0.161737 0
M  V30 6958 C 666.724 1.29789 1.44459 0
M  V30 6959 O 665.999 0.405378 1.90229 0
M  V30 6960 C 666.282 3.5781 0.405463 0
M  V30 6961 C 666.135 4.40819 -0.894335 0
M  V30 6962 C 667.454 4.23821 1.18591 0
M  V30 6963 H 664.573 0.734769 0.0573077 0
M  V30 6964 H 667.215 1.81948 -0.547247 0
M  V30 6965 H 665.365 3.75158 1.0094 0
M  V30 6966 H 667.037 4.35175 -1.53039 0
M  V30 6967 H 665.28 4.06877 -1.50444 0
M  V30 6968 H 665.951 5.47819 -0.678144 0
M  V30 6969 H 668.427 4.10596 0.674573 0
M  V30 6970 H 667.303 5.32663 1.3252 0
M  V30 6971 H 667.564 3.83038 2.20758 0
M  V30 6972 N 666.623 0.143563 1.56945 0
M  V30 6973 C 667.57 -0.797433 2.16586 0
M  V30 6974 C 668.54 -1.24654 1.09775 0
M  V30 6975 O 669.725 -1.31968 1.37801 0
M  V30 6976 C 666.865 -2.03253 2.78895 0
M  V30 6977 C 665.978 -1.62954 4.00087 0
M  V30 6978 C 665.113 -2.81617 4.50406 0
M  V30 6979 C 664.152 -2.37675 5.64072 0
M  V30 6980 N 663.289 -3.49335 6.09023 0
M  V30 6981 H 668.129 -0.282023 2.96662 0
M  V30 6982 H 665.666 -0.127494 1.46546 0
M  V30 6983 H 667.624 -2.75653 3.13163 0
M  V30 6984 H 666.254 -2.52211 2.01469 0
M  V30 6985 H 665.306 -0.803322 3.71821 0
M  V30 6986 H 666.618 -1.26679 4.82446 0
M  V30 6987 H 665.772 -3.62212 4.86711 0
M  V30 6988 H 664.511 -3.21134 3.67048 0
M  V30 6989 H 663.516 -1.55519 5.27346 0
M  V30 6990 H 664.741 -1.99247 6.49213 0
M  V30 6991 H 662.687 -3.8848 5.28601 0
M  V30 6992 H 662.604 -3.17064 6.86299 0
M  V30 6993 H 663.872 -4.30297 6.49973 0
M  V30 6994 N 668.101 -1.57061 -0.130224 0
M  V30 6995 C 669.349 -1.83893 -0.838313 0
M  V30 6996 C 669.67 -0.727046 -1.80939 0
M  V30 6997 O 668.94 0.249927 -1.94299 0
M  V30 6998 H 667.52 -0.67846 -0.312573 0
M  V30 6999 H 670.182 -1.94529 -0.120224 0
M  V30 7000 H 669.278 -2.79419 -1.39038 0
M  V30 7001 N 669.579 0.400081 -1.52437 0
M  V30 7002 C 670.804 1.17221 -1.71096 0
M  V30 7003 C 671.229 1.83269 -0.423565 0
M  V30 7004 O 670.587 1.70378 0.619751 0
M  V30 7005 C 670.635 2.20425 -2.85386 0
M  V30 7006 O 669.739 3.26769 -2.51586 0
M  V30 7007 H 669.08 0.341766 -0.569291 0
M  V30 7008 H 671.61 0.467772 -1.99181 0
M  V30 7009 H 671.62 2.64605 -3.10561 0
M  V30 7010 H 670.295 1.71737 -3.78786 0
M  V30 7011 H 668.872 2.87804 -2.37114 0
M  V30 7012 N 671.057 1.43213 0.657864 0
M  V30 7013 C 672.285 1.48015 1.44566 0
M  V30 7014 C 672.7 0.0965951 1.88553 0
M  V30 7015 O 672.057 -0.892221 1.59203 0
M  V30 7016 C 672.108 2.42199 2.68369 0
M  V30 7017 O 671.829 3.75173 2.26223 0
M  V30 7018 C 673.33 2.56195 3.61772 0
M  V30 7019 H 670.55 0.502861 0.444266 0
M  V30 7020 H 673.094 1.87907 0.806917 0
M  V30 7021 H 671.249 2.05514 3.28394 0
M  V30 7022 H 671.663 4.25776 3.06293 0
M  V30 7023 H 673.137 3.26182 4.4532 0
M  V30 7024 H 673.614 1.60534 4.0881 0
M  V30 7025 H 674.22 2.93671 3.07632 0
M  V30 7026 N 672.536 -0.895792 1.29666 0
M  V30 7027 C 673.785 -1.64131 1.17234 0
M  V30 7028 C 674.098 -1.93665 -0.274416 0
M  V30 7029 O 675.304 -2.66472 -0.520105 0
M  V30 7030 C 673.76 -2.95764 2.05065 0
M  V30 7031 C 673.368 -2.7381 3.54587 0
M  V30 7032 C 675.112 -3.737 2.01367 0
M  V30 7033 C 673.019 -4.01194 4.34508 0
M  V30 7034 H 671.949 -0.615742 0.435175 0
M  V30 7035 H 674.6 -0.992626 1.54335 0
M  V30 7036 H 672.982 -3.61867 1.60837 0
M  V30 7037 H 674.156 -2.16277 4.06892 0
M  V30 7038 H 672.471 -2.09265 3.59996 0
M  V30 7039 H 675.068 -4.68152 2.58337 0
M  V30 7040 H 675.411 -4.04245 0.994575 0
M  V30 7041 H 675.944 -3.14444 2.43659 0
M  V30 7042 H 672.683 -3.75813 5.37071 0
M  V30 7043 H 672.203 -4.58272 3.86971 0
M  V30 7044 H 673.882 -4.69307 4.45376 0
M  V30 7045 N 674.014 -1.12206 -1.10668 0
M  V30 7046 C 675.26 -0.877172 -1.82848 0
M  V30 7047 C 675.593 0.595571 -1.84842 0
M  V30 7048 O 674.868 1.44013 -1.30731 0
M  V30 7049 C 675.151 -1.44957 -3.29635 0
M  V30 7050 C 675.004 -2.99051 -3.35989 0
M  V30 7051 C 676.323 -1.10714 -4.25946 0
M  V30 7052 H 673.442 -0.320103 -0.663854 0
M  V30 7053 H 676.084 -1.38827 -1.2972 0
M  V30 7054 H 674.234 -1.01488 -3.7501 0
M  V30 7055 H 675.906 -3.51182 -2.99113 0
M  V30 7056 H 674.149 -3.34705 -2.75962 0
M  V30 7057 H 674.82 -3.34194 -4.39339 0
M  V30 7058 H 677.296 -1.48254 -3.88793 0
M  V30 7059 H 676.172 -1.5343 -5.2702 0
M  V30 7060 H 676.433 -0.019 -4.42096 0
M  V30 7061 N 675.492 1.28418 -0.913599 0
M  V30 7062 C 676.717 1.99643 -0.561899 0
M  V30 7063 C 677.142 1.67819 0.849608 0
M  V30 7064 O 676.5 0.910503 1.56779 0
M  V30 7065 C 676.548 3.52116 -0.777622 0
M  V30 7066 O 675.652 4.12076 0.163457 0
M  V30 7067 H 674.993 0.627229 -0.217898 0
M  V30 7068 H 677.523 1.63575 -1.229 0
M  V30 7069 H 677.533 4.02163 -0.687666 0
M  V30 7070 H 676.208 3.74613 -1.8066 0
M  V30 7071 H 674.785 3.72892 0.0247827 0
M  V30 7072 N 676.97 0.677563 1.42291 0
M  V30 7073 C 678.195 0.207901 2.06355 0
M  V30 7074 C 678.62 -1.12723 1.50583 0
M  V30 7075 O 677.978 -1.70171 0.62543 0
M  V30 7076 C 678.026 0.156489 3.6026 0
M  V30 7077 O 677.13 -0.874162 4.03029 0
M  V30 7078 H 676.471 0.106056 0.655475 0
M  V30 7079 H 679.001 0.927354 1.82377 0
M  V30 7080 H 679.011 -0.0187258 4.07996 0
M  V30 7081 H 677.686 1.13101 4.00226 0
M  V30 7082 H 676.263 -0.669764 3.66836 0
M  V30 7083 N 678.448 -1.51871 0.421078 0
M  V30 7084 C 679.358 -2.31077 -0.405069 0
M  V30 7085 C 680.374 -1.39301 -1.04265 0
M  V30 7086 O 681.55 -1.72376 -1.04157 0
M  V30 7087 C 678.615 -3.12556 -1.50032 0
M  V30 7088 C 677.676 -4.20088 -0.884559 0
M  V30 7089 C 676.909 -4.97673 -1.92762 0
M  V30 7090 O 677.132 -4.75696 -3.14753 0
M  V30 7091 O 676.066 -5.82203 -1.52719 0
M  V30 7092 H 679.892 -3.02742 0.241086 0
M  V30 7093 H 677.477 -1.48263 0.183991 0
M  V30 7094 H 679.359 -3.6326 -2.13589 0
M  V30 7095 H 678.034 -2.43672 -2.13086 0
M  V30 7096 H 676.941 -3.73502 -0.211379 0
M  V30 7097 H 678.274 -4.91298 -0.297763 0
M  V30 7098 N 679.926 -0.151884 -1.56866 0
M  V30 7099 C 680.874 0.80299 -2.183 0
M  V30 7100 C 681.868 1.25174 -1.14139 0
M  V30 7101 O 683.074 1.21966 -1.3238 0
M  V30 7102 H 679.449 0.277169 -0.699057 0
M  V30 7103 H 681.42 0.260699 -2.97259 0
M  V30 7104 C 680.169 2.03009 -2.82281 0
M  V30 7105 H 679.492 1.69377 -3.62148 0
M  V30 7106 H 680.932 2.67753 -3.28762 0
M  V30 7107 C 679.391 2.84123 -1.81041 0
M  V30 7108 O 679.921 3.8063 -1.28388 0
M  V30 7109 N 678.127 2.48753 -1.50234 0
M  V30 7110 H 677.674 1.70337 -1.93244 0
M  V30 7111 H 677.632 3.03316 -0.827445 0
M  V30 7112 N 681.404 1.57128 0.121893 0
M  V30 7113 C 682.352 2.01109 1.16868 0
M  V30 7114 C 683.346 0.907532 1.43039 0
M  V30 7115 O 684.552 1.09274 1.43036 0
M  V30 7116 H 680.927 0.640539 0.393971 0
M  V30 7117 H 682.898 2.88261 0.771224 0
M  V30 7118 C 681.647 2.42887 2.48799 0
M  V30 7119 H 680.97 3.2737 2.29498 0
M  V30 7120 H 682.41 2.77461 3.20611 0
M  V30 7121 C 680.869 1.29137 3.11168 0
M  V30 7122 O 681.399 0.605756 3.97106 0
M  V30 7123 N 679.605 1.04916 2.71 0
M  V30 7124 H 679.152 1.60848 2.01211 0
M  V30 7125 H 679.11 0.290016 3.1306 0
M  V30 7126 N 682.882 -0.391992 1.52647 0
M  V30 7127 C 684.129 -1.13732 1.67545 0
M  V30 7128 C 684.457 -1.90045 0.413881 0
M  V30 7129 O 683.712 -1.86157 -0.603646 0
M  V30 7130 C 684.011 -2.14401 2.85949 0
M  V30 7131 C 683.677 -1.54767 4.23507 0
M  V30 7132 C 682.339 -1.38229 4.60919 0
M  V30 7133 C 684.691 -1.11382 5.0916 0
M  V30 7134 C 682.019 -0.7685 5.81645 0
M  V30 7135 C 684.371 -0.514143 6.30507 0
M  V30 7136 C 683.035 -0.33604 6.66654 0
M  V30 7137 H 682.305 -0.416174 0.613091 0
M  V30 7138 H 684.952 -0.422327 1.86785 0
M  V30 7139 H 683.257 -2.92108 2.61114 0
M  V30 7140 H 684.954 -2.71974 2.94671 0
M  V30 7141 H 681.544 -1.68626 3.94035 0
M  V30 7142 H 685.728 -1.22962 4.80826 0
M  V30 7143 H 680.984 -0.618681 6.08262 0
M  V30 7144 H 685.158 -0.169657 6.96193 0
M  V30 7145 H 682.785 0.14166 7.60068 0
M  V30 7146 N 684.36 -1.4356 -0.65026 0
M  V30 7147 C 685.607 -1.45333 -1.41012 0
M  V30 7148 C 685.935 -0.0787282 -1.94341 0
M  V30 7149 O 685.19 0.916715 -1.72901 0
M  V30 7150 C 685.489 -2.44528 -2.60654 0
M  V30 7151 C 685.155 -3.90331 -2.25727 0
M  V30 7152 C 683.817 -4.3004 -2.15914 0
M  V30 7153 C 686.169 -4.822 -1.97821 0
M  V30 7154 C 683.497 -5.59568 -1.76354 0
M  V30 7155 C 685.849 -6.12095 -1.59759 0
M  V30 7156 C 684.513 -6.50778 -1.48473 0
M  V30 7157 H 683.783 -0.531813 -0.516 0
M  V30 7158 H 686.43 -1.76657 -0.739219 0
M  V30 7159 H 684.735 -2.06619 -3.3289 0
M  V30 7160 H 686.432 -2.43155 -3.18868 0
M  V30 7161 H 683.022 -3.58905 -2.34276 0
M  V30 7162 H 687.206 -4.5229 -2.04322 0
M  V30 7163 H 682.462 -5.88376 -1.66205 0
M  V30 7164 H 686.636 -6.82751 -1.37198 0
M  V30 7165 H 684.263 -7.5105 -1.17591 0
M  V30 7166 N 685.838 0.888903 -1.30139 0
M  V30 7167 C 687.087 1.63507 -1.18103 0
M  V30 7168 C 687.4 1.93808 0.264141 0
M  V30 7169 O 688.606 2.66744 0.505966 0
M  V30 7170 C 687.062 2.94673 -2.0663 0
M  V30 7171 C 686.67 2.71926 -3.56034 0
M  V30 7172 C 688.414 3.72626 -2.03346 0
M  V30 7173 C 686.321 3.98884 -4.3663 0
M  V30 7174 H 685.251 0.613426 -0.438435 0
M  V30 7175 H 687.902 0.984427 -1.54859 0
M  V30 7176 H 686.284 3.61009 -1.62754 0
M  V30 7177 H 687.458 2.14116 -4.08033 0
M  V30 7178 H 685.773 2.07353 -3.61101 0
M  V30 7179 H 688.37 4.66775 -2.60816 0
M  V30 7180 H 688.713 4.03712 -1.016 0
M  V30 7181 H 689.246 3.13147 -2.45324 0
M  V30 7182 H 685.985 3.72959 -5.39056 0
M  V30 7183 H 685.505 4.56214 -3.89396 0
M  V30 7184 H 687.184 4.66938 -4.47859 0
M  V30 7185 N 687.317 1.12792 1.10072 0
M  V30 7186 C 688.563 0.89679 1.82563 0
M  V30 7187 C 688.918 -0.571152 1.83727 0
M  V30 7188 O 688.211 -1.41697 1.28967 0
M  V30 7189 C 688.405 1.4102 3.28403 0
M  V30 7190 C 688.234 2.92652 3.41445 0
M  V30 7191 C 687.004 3.60928 3.53637 0
M  V30 7192 C 689.202 3.9063 3.34534 0
M  V30 7193 N 687.184 5.00638 3.55295 0
M  V30 7194 C 688.555 5.16492 3.42981 0
M  V30 7195 C 690.61 3.82989 3.18157 0
M  V30 7196 C 689.313 6.35609 3.3674 0
M  V30 7197 C 691.339 5.01633 3.13239 0
M  V30 7198 C 690.701 6.26355 3.22272 0
M  V30 7199 H 686.8 0.381482 0.682638 0
M  V30 7200 H 689.384 1.43491 1.31599 0
M  V30 7201 H 687.555 0.899077 3.77851 0
M  V30 7202 H 689.287 1.12075 3.88872 0
M  V30 7203 H 686.042 3.11429 3.56803 0
M  V30 7204 H 686.466 5.73521 3.59725 0
M  V30 7205 H 691.108 2.87454 3.10049 0
M  V30 7206 H 688.826 7.31407 3.43613 0
M  V30 7207 H 692.412 4.97454 3.01713 0
M  V30 7208 H 691.292 7.1662 3.18473 0
M  V30 7209 N 688.795 -1.27931 0.920396 0
M  V30 7210 C 689.743 -2.29061 0.404191 0
M  V30 7211 C 690.737 -1.61615 -0.507634 0
M  V30 7212 O 691.943 -1.75765 -0.388144 0
M  V30 7213 H 688.318 -0.743594 0.112123 0
M  V30 7214 H 690.289 -2.70021 1.27008 0
M  V30 7215 C 689.038 -3.46088 -0.334466 0
M  V30 7216 H 688.361 -3.98194 0.35797 0
M  V30 7217 H 689.801 -4.18829 -0.660196 0
M  V30 7218 C 688.26 -2.99396 -1.54479 0
M  V30 7219 O 688.79 -3.02439 -2.64374 0
M  V30 7220 N 686.996 -2.54978 -1.39408 0
M  V30 7221 H 686.543 -2.52701 -0.500009 0
M  V30 7222 H 686.501 -2.24098 -2.20516 0
M  V30 7223 N 690.273 -0.685099 -1.4193 0
M  V30 7224 C 691.203 -0.0273506 -2.33484 0
M  V30 7225 C 692.184 0.778366 -1.51246 0
M  V30 7226 O 693.369 0.733449 -1.79817 0
M  V30 7227 C 690.499 0.917272 -3.34968 0
M  V30 7228 C 689.453 0.21941 -4.27437 0
M  V30 7229 C 688.779 1.27768 -5.1921 0
M  V30 7230 C 690.079 -0.907894 -5.14349 0
M  V30 7231 H 691.773 -0.791994 -2.88735 0
M  V30 7232 H 689.319 -0.382308 -1.38832 0
M  V30 7233 H 691.272 1.38657 -3.97935 0
M  V30 7234 H 689.996 1.71346 -2.78043 0
M  V30 7235 H 688.655 -0.229757 -3.65879 0
M  V30 7236 H 688.303 2.06612 -4.58607 0
M  V30 7237 H 688.003 0.815803 -5.81909 0
M  V30 7238 H 689.527 1.7477 -5.85054 0
M  V30 7239 H 690.941 -0.519348 -5.70943 0
M  V30 7240 H 689.338 -1.2962 -5.85934 0
M  V30 7241 H 690.408 -1.75218 -4.52136 0
M  V30 7242 N 691.751 1.51645 -0.429126 0
M  V30 7243 C 692.683 2.25279 0.422124 0
M  V30 7244 C 693.696 1.28986 0.993299 0
M  V30 7245 O 694.885 1.54797 0.888836 0
M  V30 7246 C 691.985 2.98666 1.60162 0
M  V30 7247 C 691.158 4.2199 1.15078 0
M  V30 7248 C 690.217 4.78028 2.19946 0
M  V30 7249 O 689.243 5.40084 1.79716 0
M  V30 7250 N 690.445 4.61342 3.5234 0
M  V30 7251 H 693.21 2.98971 -0.208931 0
M  V30 7252 H 690.771 1.59838 -0.257568 0
M  V30 7253 H 692.763 3.33044 2.29922 0
M  V30 7254 H 691.333 2.28036 2.13818 0
M  V30 7255 H 690.553 3.932 0.280552 0
M  V30 7256 H 691.841 5.02037 0.826831 0
M  V30 7257 H 691.239 4.11894 3.87763 0
M  V30 7258 H 689.796 5.00104 4.18019 0
M  V30 7259 N 693.229 0.160201 1.56784 0
M  V30 7260 C 694.179 -0.786461 2.14007 0
M  V30 7261 C 695.163 -1.20046 1.07134 0
M  V30 7262 O 696.355 -1.16468 1.33283 0
M  V30 7263 C 693.484 -2.02024 2.77563 0
M  V30 7264 C 692.57 -1.62874 3.91578 0
M  V30 7265 N 692.961 -0.946176 4.96871 0
M  V30 7266 C 691.259 -1.92054 4.02531 0
M  V30 7267 C 691.96 -0.755084 5.76778 0
M  V30 7268 N 690.936 -1.29307 5.27997 0
M  V30 7269 H 694.738 -0.255879 2.92784 0
M  V30 7270 H 692.252 -0.0408778 1.62349 0
M  V30 7271 H 694.249 -2.70855 3.16928 0
M  V30 7272 H 692.909 -2.55587 2.00263 0
M  V30 7273 H 693.92 -0.605455 5.14349 0
M  V30 7274 H 690.597 -2.47374 3.36322 0
M  V30 7275 H 691.987 -0.216138 6.71552 0
M  V30 7276 N 694.707 -1.5719 -0.113559 0
M  V30 7277 C 695.984 -1.76117 -0.850999 0
M  V30 7278 C 696.364 -0.737085 -1.97814 0
M  V30 7279 O 695.712 0.237942 -2.27258 0
M  V30 7280 C 695.922 -3.21298 -1.36266 0
M  V30 7281 C 697.27 -3.83955 -1.81283 0
M  V30 7282 O 698.294 -3.24934 -1.45933 0
M  V30 7283 O 697.153 -4.87707 -2.46585 0
M  V30 7284 H 694.247 -0.721308 -0.404529 0
M  V30 7285 H 696.793 -1.69423 -0.0968756 0
M  V30 7286 H 695.565 -3.87355 -0.554235 0
M  V30 7287 H 695.188 -3.32552 -2.17933 0
M  V30 7288 N 696.185 0.383891 -1.52853 0
M  V30 7289 C 697.596 0.961591 -1.60032 0
M  V30 7290 C 697.947 1.90819 -0.456333 0
M  V30 7291 O 697.072 2.12288 0.419873 0
M  V30 7292 C 697.667 1.75078 -2.90057 0
M  V30 7293 C 696.226 2.2781 -2.99632 0
M  V30 7294 C 695.373 1.08512 -2.55187 0
M  V30 7295 H 698.324 0.163269 -1.57858 0
M  V30 7296 H 698.345 2.61046 -2.7683 0
M  V30 7297 H 697.857 1.06157 -3.73299 0
M  V30 7298 H 695.958 3.00028 -2.20939 0
M  V30 7299 H 696.071 2.56947 -4.0437 0
M  V30 7300 H 694.435 1.44667 -2.09627 0
M  V30 7301 H 695.218 0.41118 -3.40829 0
M  V30 7302 N 697.663 1.43903 0.642637 0
M  V30 7303 C 698.596 1.44339 1.76753 0
M  V30 7304 C 699.574 0.303558 1.59741 0
M  V30 7305 O 700.758 0.498775 1.81781 0
M  V30 7306 C 697.885 1.26508 3.14187 0
M  V30 7307 C 696.931 2.43905 3.49875 0
M  V30 7308 S 697.764 4.0645 3.48653 0
M  V30 7309 C 698.92 3.91021 4.88726 0
M  V30 7310 H 699.153 2.39523 1.76113 0
M  V30 7311 H 696.686 1.31061 0.81623 0
M  V30 7312 H 698.644 1.16908 3.93501 0
M  V30 7313 H 697.305 0.328548 3.12377 0
M  V30 7314 H 696.498 2.27262 4.49853 0
M  V30 7315 H 696.1 2.50186 2.77998 0
M  V30 7316 H 698.392 3.54 5.77659 0
M  V30 7317 H 699.335 4.9079 5.10423 0
M  V30 7318 H 699.743 3.23287 4.62759 0
M  V30 7319 N 699.141 -0.881989 1.30609 0
M  V30 7320 C 700.389 -1.63082 1.19368 0
M  V30 7321 C 700.71 -1.93376 -0.251147 0
M  V30 7322 O 699.98 -1.5723 -1.16857 0
M  V30 7323 H 698.56 -0.604542 0.438791 0
M  V30 7324 H 701.222 -1.05658 1.63776 0
M  V30 7325 H 700.318 -2.57966 1.7567 0
M  V30 7326 N 700.619 -1.13374 -1.09472 0
M  V30 7327 C 701.566 -0.810682 -2.16094 0
M  V30 7328 C 702.536 0.227003 -1.64541 0
M  V30 7329 O 703.721 0.0993538 -1.90541 0
M  V30 7330 C 700.861 -0.282336 -3.43943 0
M  V30 7331 C 699.974 -1.37902 -4.09398 0
M  V30 7332 C 699.109 -0.809066 -5.25002 0
M  V30 7333 C 698.148 -1.88419 -5.82379 0
M  V30 7334 N 697.285 -1.33221 -6.89345 0
M  V30 7335 H 702.125 -1.72397 -2.43071 0
M  V30 7336 H 699.662 -0.860564 -1.19301 0
M  V30 7337 H 701.62 0.0421189 -4.17179 0
M  V30 7338 H 700.25 0.594083 -3.17286 0
M  V30 7339 H 699.302 -1.82008 -3.34032 0
M  V30 7340 H 700.614 -2.19161 -4.48074 0
M  V30 7341 H 699.768 -0.435867 -6.05132 0
M  V30 7342 H 698.507 0.0346058 -4.87688 0
M  V30 7343 H 697.512 -2.26646 -5.00911 0
M  V30 7344 H 698.737 -2.73125 -6.21755 0
M  V30 7345 H 696.683 -0.510535 -6.5401 0
M  V30 7346 H 696.6 -2.08129 -7.26786 0
M  V30 7347 H 697.868 -0.986565 -7.73232 0
M  V30 7348 N 702.098 1.27442 -0.927168 0
M  V30 7349 C 703.509 1.76385 -0.611979 0
M  V30 7350 C 703.86 1.75715 0.872853 0
M  V30 7351 O 702.985 1.3603 1.683 0
M  V30 7352 C 703.58 3.20303 -1.10414 0
M  V30 7353 C 702.139 3.66916 -0.839628 0
M  V30 7354 C 701.286 2.46859 -1.26317 0
M  V30 7355 H 704.237 1.13716 -1.107 0
M  V30 7356 H 704.258 3.77811 -0.451578 0
M  V30 7357 H 703.77 3.20759 -2.18484 0
M  V30 7358 H 701.871 3.71906 0.227292 0
M  V30 7359 H 701.984 4.56415 -1.45679 0
M  V30 7360 H 700.348 2.45407 -0.681723 0
M  V30 7361 H 701.131 2.50025 -2.3525 0
M  V30 7362 N 703.576 0.692616 1.41565 0
M  V30 7363 C 704.509 -0.025063 2.28186 0
M  V30 7364 C 705.487 -0.790912 1.42068 0
M  V30 7365 O 706.671 -0.782344 1.71498 0
M  V30 7366 C 703.798 -1.04285 3.22246 0
M  V30 7367 C 702.844 -0.370515 4.24888 0
M  V30 7368 S 703.677 0.884942 5.28137 0
M  V30 7369 C 704.833 -0.131324 6.25762 0
M  V30 7370 H 705.066 0.709626 2.88707 0
M  V30 7371 H 702.599 0.482783 1.46658 0
M  V30 7372 H 704.557 -1.62493 3.7697 0
M  V30 7373 H 703.218 -1.7501 2.60827 0
M  V30 7374 H 702.411 -1.13911 4.90959 0
M  V30 7375 H 702.013 0.138411 3.73744 0
M  V30 7376 H 704.305 -0.985527 6.70294 0
M  V30 7377 H 705.248 0.495384 7.06365 0
M  V30 7378 H 705.656 -0.484777 5.62415 0
M  V30 7379 N 705.054 -1.51416 0.437162 0
M  V30 7380 C 706.3 -2.03035 -0.121818 0
M  V30 7381 C 706.655 -1.31551 -1.404 0
M  V30 7382 O 705.948 -0.421623 -1.86903 0
M  V30 7383 C 706.142 -3.55203 -0.39564 0
M  V30 7384 C 705.971 -4.4143 0.858452 0
M  V30 7385 C 704.741 -4.85751 1.39192 0
M  V30 7386 C 706.939 -4.83808 1.74454 0
M  V30 7387 N 704.921 -5.5619 2.59857 0
M  V30 7388 C 706.292 -5.53312 2.79724 0
M  V30 7389 C 708.347 -4.65795 1.75897 0
M  V30 7390 C 707.05 -6.06713 3.86383 0
M  V30 7391 C 709.076 -5.20112 2.81492 0
M  V30 7392 C 708.438 -5.89562 3.85482 0
M  V30 7393 H 704.537 -0.781981 -0.00541671 0
M  V30 7394 H 707.121 -1.85296 0.597792 0
M  V30 7395 H 705.292 -3.72958 -1.08429 0
M  V30 7396 H 707.024 -3.93489 -0.945963 0
M  V30 7397 H 703.779 -4.64058 0.945879 0
M  V30 7398 H 704.203 -5.96037 3.21044 0
M  V30 7399 H 708.845 -4.11562 0.968306 0
M  V30 7400 H 706.563 -6.6 4.66288 0
M  V30 7401 H 710.149 -5.08026 2.83551 0
M  V30 7402 H 709.029 -6.30838 4.65847 0
M  V30 7403 N 706.532 -0.168513 -1.56696 0
M  V30 7404 C 707.76 0.483503 -2.01171 0
M  V30 7405 C 708.175 1.56994 -1.04872 0
M  V30 7406 O 707.532 1.82434 -0.0491337 0
M  V30 7407 C 707.583 1.0644 -3.45475 0
M  V30 7408 O 707.304 0.0213375 -4.38095 0
M  V30 7409 C 708.805 1.79493 -4.05336 0
M  V30 7410 H 706.025 0.124002 -0.659443 0
M  V30 7411 H 708.569 -0.269419 -2.02717 0
M  V30 7412 H 706.724 1.76784 -3.44712 0
M  V30 7413 H 707.138 0.449837 -5.22567 0
M  V30 7414 H 708.612 2.15401 -5.08238 0
M  V30 7415 H 709.089 2.68889 -3.47269 0
M  V30 7416 H 709.695 1.13798 -4.09793 0
M  V30 7417 N 708.01 1.57248 0.105221 0
M  V30 7418 C 709.426 1.52853 0.459153 0
M  V30 7419 C 709.626 0.883674 1.8109 0
M  V30 7420 O 708.682 0.471864 2.48052 0
M  V30 7421 C 709.995 2.97596 0.43096 0
M  V30 7422 C 711.543 3.08758 0.513536 0
M  V30 7423 C 712.018 4.55089 0.515593 0
M  V30 7424 N 713.509 4.59597 0.576639 0
M  V30 7425 C 714.244 5.70253 0.599904 0
M  V30 7426 N 713.74 6.90368 0.579985 0
M  V30 7427 N 715.533 5.58399 0.643953 0
M  V30 7428 H 707.684 1.97547 -0.780306 0
M  V30 7429 H 709.947 0.902758 -0.289363 0
M  V30 7430 H 709.653 3.48201 -0.494903 0
M  V30 7431 H 709.527 3.55756 1.2537 0
M  V30 7432 H 711.914 2.58148 1.42982 0
M  V30 7433 H 711.995 2.53568 -0.337148 0
M  V30 7434 H 711.639 5.06348 -0.396701 0
M  V30 7435 H 711.569 5.08105 1.38335 0
M  V30 7436 H 714.06 3.73144 0.597639 0
M  V30 7437 H 714.373 7.70462 0.600741 0
M  V30 7438 H 712.718 6.92843 0.547191 0
M  V30 7439 H 715.909 4.63467 0.656975 0
M  V30 7440 H 716.082 6.44644 0.658616 0
M  V30 7441 N 709.488 -0.375779 1.53054 0
M  V30 7442 C 710.418 -1.46598 1.81745 0
M  V30 7443 C 711.399 -1.56337 0.670286 0
M  V30 7444 O 712.584 -1.71071 0.919158 0
M  V30 7445 C 709.714 -2.84058 1.99821 0
M  V30 7446 C 708.668 -2.8915 3.15557 0
M  V30 7447 C 707.994 -4.29187 3.18908 0
M  V30 7448 C 709.294 -2.57595 4.54359 0
M  V30 7449 H 710.988 -1.22837 2.73041 0
M  V30 7450 H 708.534 -0.589485 1.31381 0
M  V30 7451 H 710.487 -3.60342 2.18475 0
M  V30 7452 H 709.211 -3.09184 1.05226 0
M  V30 7453 H 707.87 -2.15316 2.96706 0
M  V30 7454 H 707.518 -4.51374 2.2197 0
M  V30 7455 H 707.218 -4.33512 3.96662 0
M  V30 7456 H 708.742 -5.07359 3.39734 0
M  V30 7457 H 710.156 -3.23595 4.73243 0
M  V30 7458 H 708.553 -2.73252 5.34279 0
M  V30 7459 H 709.623 -1.52882 4.60169 0
M  V30 7460 N 710.966 -1.44241 -0.634997 0
M  V30 7461 C 712.214 -1.46531 -1.39187 0
M  V30 7462 C 712.535 -0.0976441 -1.94755 0
M  V30 7463 O 711.805 0.869528 -1.75545 0
M  V30 7464 H 710.385 -0.539544 -0.516625 0
M  V30 7465 H 713.047 -1.79989 -0.747655 0
M  V30 7466 H 712.143 -2.18848 -2.22513 0
M  V30 7467 N 712.444 0.87505 -1.31075 0
M  V30 7468 C 713.669 1.66583 -1.23551 0
M  V30 7469 C 714.094 1.87067 0.19686 0
M  V30 7470 O 713.452 1.40877 1.1412 0
M  V30 7471 C 713.5 3.01401 -1.97965 0
M  V30 7472 O 712.604 3.90923 -1.31351 0
M  V30 7473 H 711.945 0.508645 -0.426821 0
M  V30 7474 H 714.475 1.09139 -1.7306 0
M  V30 7475 H 714.485 3.51374 -2.07366 0
M  V30 7476 H 713.16 2.85812 -3.02133 0
M  V30 7477 H 711.737 3.49369 -1.30368 0
M  V30 7478 N 713.922 1.13953 1.08869 0
M  V30 7479 C 715.168 0.916103 1.81602 0
M  V30 7480 C 715.523 -0.551633 1.84322 0
M  V30 7481 O 714.816 -1.40322 1.30462 0
M  V30 7482 C 715.01 1.44495 3.26888 0
M  V30 7483 C 714.839 2.96257 3.38322 0
M  V30 7484 C 713.609 3.64658 3.49789 0
M  V30 7485 C 715.807 3.94156 3.30372 0
M  V30 7486 N 713.789 5.04379 3.49965 0
M  V30 7487 C 715.16 5.20101 3.37484 0
M  V30 7488 C 717.215 3.86342 3.14077 0
M  V30 7489 C 715.918 6.39145 3.29979 0
M  V30 7490 C 717.944 5.04927 3.07901 0
M  V30 7491 C 717.306 6.29738 3.1561 0
M  V30 7492 H 713.405 0.388701 0.678554 0
M  V30 7493 H 715.989 1.44879 1.3007 0
M  V30 7494 H 714.16 0.939102 3.76876 0
M  V30 7495 H 715.892 1.16193 3.87661 0
M  V30 7496 H 712.647 3.15196 3.5348 0
M  V30 7497 H 713.071 5.77305 3.53622 0
M  V30 7498 H 717.713 2.90726 3.06982 0
M  V30 7499 H 715.431 7.3501 3.35836 0
M  V30 7500 H 719.017 5.00626 2.9642 0
M  V30 7501 H 717.897 7.19958 3.10854 0
M  V30 7502 N 715.4 -1.26948 0.933913 0
M  V30 7503 C 716.332 -2.25768 0.395137 0
M  V30 7504 C 717.345 -1.55637 -0.477585 0
M  V30 7505 O 718.534 -1.76142 -0.289204 0
M  V30 7506 C 715.634 -3.35874 -0.451882 0
M  V30 7507 C 714.807 -4.3554 0.40299 0
M  V30 7508 C 713.866 -5.24809 -0.3824 0
M  V30 7509 O 712.892 -5.68805 0.212057 0
M  V30 7510 N 714.094 -5.55636 -1.68072 0
M  V30 7511 H 716.859 -2.72634 1.24463 0
M  V30 7512 H 714.42 -1.40639 0.802008 0
M  V30 7513 H 716.412 -3.92542 -0.984516 0
M  V30 7514 H 714.982 -2.8856 -1.20215 0
M  V30 7515 H 714.202 -3.78047 1.11688 0
M  V30 7516 H 715.49 -4.99131 0.987201 0
M  V30 7517 H 714.888 -5.2176 -2.18592 0
M  V30 7518 H 713.445 -6.14978 -2.15975 0
M  V30 7519 N 716.879 -0.700114 -1.41195 0
M  V30 7520 C 718.127 -0.232546 -2.00758 0
M  V30 7521 C 718.448 1.1734 -1.55745 0
M  V30 7522 O 717.718 1.79262 -0.790058 0
M  V30 7523 H 716.298 -0.0829845 -0.742376 0
M  V30 7524 H 718.96 -0.902289 -1.72756 0
M  V30 7525 H 718.056 -0.253521 -3.11069 0
M  V30 7526 N 718.357 1.51182 -0.445186 0
M  V30 7527 C 719.605 2.01753 0.11841 0
M  V30 7528 C 719.926 1.33087 1.42523 0
M  V30 7529 O 719.196 0.467891 1.9023 0
M  V30 7530 H 717.776 0.745536 0.0467492 0
M  V30 7531 H 720.438 1.85765 -0.589688 0
M  V30 7532 H 719.534 3.10762 0.288665 0
M  V30 7533 N 719.835 0.176821 1.56605 0
M  V30 7534 C 720.782 -0.751312 2.18229 0
M  V30 7535 C 721.752 -1.22297 1.12395 0
M  V30 7536 O 722.937 -1.29015 1.40569 0
M  V30 7537 C 720.077 -1.97291 2.83143 0
M  V30 7538 C 719.19 -1.54431 4.03454 0
M  V30 7539 C 718.325 -2.72 4.56278 0
M  V30 7540 C 717.364 -2.25657 5.68986 0
M  V30 7541 N 716.501 -3.36338 6.16296 0
M  V30 7542 H 721.341 -0.219033 2.97194 0
M  V30 7543 H 718.878 -0.0963803 1.46784 0
M  V30 7544 H 720.836 -2.68949 3.1894 0
M  V30 7545 H 719.466 -2.4788 2.06773 0
M  V30 7546 H 718.518 -0.724273 3.73441 0
M  V30 7547 H 719.83 -1.16417 4.85024 0
M  V30 7548 H 718.984 -3.51806 4.94285 0
M  V30 7549 H 717.723 -3.13277 3.73777 0
M  V30 7550 H 716.728 -1.44299 5.30526 0
M  V30 7551 H 717.953 -1.85432 6.53293 0
M  V30 7552 H 715.899 -3.7718 5.36723 0
M  V30 7553 H 715.816 -3.02435 6.9287 0
M  V30 7554 H 717.084 -4.16413 6.58954 0
M  V30 7555 N 721.313 -1.57302 -0.09688 0
M  V30 7556 C 722.562 -1.85183 -0.799388 0
M  V30 7557 C 722.875 -0.765818 -1.79985 0
M  V30 7558 O 724.081 -0.931696 -2.55013 0
M  V30 7559 C 722.537 -3.28399 -1.47249 0
M  V30 7560 C 722.145 -4.45066 -0.511888 0
M  V30 7561 C 723.889 -3.65506 -2.15883 0
M  V30 7562 C 721.796 -5.79315 -1.18948 0
M  V30 7563 H 720.726 -0.690752 -0.302287 0
M  V30 7564 H 723.377 -1.83425 -0.0523104 0
M  V30 7565 H 721.759 -3.24692 -2.26697 0
M  V30 7566 H 722.933 -4.60116 0.250962 0
M  V30 7567 H 721.248 -4.16343 0.0686576 0
M  V30 7568 H 723.845 -4.63087 -2.67309 0
M  V30 7569 H 724.188 -2.94041 -2.94696 0
M  V30 7570 H 724.721 -3.71094 -1.43298 0
M  V30 7571 H 721.46 -6.54007 -0.442198 0
M  V30 7572 H 720.98 -5.68111 -1.9238 0
M  V30 7573 H 722.659 -6.23816 -1.71646 0
M  V30 7574 N 722.791 0.367657 -1.53252 0
M  V30 7575 C 724.037 1.11216 -1.69584 0
M  V30 7576 C 724.37 1.89026 -0.445269 0
M  V30 7577 O 723.645 1.86342 0.557404 0
M  V30 7578 C 723.928 2.07308 -2.94441 0
M  V30 7579 C 723.781 1.3312 -4.2965 0
M  V30 7580 C 725.1 3.07459 -3.14892 0
M  V30 7581 H 722.219 0.40294 -0.617096 0
M  V30 7582 H 724.861 0.393201 -1.85887 0
M  V30 7583 H 723.011 2.68617 -2.80673 0
M  V30 7584 H 724.683 0.746111 -4.55226 0
M  V30 7585 H 722.926 0.633051 -4.29156 0
M  V30 7586 H 723.597 2.03443 -5.13142 0
M  V30 7587 H 726.073 2.56252 -3.27832 0
M  V30 7588 H 724.949 3.71919 -4.03693 0
M  V30 7589 H 725.21 3.77514 -2.30077 0
M  V30 7590 N 724.269 1.44576 0.627338 0
M  V30 7591 C 725.202 1.46206 1.75212 0
M  V30 7592 C 726.18 0.320483 1.5941 0
M  V30 7593 O 727.364 0.518028 1.81242 0
M  V30 7594 C 724.491 1.29834 3.12827 0
M  V30 7595 C 723.537 2.47603 3.47268 0
M  V30 7596 S 724.37 4.10125 3.44322 0
M  V30 7597 C 725.526 3.96183 4.84551 0
M  V30 7598 H 725.759 2.41378 1.73563 0
M  V30 7599 H 723.292 1.3192 0.802283 0
M  V30 7600 H 725.25 1.21075 3.92239 0
M  V30 7601 H 723.911 0.361662 3.12011 0
M  V30 7602 H 723.104 2.3202 4.47418 0
M  V30 7603 H 722.706 2.53121 2.75329 0
M  V30 7604 H 724.998 3.60107 5.73872 0
M  V30 7605 H 725.941 4.96176 5.05188 0
M  V30 7606 H 726.349 3.28177 4.59304 0
M  V30 7607 N 725.747 -0.868086 1.31537 0
M  V30 7608 C 727.024 -1.60384 1.11965 0
M  V30 7609 C 727.404 -2.08584 -0.324949 0
M  V30 7610 O 726.752 -1.86561 -1.31937 0
M  V30 7611 C 726.962 -2.76038 2.13551 0
M  V30 7612 C 728.31 -3.45954 2.46173 0
M  V30 7613 O 729.334 -2.86247 2.11993 0
M  V30 7614 O 728.193 -4.53666 3.04711 0
M  V30 7615 H 725.287 -0.705705 0.431172 0
M  V30 7616 H 727.833 -0.913385 1.43022 0
M  V30 7617 H 726.605 -2.37849 3.10714 0
M  V30 7618 H 726.228 -3.52769 1.83411 0
M  V30 7619 N 727.225 -1.14528 -1.08264 0
M  V30 7620 C 728.455 -0.936604 -1.8415 0
M  V30 7621 C 728.863 0.518298 -1.81962 0
M  V30 7622 O 728.206 1.37096 -1.22272 0
M  V30 7623 C 728.268 -1.36182 -3.32708 0
M  V30 7624 C 727.932 -2.83257 -3.58629 0
M  V30 7625 C 728.929 -3.81366 -3.5335 0
M  V30 7626 C 726.614 -3.20704 -3.86593 0
M  V30 7627 C 728.608 -5.14929 -3.75668 0
M  V30 7628 C 726.295 -4.54443 -4.08564 0
M  V30 7629 C 727.293 -5.51365 -4.03095 0
M  V30 7630 O 726.981 -6.8269 -4.24488 0
M  V30 7631 H 726.713 -0.333254 -0.588148 0
M  V30 7632 H 729.267 -1.5247 -1.3763 0
M  V30 7633 H 727.497 -0.717063 -3.79994 0
M  V30 7634 H 729.186 -1.12372 -3.90035 0
M  V30 7635 H 729.952 -3.53781 -3.31759 0
M  V30 7636 H 725.831 -2.45857 -3.89969 0
M  V30 7637 H 729.375 -5.90568 -3.71315 0
M  V30 7638 H 725.272 -4.81747 -4.29639 0
M  V30 7639 H 726.04 -6.8897 -4.41886 0
M  V30 7640 N 728.703 1.26451 -0.940633 0
M  V30 7641 C 729.951 1.93395 -0.586748 0
M  V30 7642 C 730.272 1.7417 0.876921 0
M  V30 7643 O 729.542 1.097 1.62304 0
M  V30 7644 H 728.122 0.715687 -0.214012 0
M  V30 7645 H 730.784 1.53902 -1.19584 0
M  V30 7646 H 729.88 3.01565 -0.804059 0
M  V30 7647 N 730.181 0.707592 1.40822 0
M  V30 7648 C 731.43 0.240705 2.00259 0
M  V30 7649 C 731.743 -1.17027 1.56729 0
M  V30 7650 O 732.949 -1.73526 2.08809 0
M  V30 7651 C 731.405 0.379432 3.57894 0
M  V30 7652 C 731.013 1.79654 4.104 0
M  V30 7653 C 732.757 -0.0270684 4.24491 0
M  V30 7654 C 730.664 1.88628 5.60512 0
M  V30 7655 H 729.594 0.0862369 0.749052 0
M  V30 7656 H 732.245 0.877528 1.61157 0
M  V30 7657 H 730.627 -0.325842 3.94657 0
M  V30 7658 H 731.801 2.53155 3.85032 0
M  V30 7659 H 730.116 2.15379 3.56372 0
M  V30 7660 H 732.713 0.0193743 5.34696 0
M  V30 7661 H 733.056 -1.06772 4.02375 0
M  V30 7662 H 733.589 0.628361 3.92806 0
M  V30 7663 H 730.328 2.90787 5.87472 0
M  V30 7664 H 729.848 1.19528 5.8777 0
M  V30 7665 H 731.527 1.6547 6.25483 0
M  V30 7666 N 731.66 -1.50943 0.453197 0
M  V30 7667 C 732.906 -2.03153 -0.100277 0
M  V30 7668 C 733.261 -1.33032 -1.38997 0
M  V30 7669 O 732.554 -0.441423 -1.86446 0
M  V30 7670 C 732.748 -3.55603 -0.357944 0
M  V30 7671 C 732.577 -4.40495 0.905223 0
M  V30 7672 C 731.347 -4.84247 1.44337 0
M  V30 7673 C 733.545 -4.81931 1.79575 0
M  V30 7674 N 731.527 -5.53403 2.65742 0
M  V30 7675 C 732.898 -5.50314 2.85577 0
M  V30 7676 C 734.953 -4.63903 1.80828 0
M  V30 7677 C 733.656 -6.02581 3.92797 0
M  V30 7678 C 735.682 -5.17097 2.86993 0
M  V30 7679 C 735.044 -5.8544 3.91713 0
M  V30 7680 H 731.143 -0.781995 0.00287755 0
M  V30 7681 H 733.727 -1.84651 0.617411 0
M  V30 7682 H 731.898 -3.74087 -1.04467 0
M  V30 7683 H 733.63 -3.9447 -0.904175 0
M  V30 7684 H 730.385 -4.63029 0.995045 0
M  V30 7685 H 730.809 -5.92598 3.27348 0
M  V30 7686 H 735.451 -4.10512 1.0119 0
M  V30 7687 H 733.169 -6.55018 4.73262 0
M  V30 7688 H 736.755 -5.0499 2.88923 0
M  V30 7689 H 735.635 -6.25861 4.72512 0
M  V30 7690 N 733.138 -0.185124 -1.56509 0
M  V30 7691 C 734.549 0.329221 -1.83774 0
M  V30 7692 C 734.9 1.62093 -1.10545 0
M  V30 7693 O 734.025 2.13334 -0.36298 0
M  V30 7694 C 734.62 0.604099 -3.33371 0
M  V30 7695 C 733.179 1.06284 -3.61083 0
M  V30 7696 C 732.326 0.10608 -2.77097 0
M  V30 7697 H 735.277 -0.409116 -1.53336 0
M  V30 7698 H 735.298 1.45458 -3.51599 0
M  V30 7699 H 734.81 -0.336201 -3.86641 0
M  V30 7700 H 732.911 2.01777 -3.13236 0
M  V30 7701 H 733.024 0.962453 -4.69333 0
M  V30 7702 H 731.388 0.606082 -2.47384 0
M  V30 7703 H 732.171 -0.828486 -3.33153 0
M  V30 7704 N 734.616 1.57351 0.0885366 0
M  V30 7705 C 735.526 2.05858 1.12516 0
M  V30 7706 C 736.542 0.984758 1.43452 0
M  V30 7707 O 737.718 1.29836 1.53963 0
M  V30 7708 C 734.783 2.47882 2.42395 0
M  V30 7709 C 733.844 3.69487 2.18582 0
M  V30 7710 C 733.077 4.09497 3.42268 0
M  V30 7711 O 733.3 3.49536 4.50755 0
M  V30 7712 O 732.234 5.02406 3.31469 0
M  V30 7713 H 736.06 2.94467 0.743146 0
M  V30 7714 H 733.645 1.46326 0.301507 0
M  V30 7715 H 735.527 2.75509 3.18862 0
M  V30 7716 H 734.202 1.62408 2.8001 0
M  V30 7717 H 733.109 3.46967 1.39875 0
M  V30 7718 H 734.442 4.55761 1.85857 0
M  V30 7719 N 736.094 -0.359525 1.53444 0
M  V30 7720 C 737.026 -1.46098 1.76602 0
M  V30 7721 C 738.039 -1.49395 0.646912 0
M  V30 7722 O 739.228 -1.52765 0.923307 0
M  V30 7723 C 736.328 -2.84836 1.83635 0
M  V30 7724 C 735.501 -3.05164 3.13358 0
M  V30 7725 C 734.56 -4.24051 3.11556 0
M  V30 7726 O 733.586 -4.18935 3.85334 0
M  V30 7727 N 734.788 -5.31775 2.328 0
M  V30 7728 H 737.553 -1.2661 2.71643 0
M  V30 7729 H 735.114 -0.549294 1.52297 0
M  V30 7730 H 737.106 -3.62516 1.799 0
M  V30 7731 H 735.676 -2.97542 0.958509 0
M  V30 7732 H 734.896 -2.15091 3.30348 0
M  V30 7733 H 736.184 -3.15619 3.99076 0
M  V30 7734 H 735.582 -5.38796 1.7238 0
M  V30 7735 H 734.139 -6.0801 2.34877 0
M  V30 7736 N 737.572 -1.44907 -0.619662 0
M  V30 7737 C 738.535 -1.52282 -1.71297 0
M  V30 7738 C 739.535 -0.40359 -1.55653 0
M  V30 7739 O 740.725 -0.666638 -1.6094 0
M  V30 7740 C 737.857 -1.40778 -3.10474 0
M  V30 7741 H 739.05 -2.49683 -1.66128 0
M  V30 7742 H 736.603 -1.32168 -0.834339 0
M  V30 7743 H 737.338 -0.445156 -3.2123 0
M  V30 7744 H 737.123 -2.21947 -3.23237 0
M  V30 7745 H 738.613 -1.48946 -3.90135 0
M  V30 7746 N 739.05 0.861098 -1.31996 0
M  V30 7747 C 739.982 1.97551 -1.16216 0
M  V30 7748 C 740.995 1.625 -0.0988527 0
M  V30 7749 O 742.184 1.75091 -0.3472 0
M  V30 7750 C 739.284 3.30376 -0.755307 0
M  V30 7751 C 738.457 3.93711 -1.90552 0
M  V30 7752 C 737.516 5.04862 -1.48328 0
M  V30 7753 O 736.542 5.25204 -2.19431 0
M  V30 7754 N 737.744 5.79283 -0.375656 0
M  V30 7755 H 740.509 2.11632 -2.12208 0
M  V30 7756 H 738.07 1.03559 -1.24448 0
M  V30 7757 H 740.062 4.0213 -0.455364 0
M  V30 7758 H 738.632 3.12395 0.113269 0
M  V30 7759 H 737.852 3.14825 -2.37231 0
M  V30 7760 H 739.14 4.32762 -2.67571 0
M  V30 7761 H 738.538 5.65286 0.216284 0
M  V30 7762 H 737.095 6.5166 -0.135289 0
M  V30 7763 N 740.528 1.15101 1.07655 0
M  V30 7764 C 741.944 0.893004 1.32279 0
M  V30 7765 C 742.144 -0.461701 1.96139 0
M  V30 7766 O 741.2 -1.20431 2.21929 0
M  V30 7767 C 742.513 2.03161 2.21689 0
M  V30 7768 C 744.061 2.06579 2.35147 0
M  V30 7769 C 744.536 3.19754 3.27905 0
M  V30 7770 N 746.027 3.19382 3.35484 0
M  V30 7771 C 746.762 4.03592 4.07309 0
M  V30 7772 N 746.258 4.97859 4.81776 0
M  V30 7773 N 748.051 3.91626 4.03219 0
M  V30 7774 H 740.202 2.02341 0.645886 0
M  V30 7775 H 742.465 0.882127 0.347211 0
M  V30 7776 H 742.171 3.00934 1.82021 0
M  V30 7777 H 742.045 1.96132 3.22199 0
M  V30 7778 H 744.432 1.09408 2.74069 0
M  V30 7779 H 744.513 2.17676 1.34353 0
M  V30 7780 H 744.157 4.17175 2.89702 0
M  V30 7781 H 744.087 3.05893 4.28645 0
M  V30 7782 H 746.578 2.51112 2.82403 0
M  V30 7783 H 746.891 5.58563 5.34067 0
M  V30 7784 H 745.236 5.0185 4.80803 0
M  V30 7785 H 748.427 3.17295 3.44154 0
M  V30 7786 H 748.6 4.57479 4.5893 0
M  V30 7787 N 742.006 -1.2595 0.947325 0
M  V30 7788 C 742.956 -2.23859 0.432547 0
M  V30 7789 C 743.94 -1.53755 -0.474154 0
M  V30 7790 O 745.132 -1.74293 -0.308397 0
M  V30 7791 C 742.261 -3.42027 -0.295318 0
M  V30 7792 C 741.347 -4.19409 0.62903 0
M  V30 7793 N 741.738 -4.74284 1.7575 0
M  V30 7794 C 740.036 -4.43866 0.435805 0
M  V30 7795 C 740.737 -5.32821 2.33401 0
M  V30 7796 N 739.713 -5.18858 1.62135 0
M  V30 7797 H 743.515 -2.63886 1.29388 0
M  V30 7798 H 741.029 -1.41105 0.80393 0
M  V30 7799 H 743.026 -4.11297 -0.681188 0
M  V30 7800 H 741.686 -3.03526 -1.15334 0
M  V30 7801 H 742.697 -4.71641 2.13952 0
M  V30 7802 H 739.374 -4.15768 -0.37994 0
M  V30 7803 H 740.764 -5.86111 3.28517 0
M  V30 7804 N 743.484 -0.715051 -1.40445 0
M  V30 7805 C 744.431 -0.0621393 -2.30716 0
M  V30 7806 C 745.401 0.750871 -1.48159 0
M  V30 7807 O 746.586 0.714928 -1.76899 0
M  V30 7808 C 743.726 0.854036 -3.34365 0
M  V30 7809 C 742.839 0.0305565 -4.31989 0
M  V30 7810 C 741.974 0.946162 -5.22706 0
M  V30 7811 C 741.013 0.116741 -6.11989 0
M  V30 7812 N 740.15 0.987194 -6.95125 0
M  V30 7813 H 744.99 -0.83764 -2.85985 0
M  V30 7814 H 742.527 -0.424759 -1.40834 0
M  V30 7815 H 744.485 1.39946 -3.93028 0
M  V30 7816 H 743.115 1.59572 -2.806 0
M  V30 7817 H 742.167 -0.632044 -3.75112 0
M  V30 7818 H 743.479 -0.611615 -4.95036 0
M  V30 7819 H 742.633 1.56014 -5.86297 0
M  V30 7820 H 741.372 1.62216 -4.59932 0
M  V30 7821 H 740.377 -0.510176 -5.47428 0
M  V30 7822 H 741.602 -0.555742 -6.76822 0
M  V30 7823 H 739.548 1.64885 -6.3494 0
M  V30 7824 H 739.465 0.401046 -7.54936 0
M  V30 7825 H 740.733 1.58737 -7.63166 0
M  V30 7826 N 744.962 1.50701 -0.461195 0
M  V30 7827 C 746.19 2.06681 0.0951756 0
M  V30 7828 C 746.605 1.32615 1.34382 0
M  V30 7829 O 745.962 0.392531 1.78229 0
M  V30 7830 C 746.013 3.59354 0.393316 0
M  V30 7831 O 745.734 4.30626 -0.805797 0
M  V30 7832 C 747.235 4.31926 0.997744 0
M  V30 7833 H 744.455 0.670995 -0.00267259 0
M  V30 7834 H 746.999 1.93991 -0.647137 0
M  V30 7835 H 745.154 3.7188 1.08555 0
M  V30 7836 H 745.568 5.21667 -0.544409 0
M  V30 7837 H 747.042 5.39756 1.15619 0
M  V30 7838 H 747.519 3.91772 1.98523 0
M  V30 7839 H 748.125 4.23905 0.344188 0
M  V30 7840 N 746.441 0.193421 1.56409 0
M  V30 7841 C 747.391 -0.74089 2.15627 0
M  V30 7842 C 748.375 -1.17747 1.09656 0
M  V30 7843 O 749.567 -1.13615 1.35723 0
M  V30 7844 C 746.696 -1.96091 2.81786 0
M  V30 7845 C 745.782 -1.54531 3.94944 0
M  V30 7846 N 746.173 -0.840569 4.98767 0
M  V30 7847 C 744.471 -1.83473 4.06514 0
M  V30 7848 C 745.172 -0.632571 5.7825 0
M  V30 7849 N 744.148 -1.18078 5.30621 0
M  V30 7850 H 747.95 -0.193718 2.93261 0
M  V30 7851 H 745.464 -0.00643211 1.62399 0
M  V30 7852 H 747.461 -2.64071 3.22602 0
M  V30 7853 H 746.121 -2.51282 2.05639 0
M  V30 7854 H 747.132 -0.496218 5.15517 0
M  V30 7855 H 743.809 -2.40184 3.41493 0
M  V30 7856 H 745.199 -0.0736433 6.7186 0
M  V30 7857 N 747.919 -1.57396 -0.0801906 0
M  V30 7858 C 749.166 -1.86836 -0.780927 0
M  V30 7859 C 749.494 -0.784012 -1.77999 0
M  V30 7860 O 748.749 0.220881 -1.94449 0
M  V30 7861 C 749.048 -3.22915 -1.53169 0
M  V30 7862 C 748.714 -4.45843 -0.67339 0
M  V30 7863 C 747.376 -4.79213 -0.436829 0
M  V30 7864 C 749.728 -5.21142 -0.0776786 0
M  V30 7865 C 747.056 -5.853 0.405062 0
M  V30 7866 C 749.408 -6.28119 0.751619 0
M  V30 7867 C 748.072 -6.59995 0.998131 0
M  V30 7868 H 747.342 -0.683682 -0.285761 0
M  V30 7869 H 749.989 -1.91454 -0.0419435 0
M  V30 7870 H 748.294 -3.14049 -2.34265 0
M  V30 7871 H 749.991 -3.42926 -2.07853 0
M  V30 7872 H 746.581 -4.19721 -0.867891 0
M  V30 7873 H 750.765 -4.95682 -0.247572 0
M  V30 7874 H 746.021 -6.084 0.60488 0
M  V30 7875 H 750.195 -6.8563 1.22 0
M  V30 7876 H 747.822 -7.42027 1.65227 0
M  V30 7877 N 749.397 0.351382 -1.53633 0
M  V30 7878 C 750.329 1.45159 -1.77374 0
M  V30 7879 C 751.342 1.4905 -0.654826 0
M  V30 7880 O 752.531 1.52274 -0.931396 0
M  V30 7881 C 749.631 2.83858 -1.85143 0
M  V30 7882 C 748.804 3.03498 -3.14972 0
M  V30 7883 C 747.863 4.22393 -3.138 0
M  V30 7884 O 746.889 4.16885 -3.87551 0
M  V30 7885 N 748.091 5.30533 -2.35617 0
M  V30 7886 H 750.856 1.25167 -2.72311 0
M  V30 7887 H 748.417 0.54121 -1.52586 0
M  V30 7888 H 750.409 3.61557 -1.8182 0
M  V30 7889 H 748.979 2.9703 -0.974275 0
M  V30 7890 H 748.199 2.13336 -3.31484 0
M  V30 7891 H 749.487 3.13498 -4.00745 0
M  V30 7892 H 748.885 5.37875 -1.75235 0
M  V30 7893 H 747.442 6.06756 -2.38098 0
M  V30 7894 N 750.875 1.45233 0.611969 0
M  V30 7895 C 751.825 1.49997 1.71711 0
M  V30 7896 C 752.809 0.363689 1.56736 0
M  V30 7897 O 754.001 0.610261 1.66147 0
M  V30 7898 C 751.13 1.46537 3.10454 0
M  V30 7899 C 750.216 2.65351 3.30831 0
M  V30 7900 N 750.607 3.90485 3.21489 0
M  V30 7901 C 748.905 2.60955 3.61688 0
M  V30 7902 C 749.606 4.69758 3.43078 0
M  V30 7903 N 748.582 4.01141 3.66861 0
M  V30 7904 H 752.384 2.44574 1.62975 0
M  V30 7905 H 749.898 1.40464 0.815082 0
M  V30 7906 H 751.895 1.48035 3.89732 0
M  V30 7907 H 750.555 0.530139 3.20343 0
M  V30 7908 H 751.566 4.22171 2.99987 0
M  V30 7909 H 748.243 1.76319 3.78441 0
M  V30 7910 H 749.633 5.7877 3.41285 0
M  V30 7911 N 752.353 -0.854086 1.3245 0
M  V30 7912 C 753.764 -1.42427 1.20712 0
M  V30 7913 C 754.115 -1.95371 -0.18013 0
M  V30 7914 O 753.24 -1.87587 -1.07889 0
M  V30 7915 C 753.835 -2.58897 2.18536 0
M  V30 7916 C 752.394 -3.11913 2.10683 0
M  V30 7917 C 751.541 -1.84661 2.06871 0
M  V30 7918 H 754.492 -0.661192 1.4427 0
M  V30 7919 H 754.513 -3.36074 1.78422 0
M  V30 7920 H 754.025 -2.20333 3.19492 0
M  V30 7921 H 752.126 -3.55059 1.12977 0
M  V30 7922 H 752.239 -3.73119 3.00532 0
M  V30 7923 H 750.603 -2.04285 1.52118 0
M  V30 7924 H 751.386 -1.48314 3.09609 0
M  V30 7925 N 753.831 -1.1567 -1.07043 0
M  V30 7926 C 755.056 -0.957946 -1.83952 0
M  V30 7927 C 755.481 0.488807 -1.81638 0
M  V30 7928 O 754.839 1.34869 -1.21162 0
M  V30 7929 C 754.887 -1.48064 -3.288 0
M  V30 7930 O 753.991 -0.681921 -4.06723 0
M  V30 7931 H 753.332 -0.341453 -0.569479 0
M  V30 7932 H 755.862 -1.53728 -1.35015 0
M  V30 7933 H 755.872 -1.49484 -3.7963 0
M  V30 7934 H 754.547 -2.53388 -3.29799 0
M  V30 7935 H 753.124 -0.737612 -3.65532 0
M  V30 7936 N 755.309 1.25446 -0.953992 0
M  V30 7937 C 756.256 2.25912 -0.472485 0
M  V30 7938 C 757.226 1.59173 0.47469 0
M  V30 7939 O 758.411 1.86812 0.388082 0
M  V30 7940 C 755.551 3.44235 0.244218 0
M  V30 7941 C 754.664 4.25613 -0.740121 0
M  V30 7942 C 753.799 5.312 -0.000922267 0
M  V30 7943 C 752.838 6.04265 -0.976236 0
M  V30 7944 N 751.975 7.01589 -0.267952 0
M  V30 7945 H 756.815 2.66469 -1.3341 0
M  V30 7946 H 754.352 1.31005 -0.669045 0
M  V30 7947 H 756.31 4.11682 0.676314 0
M  V30 7948 H 754.94 3.04554 1.06988 0
M  V30 7949 H 753.992 3.57834 -1.2907 0
M  V30 7950 H 755.304 4.762 -1.48441 0
M  V30 7951 H 754.458 6.04719 0.48984 0
M  V30 7952 H 753.197 4.81484 0.776159 0
M  V30 7953 H 752.202 5.29561 -1.478 0
M  V30 7954 H 753.427 6.5607 -1.75354 0
M  V30 7955 H 751.373 6.54164 0.490403 0
M  V30 7956 H 751.29 7.4999 -0.951344 0
M  V30 7957 H 752.558 7.7924 0.201294 0
M  V30 7958 N 756.787 0.722489 1.40064 0
M  V30 7959 C 757.717 0.0892452 2.33329 0
M  V30 7960 C 758.698 -0.737992 1.53257 0
M  V30 7961 O 759.883 -0.685516 1.81698 0
M  V30 7962 C 757.013 -0.828139 3.37282 0
M  V30 7963 C 755.967 -0.106005 4.27869 0
M  V30 7964 C 755.293 -1.13957 5.22415 0
M  V30 7965 C 756.593 1.04395 5.11761 0
M  V30 7966 H 758.287 0.868269 2.86534 0
M  V30 7967 H 755.833 0.418982 1.3777 0
M  V30 7968 H 757.786 -1.28058 4.01471 0
M  V30 7969 H 756.51 -1.63914 2.82489 0
M  V30 7970 H 755.169 0.326683 3.65142 0
M  V30 7971 H 754.817 -1.9438 4.63924 0
M  V30 7972 H 754.517 -0.661233 5.83868 0
M  V30 7973 H 756.041 -1.59197 5.89482 0
M  V30 7974 H 757.455 0.670541 5.69365 0
M  V30 7975 H 755.852 1.4511 5.82291 0
M  V30 7976 H 756.922 1.87144 4.47331 0
M  V30 7977 N 758.265 -1.50454 0.469181 0
M  V30 7978 C 759.215 -2.25381 -0.344582 0
M  V30 7979 C 760.199 -1.28892 -0.963098 0
M  V30 7980 O 761.391 -1.53805 -0.875964 0
M  V30 7981 C 758.52 -3.12232 -1.4271 0
M  V30 7982 C 757.606 -4.16168 -0.816411 0
M  V30 7983 N 757.997 -5.05762 0.0621424 0
M  V30 7984 C 756.295 -4.32712 -1.08056 0
M  V30 7985 C 756.996 -5.80264 0.408519 0
M  V30 7986 N 755.972 -5.43171 -0.215827 0
M  V30 7987 H 759.774 -2.92016 0.332237 0
M  V30 7988 H 757.288 -1.59911 0.283209 0
M  V30 7989 H 759.285 -3.64514 -2.02324 0
M  V30 7990 H 757.945 -2.47145 -2.10593 0
M  V30 7991 H 758.956 -5.16105 0.430841 0
M  V30 7992 H 755.633 -3.78844 -1.75452 0
M  V30 7993 H 757.023 -6.62408 1.12539 0
M  V30 7994 N 759.743 -0.201713 -1.56304 0
M  V30 7995 C 760.673 0.71155 -2.22394 0
M  V30 7996 C 761.654 1.21625 -1.18917 0
M  V30 7997 O 762.839 1.26388 -1.47444 0
M  V30 7998 C 759.969 1.92837 -2.88845 0
M  V30 7999 C 758.923 1.55831 -3.98623 0
M  V30 8000 C 758.249 2.85228 -4.52271 0
M  V30 8001 C 759.549 0.763249 -5.16693 0
M  V30 8002 H 761.243 0.160573 -2.98969 0
M  V30 8003 H 758.789 0.0757916 -1.438 0
M  V30 8004 H 760.742 2.57253 -3.33764 0
M  V30 8005 H 759.466 2.50398 -2.09686 0
M  V30 8006 H 758.125 0.9377 -3.54405 0
M  V30 8007 H 757.773 3.40893 -3.69866 0
M  V30 8008 H 757.473 2.6121 -5.26349 0
M  V30 8009 H 758.997 3.50622 -4.99897 0
M  V30 8010 H 760.411 1.31066 -5.58117 0
M  V30 8011 H 758.808 0.620935 -5.96879 0
M  V30 8012 H 759.878 -0.234322 -4.84334 0
M  V30 8013 N 761.222 1.57436 0.0718424 0
M  V30 8014 C 762.638 1.53792 0.426628 0
M  V30 8015 C 762.838 0.921887 1.79174 0
M  V30 8016 O 761.894 0.524374 2.46995 0
M  V30 8017 C 763.207 2.98443 0.367739 0
M  V30 8018 C 764.755 3.09778 0.447928 0
M  V30 8019 C 765.23 4.5608 0.418946 0
M  V30 8020 N 766.721 4.60716 0.479022 0
M  V30 8021 C 767.456 5.71397 0.47881 0
M  V30 8022 N 766.952 6.91443 0.433417 0
M  V30 8023 N 768.745 5.59639 0.525364 0
M  V30 8024 H 760.896 1.95848 -0.822033 0
M  V30 8025 H 763.159 0.896418 -0.308447 0
M  V30 8026 H 762.865 3.47072 -0.56865 0
M  V30 8027 H 762.739 3.58335 1.17795 0
M  V30 8028 H 765.126 2.61122 1.37474 0
M  V30 8029 H 765.207 2.52796 -0.390857 0
M  V30 8030 H 764.851 5.05393 -0.504016 0
M  V30 8031 H 764.781 5.10925 1.27526 0
M  V30 8032 H 767.272 3.74328 0.518355 0
M  V30 8033 H 767.585 7.71562 0.43718 0
M  V30 8034 H 765.93 6.93847 0.400106 0
M  V30 8035 H 769.121 4.64756 0.558519 0
M  V30 8036 H 769.294 6.45896 0.52173 0
M  V30 8037 N 762.7 -0.34323 1.53817 0
M  V30 8038 C 763.946 -1.08504 1.71332 0
M  V30 8039 C 764.279 -1.88294 0.475285 0
M  V30 8040 O 763.554 -1.87205 -0.527688 0
M  V30 8041 C 763.837 -2.02597 2.97702 0
M  V30 8042 C 763.69 -1.26268 4.31713 0
M  V30 8043 C 765.009 -3.0241 3.19744 0
M  V30 8044 H 762.128 -0.393072 0.623429 0
M  V30 8045 H 764.77 -0.363579 1.86489 0
M  V30 8046 H 762.92 -2.64118 2.8491 0
M  V30 8047 H 764.592 -0.673594 4.56356 0
M  V30 8048 H 762.835 -0.564696 4.30109 0
M  V30 8049 H 763.506 -1.95253 5.16314 0
M  V30 8050 H 765.982 -2.51004 3.31868 0
M  V30 8051 H 764.858 -3.65449 4.09558 0
M  V30 8052 H 765.119 -3.73806 2.36054 0
M  V30 8053 N 764.178 -1.45556 -0.604258 0
M  V30 8054 C 765.424 -1.49968 -1.36519 0
M  V30 8055 C 765.757 -0.142236 -1.93678 0
M  V30 8056 O 765.032 0.843717 -1.75247 0
M  V30 8057 C 765.315 -2.58146 -2.51063 0
M  V30 8058 C 765.168 -4.03346 -1.99078 0
M  V30 8059 C 766.487 -2.62581 -3.53184 0
M  V30 8060 H 763.606 -0.545993 -0.495036 0
M  V30 8061 H 766.248 -1.77382 -0.680845 0
M  V30 8062 H 764.398 -2.34901 -3.09441 0
M  V30 8063 H 766.07 -4.37811 -1.45323 0
M  V30 8064 H 764.313 -4.13845 -1.30055 0
M  V30 8065 H 764.984 -4.74731 -2.81664 0
M  V30 8066 H 767.46 -2.83419 -3.04652 0
M  V30 8067 H 766.336 -3.40131 -4.30816 0
M  V30 8068 H 766.597 -1.67798 -4.09019 0
M  V30 8069 N 765.656 0.84705 -1.32902 0
M  V30 8070 C 766.884 1.63403 -1.26913 0
M  V30 8071 C 767.299 1.88108 0.161483 0
M  V30 8072 O 766.656 1.45546 1.10103 0
M  V30 8073 C 766.707 2.98896 -2.03331 0
M  V30 8074 O 766.428 2.75281 -3.40811 0
M  V30 8075 C 767.929 3.93335 -2.04457 0
M  V30 8076 H 765.149 0.508701 -0.437566 0
M  V30 8077 H 767.693 1.05567 -1.75145 0
M  V30 8078 H 765.848 3.53356 -1.58802 0
M  V30 8079 H 766.262 3.61504 -3.8002 0
M  V30 8080 H 767.736 4.85647 -2.62394 0
M  V30 8081 H 768.213 4.26885 -1.03274 0
M  V30 8082 H 768.819 3.44812 -2.48967 0
M  V30 8083 N 767.134 1.16236 1.06428 0
M  V30 8084 C 768.064 0.890807 2.1584 0
M  V30 8085 C 769.045 -0.162333 1.69324 0
M  V30 8086 O 770.23 -0.0147191 1.94194 0
M  V30 8087 C 767.36 0.389615 3.45108 0
M  V30 8088 C 766.314 1.38051 4.05125 0
M  V30 8089 C 765.64 0.737773 5.29586 0
M  V30 8090 C 766.94 2.74965 4.44062 0
M  V30 8091 H 768.634 1.80577 2.38814 0
M  V30 8092 H 766.18 0.869657 1.14774 0
M  V30 8093 H 768.133 0.187127 4.20984 0
M  V30 8094 H 766.857 -0.560851 3.21748 0
M  V30 8095 H 765.516 1.56952 3.31303 0
M  V30 8096 H 765.164 -0.219135 5.02522 0
M  V30 8097 H 764.864 1.39914 5.70699 0
M  V30 8098 H 766.388 0.545275 6.0816 0
M  V30 8099 H 767.802 2.59855 5.11027 0
M  V30 8100 H 766.199 3.37563 4.96156 0
M  V30 8101 H 767.269 3.30321 3.54987 0
M  V30 8102 N 768.612 -1.24939 0.960631 0
M  V30 8103 C 769.861 -1.92118 0.614298 0
M  V30 8104 C 770.174 -1.75998 -0.853474 0
M  V30 8105 O 771.38 -2.37804 -1.31003 0
M  V30 8106 C 769.836 -3.44303 1.04801 0
M  V30 8107 C 769.444 -3.69123 2.53875 0
M  V30 8108 C 771.188 -4.17375 0.774497 0
M  V30 8109 C 769.095 -5.14843 2.91016 0
M  V30 8110 H 768.025 -0.719319 0.226045 0
M  V30 8111 H 770.676 -1.41701 1.16589 0
M  V30 8112 H 769.058 -3.93715 0.42479 0
M  V30 8113 H 770.232 -3.30339 3.21267 0
M  V30 8114 H 768.547 -3.09323 2.78762 0
M  V30 8115 H 771.144 -5.24723 1.02808 0
M  V30 8116 H 771.487 -4.15294 -0.289192 0
M  V30 8117 H 772.02 -3.7389 1.35835 0
M  V30 8118 H 768.759 -5.2204 3.96427 0
M  V30 8119 H 768.279 -5.54652 2.28302 0
M  V30 8120 H 769.958 -5.83017 2.80535 0
M  V30 8121 N 770.09 -0.729906 -1.39679 0
M  V30 8122 C 771 -0.0880322 -2.34435 0
M  V30 8123 C 772.016 0.727674 -1.58053 0
M  V30 8124 O 773.192 0.657321 -1.90371 0
M  V30 8125 C 770.257 0.812211 -3.37052 0
M  V30 8126 C 769.318 -0.0151681 -4.29297 0
M  V30 8127 C 768.551 0.842202 -5.27013 0
M  V30 8128 O 768.774 2.08108 -5.31081 0
M  V30 8129 O 767.708 0.27357 -6.01278 0
M  V30 8130 H 771.534 -0.869989 -2.90972 0
M  V30 8131 H 769.119 -0.490522 -1.41118 0
M  V30 8132 H 771.001 1.32745 -3.99946 0
M  V30 8133 H 769.676 1.57307 -2.82907 0
M  V30 8134 H 768.583 -0.575811 -3.69642 0
M  V30 8135 H 769.916 -0.738129 -4.86634 0
M  V30 8136 N 771.568 1.50203 -0.477153 0
M  V30 8137 C 772.518 2.25561 0.332625 0
M  V30 8138 C 773.502 1.29401 0.956249 0
M  V30 8139 O 774.694 1.54267 0.867795 0
M  V30 8140 C 771.823 3.12984 1.41052 0
M  V30 8141 C 770.909 4.16595 0.79433 0
M  V30 8142 N 771.3 5.05722 -0.0889633 0
M  V30 8143 C 769.598 4.33279 1.0576 0
M  V30 8144 C 770.299 5.80039 -0.439286 0
M  V30 8145 N 769.275 5.43278 0.187018 0
M  V30 8146 H 773.077 2.91836 -0.347718 0
M  V30 8147 H 770.591 1.59759 -0.291686 0
M  V30 8148 H 772.588 3.65582 2.00388 0
M  V30 8149 H 771.248 2.48258 2.09279 0
M  V30 8150 H 772.259 5.15869 -0.458205 0
M  V30 8151 H 768.936 3.79769 1.7344 0
M  V30 8152 H 770.326 6.61802 -1.1605 0
M  V30 8153 N 773.046 0.209999 1.56195 0
M  V30 8154 C 774.457 -0.299943 1.84275 0
M  V30 8155 C 774.808 -1.60314 1.1311 0
M  V30 8156 O 773.933 -2.1273 0.396874 0
M  V30 8157 C 774.528 -0.550986 3.3429 0
M  V30 8158 C 773.087 -1.00526 3.62728 0
M  V30 8159 C 772.234 -0.0619828 2.77231 0
M  V30 8160 H 775.185 0.433458 1.52666 0
M  V30 8161 H 775.206 -1.39846 3.53869 0
M  V30 8162 H 774.718 0.397669 3.86057 0
M  V30 8163 H 772.819 -1.96768 3.16407 0
M  V30 8164 H 772.932 -0.887664 4.70805 0
M  V30 8165 H 771.296 -0.566648 2.48317 0
M  V30 8166 H 772.079 0.881383 3.31793 0
M  V30 8167 N 774.524 -1.57472 -0.0634922 0
M  V30 8168 C 775.771 -1.87654 -0.761066 0
M  V30 8169 C 776.099 -0.802847 -1.77157 0
M  V30 8170 O 775.354 0.200244 -1.94673 0
M  V30 8171 C 775.653 -3.24521 -1.49736 0
M  V30 8172 C 775.319 -4.46532 -0.626065 0
M  V30 8173 C 773.981 -4.7965 -0.385978 0
M  V30 8174 C 776.333 -5.21195 -0.0224001 0
M  V30 8175 C 773.661 -5.84837 0.467118 0
M  V30 8176 C 776.013 -6.27286 0.818198 0
M  V30 8177 C 774.677 -6.58899 1.06808 0
M  V30 8178 H 773.947 -0.686675 -0.278494 0
M  V30 8179 H 776.594 -1.91488 -0.0216348 0
M  V30 8180 H 774.899 -3.16516 -2.30921 0
M  V30 8181 H 776.596 -3.45111 -2.04204 0
M  V30 8182 H 773.186 -4.20618 -0.823325 0
M  V30 8183 H 777.37 -4.95917 -0.194985 0
M  V30 8184 H 772.626 -6.07725 0.669375 0
M  V30 8185 H 776.8 -6.84298 1.29265 0
M  V30 8186 H 774.427 -7.40233 1.73088 0
M  V30 8187 N 776.003 0.335068 -1.53997 0
M  V30 8188 C 777.249 1.07594 -1.71905 0
M  V30 8189 C 777.582 1.88039 -0.485264 0
M  V30 8190 O 776.857 1.87482 0.517752 0
M  V30 8191 C 777.14 2.01016 -2.98772 0
M  V30 8192 C 776.993 1.23977 -4.32377 0
M  V30 8193 C 778.312 3.0071 -3.21343 0
M  V30 8194 H 775.431 0.38976 -0.625505 0
M  V30 8195 H 778.073 0.353684 -1.86679 0
M  V30 8196 H 776.223 2.62603 -2.86307 0
M  V30 8197 H 777.895 0.649383 -4.56706 0
M  V30 8198 H 776.138 0.541878 -4.30402 0
M  V30 8199 H 776.809 1.92512 -5.17342 0
M  V30 8200 H 779.285 2.4924 -3.33194 0
M  V30 8201 H 778.161 3.63272 -4.11491 0
M  V30 8202 H 778.422 3.72549 -2.38033 0
M  V30 8203 N 777.481 1.45874 0.596531 0
M  V30 8204 C 778.728 1.50467 1.35521 0
M  V30 8205 C 779.056 0.150802 1.93915 0
M  V30 8206 O 778.311 -0.851913 1.76184 0
M  V30 8207 C 778.61 2.54034 2.51399 0
M  V30 8208 C 778.276 3.9844 2.11085 0
M  V30 8209 C 776.938 4.37758 1.99804 0
M  V30 8210 C 779.29 4.89209 1.79788 0
M  V30 8211 C 776.618 5.65727 1.55465 0
M  V30 8212 C 778.97 6.17602 1.36931 0
M  V30 8213 C 777.634 6.5584 1.24218 0
M  V30 8214 H 776.904 0.550597 0.495907 0
M  V30 8215 H 779.551 1.79279 0.673145 0
M  V30 8216 H 777.856 2.18832 3.24992 0
M  V30 8217 H 779.553 2.54822 3.09624 0
M  V30 8218 H 776.143 3.67353 2.20794 0
M  V30 8219 H 780.327 4.59562 1.87395 0
M  V30 8220 H 775.583 5.94139 1.44253 0
M  V30 8221 H 779.757 6.87373 1.11764 0
M  V30 8222 H 777.384 7.54897 0.896353 0
M  V30 8223 N 778.959 -0.83999 1.33349 0
M  V30 8224 C 780.187 -1.62728 1.27778 0
M  V30 8225 C 780.602 -1.88191 -0.151505 0
M  V30 8226 O 779.959 -1.46128 -1.09329 0
M  V30 8227 C 780.01 -2.97813 2.04913 0
M  V30 8228 O 779.731 -2.73469 3.42266 0
M  V30 8229 C 781.232 -3.92245 2.0654 0
M  V30 8230 H 778.452 -0.506374 0.440257 0
M  V30 8231 H 780.996 -1.04637 1.75703 0
M  V30 8232 H 779.151 -3.52509 1.60674 0
M  V30 8233 H 779.565 -3.59483 3.81932 0
M  V30 8234 H 781.039 -4.84249 2.64966 0
M  V30 8235 H 781.516 -4.26332 1.05537 0
M  V30 8236 H 782.122 -3.43487 2.50793 0
M  V30 8237 N 780.437 -1.16799 -1.0581 0
M  V30 8238 C 781.853 -0.913935 -1.30841 0
M  V30 8239 C 782.053 0.430439 -1.96849 0
M  V30 8240 O 781.109 1.16885 -2.23817 0
M  V30 8241 C 782.422 -2.06662 -2.18429 0
M  V30 8242 C 783.97 -2.10294 -2.31831 0
M  V30 8243 C 784.445 -3.2493 -3.22776 0
M  V30 8244 N 785.936 -3.24678 -3.30361 0
M  V30 8245 C 786.671 -4.10021 -4.00837 0
M  V30 8246 N 786.167 -5.05461 -4.73795 0
M  V30 8247 N 787.96 -3.97991 -3.96937 0
M  V30 8248 H 780.111 -2.03343 -0.613613 0
M  V30 8249 H 782.374 -0.88754 -0.333133 0
M  V30 8250 H 782.08 -3.03791 -1.77211 0
M  V30 8251 H 781.954 -2.01233 -3.19038 0
M  V30 8252 H 784.341 -1.13754 -2.72294 0
M  V30 8253 H 784.422 -2.19786 -1.30873 0
M  V30 8254 H 784.066 -4.21731 -2.83028 0
M  V30 8255 H 783.996 -3.12674 -4.23725 0
M  V30 8256 H 786.487 -2.55573 -2.78372 0
M  V30 8257 H 786.8 -5.66989 -5.25113 0
M  V30 8258 H 785.145 -5.09436 -4.72758 0
M  V30 8259 H 788.336 -3.2273 -3.39062 0
M  V30 8260 H 788.509 -4.64722 -4.51594 0
M  V30 8261 N 781.915 1.24427 -0.967243 0
M  V30 8262 C 782.825 2.29109 -0.504592 0
M  V30 8263 C 783.841 1.68495 0.434224 0
M  V30 8264 O 785.017 1.99041 0.307379 0
M  V30 8265 C 782.082 3.46133 0.198273 0
M  V30 8266 C 781.143 4.22149 -0.780313 0
M  V30 8267 C 780.376 5.33585 -0.110896 0
M  V30 8268 O 780.599 5.59676 1.10088 0
M  V30 8269 O 779.533 5.96522 -0.802823 0
M  V30 8270 H 783.359 2.708 -1.37482 0
M  V30 8271 H 780.944 1.30111 -0.73426 0
M  V30 8272 H 782.826 4.17205 0.593124 0
M  V30 8273 H 781.501 3.0642 1.04347 0
M  V30 8274 H 780.408 3.53454 -1.22561 0
M  V30 8275 H 781.741 4.65677 -1.59392 0
M  V30 8276 N 783.393 0.737304 1.3929 0
M  V30 8277 C 784.639 0.286681 2.00763 0
M  V30 8278 C 784.972 -1.12388 1.58375 0
M  V30 8279 O 784.247 -1.76661 0.813699 0
M  V30 8280 C 784.53 0.391147 3.57969 0
M  V30 8281 C 784.383 1.84165 4.1037 0
M  V30 8282 C 785.702 -0.225072 4.39524 0
M  V30 8283 H 782.821 0.105642 0.729389 0
M  V30 8284 H 785.463 0.933892 1.65464 0
M  V30 8285 H 783.613 -0.159875 3.88171 0
M  V30 8286 H 785.285 2.44972 3.90879 0
M  V30 8287 H 783.528 2.3622 3.63844 0
M  V30 8288 H 784.199 1.866 5.19504 0
M  V30 8289 H 786.675 0.244677 4.1538 0
M  V30 8290 H 785.551 -0.121646 5.48765 0
M  V30 8291 H 785.812 -1.31141 4.22202 0
M  V30 8292 N 784.871 -1.49948 0.485112 0
M  V30 8293 C 786.148 -1.95186 -0.12726 0
M  V30 8294 C 786.528 -1.42605 -1.5565 0
M  V30 8295 O 785.876 -0.632986 -2.19558 0
M  V30 8296 C 786.086 -3.48955 -0.0562117 0
M  V30 8297 C 787.434 -4.23932 -0.238106 0
M  V30 8298 O 788.458 -3.55955 -0.132145 0
M  V30 8299 O 787.317 -5.44614 -0.453658 0
M  V30 8300 H 784.411 -0.820433 -0.104014 0
M  V30 8301 H 786.957 -1.60659 0.546517 0
M  V30 8302 H 785.729 -3.79814 0.941122 0
M  V30 8303 H 785.352 -3.90056 -0.770834 0
M  V30 8304 N 786.349 -0.21828 -1.56081 0
M  V30 8305 C 787.626 0.463143 -1.90038 0
M  V30 8306 C 788.006 1.77982 -1.13515 0
M  V30 8307 O 787.354 2.27199 -0.24345 0
M  V30 8308 C 787.564 0.659292 -3.42716 0
M  V30 8309 C 788.912 0.968203 -4.13414 0
M  V30 8310 O 789.936 0.746195 -3.48296 0
M  V30 8311 O 788.795 1.38936 -5.28544 0
M  V30 8312 H 785.889 0.244435 -0.790051 0
M  V30 8313 H 788.435 -0.260221 -1.67693 0
M  V30 8314 H 787.207 -0.269584 -3.9037 0
M  V30 8315 H 786.83 1.43426 -3.7083 0
M  V30 8316 N 787.827 1.57504 0.0551401 0
M  V30 8317 C 788.737 2.08198 1.08124 0
M  V30 8318 C 789.753 1.01496 1.41331 0
M  V30 8319 O 790.929 1.33073 1.51174 0
M  V30 8320 C 787.994 2.52968 2.37083 0
M  V30 8321 C 787.055 3.7404 2.10696 0
M  V30 8322 C 786.288 4.16665 3.33505 0
M  V30 8323 O 786.511 3.59019 4.4324 0
M  V30 8324 O 785.445 5.09324 3.20737 0
M  V30 8325 H 789.271 2.95977 0.680518 0
M  V30 8326 H 786.856 1.46933 0.270401 0
M  V30 8327 H 788.738 2.82211 3.12946 0
M  V30 8328 H 787.413 1.6831 2.76502 0
M  V30 8329 H 786.32 3.49855 1.32484 0
M  V30 8330 H 787.653 4.59601 1.76148 0
M  V30 8331 N 789.305 -0.326896 1.54172 0
M  V30 8332 C 790.553 -1.06313 1.71878 0
M  V30 8333 C 790.874 -1.88652 0.493498 0
M  V30 8334 O 790.144 -1.89608 -0.492522 0
M  V30 8335 H 788.724 -0.39549 0.633716 0
M  V30 8336 H 791.386 -0.364139 1.91468 0
M  V30 8337 H 790.482 -1.73105 2.59694 0
M  V30 8338 N 790.784 -1.46188 -0.588786 0
M  V30 8339 C 791.714 -1.59148 -1.70863 0
M  V30 8340 C 792.695 -0.442083 -1.64255 0
M  V30 8341 O 793.88 -0.667575 -1.82365 0
M  V30 8342 C 791.01 -1.5757 -3.09498 0
M  V30 8343 C 789.964 -2.71418 -3.30932 0
M  V30 8344 C 789.29 -2.549 -4.70032 0
M  V30 8345 C 790.59 -4.1329 -3.19356 0
M  V30 8346 H 792.284 -2.52889 -1.60274 0
M  V30 8347 H 789.83 -1.21707 -0.769638 0
M  V30 8348 H 791.783 -1.65231 -3.87655 0
M  V30 8349 H 790.507 -0.603705 -3.20972 0
M  V30 8350 H 789.166 -2.63216 -2.55172 0
M  V30 8351 H 788.814 -1.55797 -4.78264 0
M  V30 8352 H 788.514 -3.31257 -4.85327 0
M  V30 8353 H 790.038 -2.64443 -5.50366 0
M  V30 8354 H 791.452 -4.22636 -3.87365 0
M  V30 8355 H 789.849 -4.90187 -3.46175 0
M  V30 8356 H 790.919 -4.33874 -2.16522 0
M  V30 8357 N 792.262 0.832906 -1.33792 0
M  V30 8358 C 793.502 1.60217 -1.26925 0
M  V30 8359 C 793.866 1.91323 0.161146 0
M  V30 8360 O 795.067 2.66461 0.353864 0
M  V30 8361 C 793.338 2.87314 -2.12568 0
M  V30 8362 S 794.897 3.77939 -2.22952 0
M  V30 8363 H 791.715 0.549273 -0.451464 0
M  V30 8364 H 794.317 0.984648 -1.68893 0
M  V30 8365 H 793.021 2.62444 -3.15518 0
M  V30 8366 H 792.552 3.5407 -1.71459 0
M  V30 8367 H 794.567 4.76188 -1.39496 0
M  V30 8368 N 793.74 1.17359 1.05189 0
M  V30 8369 C 795.151 0.96793 1.5965 0
M  V30 8370 C 795.502 -0.485355 1.90102 0
M  V30 8371 O 794.627 -1.36066 1.6827 0
M  V30 8372 C 795.222 1.75068 2.90063 0
M  V30 8373 C 793.781 1.58969 3.41183 0
M  V30 8374 C 792.928 1.75231 2.14917 0
M  V30 8375 H 795.879 1.32067 0.880001 0
M  V30 8376 H 795.9 1.23308 3.59966 0
M  V30 8377 H 795.412 2.80835 2.67868 0
M  V30 8378 H 793.513 0.556906 3.68415 0
M  V30 8379 H 793.626 2.38067 4.15766 0
M  V30 8380 H 791.99 1.18073 2.25679 0
M  V30 8381 H 792.773 2.8241 1.95191 0
M  V30 8382 N 795.218 -1.23913 0.973828 0
M  V30 8383 C 796.181 -2.23367 0.51378 0
M  V30 8384 C 797.181 -1.55923 -0.39302 0
M  V30 8385 O 798.371 -1.73187 -0.187626 0
M  V30 8386 C 795.503 -3.39944 -0.255152 0
M  V30 8387 H 796.696 -2.65581 1.39307 0
M  V30 8388 H 794.249 -1.36632 0.759039 0
M  V30 8389 H 794.984 -3.03177 -1.15127 0
M  V30 8390 H 794.769 -3.90098 0.395673 0
M  V30 8391 H 796.259 -4.13749 -0.565842 0
M  V30 8392 N 796.696 -0.74468 -1.38897 0
M  V30 8393 C 797.944 -0.296298 -1.99916 0
M  V30 8394 C 798.265 1.12325 -1.59399 0
M  V30 8395 O 797.535 1.76658 -0.846689 0
M  V30 8396 H 796.115 -0.106561 -0.73936 0
M  V30 8397 H 798.777 -0.956793 -1.69798 0
M  V30 8398 H 797.873 -0.352356 -3.10105 0
M  V30 8399 N 798.174 1.49689 -0.493057 0
M  V30 8400 C 799.106 2.26867 0.326195 0
M  V30 8401 C 800.119 1.33083 0.937697 0
M  V30 8402 O 801.308 1.58427 0.822382 0
M  V30 8403 C 798.408 3.0519 1.4735 0
M  V30 8404 C 797.581 4.26491 0.970767 0
M  V30 8405 C 796.64 4.86926 1.99473 0
M  V30 8406 O 795.666 5.47221 1.56647 0
M  V30 8407 N 796.868 4.75871 3.32456 0
M  V30 8408 H 799.633 2.97816 -0.335547 0
M  V30 8409 H 797.194 1.58602 -0.325129 0
M  V30 8410 H 799.186 3.42496 2.15589 0
M  V30 8411 H 797.756 2.369 2.03954 0
M  V30 8412 H 796.976 3.94036 0.113529 0
M  V30 8413 H 798.264 5.05092 0.613156 0
M  V30 8414 H 797.662 4.2797 3.69944 0
M  V30 8415 H 796.219 5.17383 3.96431 0
M  V30 8416 N 799.652 0.226554 1.55963 0
M  V30 8417 C 800.582 -0.676079 2.23498 0
M  V30 8418 C 801.563 -1.19718 1.20837 0
M  V30 8419 O 802.748 -1.24027 1.49436 0
M  V30 8420 C 799.878 -1.88217 2.91876 0
M  V30 8421 C 798.832 -1.4947 4.01052 0
M  V30 8422 C 798.158 -2.77997 4.56751 0
M  V30 8423 C 799.458 -0.680951 5.17842 0
M  V30 8424 H 801.152 -0.112989 2.99187 0
M  V30 8425 H 798.698 -0.0529046 1.43903 0
M  V30 8426 H 800.651 -2.51911 3.37815 0
M  V30 8427 H 799.375 -2.47031 2.13643 0
M  V30 8428 H 798.034 -0.881199 3.55852 0
M  V30 8429 H 797.682 -3.34966 3.75243 0
M  V30 8430 H 797.382 -2.52803 5.30438 0
M  V30 8431 H 798.906 -3.42625 5.05411 0
M  V30 8432 H 800.32 -1.22171 5.60131 0
M  V30 8433 H 798.717 -0.525898 5.97791 0
M  V30 8434 H 799.787 0.311346 4.83899 0
M  V30 8435 N 801.13 -1.57531 -0.0467866 0
M  V30 8436 C 802.37 -1.90294 -0.746171 0
M  V30 8437 C 802.734 -0.823194 -1.73458 0
M  V30 8438 O 803.935 -1.03463 -2.48091 0
M  V30 8439 C 802.206 -3.28249 -1.41378 0
M  V30 8440 S 803.765 -3.82812 -2.14477 0
M  V30 8441 H 800.583 -0.666496 -0.247598 0
M  V30 8442 H 803.185 -1.955 -0.00135143 0
M  V30 8443 H 801.889 -4.04712 -0.680937 0
M  V30 8444 H 801.42 -3.26302 -2.19751 0
M  V30 8445 H 803.435 -3.60111 -3.41372 0
M  V30 8446 N 802.608 0.318715 -1.54344 0
M  V30 8447 C 803.538 1.39751 -1.87061 0
M  V30 8448 C 804.519 1.53741 -0.727848 0
M  V30 8449 O 805.704 1.67541 -0.982016 0
M  V30 8450 C 802.834 2.76446 -2.10226 0
M  V30 8451 C 801.788 2.77239 -3.26071 0
M  V30 8452 C 801.114 4.17056 -3.34617 0
M  V30 8453 C 802.414 2.40555 -4.63606 0
M  V30 8454 H 804.108 1.12619 -2.77412 0
M  V30 8455 H 801.654 0.540318 -1.33479 0
M  V30 8456 H 803.607 3.51985 -2.31699 0
M  V30 8457 H 802.331 3.05066 -1.16629 0
M  V30 8458 H 800.99 2.04155 -3.04493 0
M  V30 8459 H 800.638 4.42824 -2.3857 0
M  V30 8460 H 800.338 4.18492 -4.12478 0
M  V30 8461 H 801.862 4.94401 -3.5833 0
M  V30 8462 H 803.276 3.05808 -4.84927 0
M  V30 8463 H 801.673 2.53234 -5.44052 0
M  V30 8464 H 802.743 1.35698 -4.65526 0
M  V30 8465 N 804.086 1.46499 0.581025 0
M  V30 8466 C 805.363 1.42372 1.34125 0
M  V30 8467 C 805.743 0.108073 2.10823 0
M  V30 8468 O 805.091 -0.910366 2.09582 0
M  V30 8469 C 805.301 2.65445 2.26583 0
M  V30 8470 C 806.649 3.11664 2.88359 0
M  V30 8471 O 807.673 2.66006 2.36896 0
M  V30 8472 O 806.532 3.90974 3.81839 0
M  V30 8473 H 803.626 0.566262 0.602724 0
M  V30 8474 H 806.172 1.58667 0.601903 0
M  V30 8475 H 804.944 3.52756 1.69348 0
M  V30 8476 H 804.567 2.51618 3.07854 0
M  V30 8477 N 805.565 -0.825799 1.34232 0
M  V30 8478 C 806.976 -1.39835 1.23706 0
M  V30 8479 C 807.327 -1.95709 -0.138649 0
M  V30 8480 O 806.452 -1.89833 -1.03886 0
M  V30 8481 C 807.047 -2.54203 2.23978 0
M  V30 8482 C 805.606 -3.07374 2.17251 0
M  V30 8483 C 804.753 -1.80232 2.10741 0
M  V30 8484 H 807.704 -0.630442 1.4564 0
M  V30 8485 H 807.725 -3.32214 1.8551 0
M  V30 8486 H 807.237 -2.13506 3.24094 0
M  V30 8487 H 805.338 -3.52583 1.20483 0
M  V30 8488 H 805.451 -3.6666 3.08379 0
M  V30 8489 H 803.815 -2.01012 1.56417 0
M  V30 8490 H 804.598 -1.41713 3.12686 0
M  V30 8491 N 807.043 -1.17915 -1.04565 0
M  V30 8492 C 807.976 -0.845021 -2.11978 0
M  V30 8493 C 808.954 0.19089 -1.61476 0
M  V30 8494 O 810.138 0.0709905 -1.88366 0
M  V30 8495 C 807.265 -0.261657 -3.37688 0
M  V30 8496 C 806.311 -1.27396 -4.07029 0
M  V30 8497 S 807.144 -2.82783 -4.54746 0
M  V30 8498 C 808.3 -2.25944 -5.83695 0
M  V30 8499 H 808.533 -1.75472 -2.39993 0
M  V30 8500 H 806.066 -1.00447 -1.17259 0
M  V30 8501 H 808.024 0.0684257 -4.10443 0
M  V30 8502 H 806.685 0.626082 -3.07797 0
M  V30 8503 H 805.878 -0.814557 -4.97374 0
M  V30 8504 H 805.48 -1.55002 -3.40368 0
M  V30 8505 H 807.772 -1.63892 -6.57378 0
M  V30 8506 H 808.715 -3.14569 -6.34391 0
M  V30 8507 H 809.123 -1.69155 -5.3856 0
M  V30 8508 N 808.521 1.23394 -0.980386 0
M  V30 8509 C 809.749 1.95844 -0.667286 0
M  V30 8510 C 810.164 1.72574 0.765735 0
M  V30 8511 O 809.521 1.01715 1.51526 0
M  V30 8512 C 809.572 3.48844 -0.948151 0
M  V30 8513 O 809.293 3.71325 -2.32485 0
M  V30 8514 C 810.794 4.38494 -0.651002 0
M  V30 8515 H 808.014 0.623535 -0.247882 0
M  V30 8516 H 810.558 1.56885 -1.31176 0
M  V30 8517 H 808.713 3.85819 -0.349681 0
M  V30 8518 H 809.127 4.65619 -2.41452 0
M  V30 8519 H 810.601 5.44648 -0.897887 0
M  V30 8520 H 811.078 4.37236 0.414922 0
M  V30 8521 H 811.684 4.07127 -1.22995 0
M  V30 8522 N 809.999 0.752036 1.385 0
M  V30 8523 C 810.947 0.112634 2.32327 0
M  V30 8524 C 811.941 -0.707037 1.53939 0
M  V30 8525 O 813.147 -0.606309 1.69481 0
M  V30 8526 H 809.522 0.0176275 0.751793 0
M  V30 8527 H 811.493 0.920074 2.83861 0
M  V30 8528 C 810.242 -0.767458 3.39124 0
M  V30 8529 H 809.565 -0.146122 3.99533 0
M  V30 8530 H 811.005 -1.18216 4.07187 0
M  V30 8531 C 809.464 -1.90938 2.77568 0
M  V30 8532 O 809.994 -3.00342 2.66754 0
M  V30 8533 N 808.2 -1.70396 2.35401 0
M  V30 8534 H 807.747 -0.81413 2.44397 0
M  V30 8535 H 807.705 -2.46972 1.94557 0
M  V30 8536 N 811.477 -1.49425 0.500989 0
M  V30 8537 C 812.754 -1.9531 -0.106551 0
M  V30 8538 C 813.134 -1.44248 -1.54129 0
M  V30 8539 O 812.482 -0.656237 -2.18874 0
M  V30 8540 C 812.692 -3.48995 -0.0191972 0
M  V30 8541 C 814.04 -4.24161 -0.193129 0
M  V30 8542 O 815.064 -3.56075 -0.0943843 0
M  V30 8543 O 813.923 -5.45064 -0.395869 0
M  V30 8544 H 811.017 -0.82149 -0.0953068 0
M  V30 8545 H 813.563 -1.6007 0.563526 0
M  V30 8546 H 812.335 -3.78794 0.981353 0
M  V30 8547 H 811.958 -3.90852 -0.72942 0
M  V30 8548 N 812.955 -0.234822 -1.55841 0
M  V30 8549 C 814.18 0.400741 -2.03492 0
M  V30 8550 C 814.605 1.51618 -1.11327 0
M  V30 8551 O 813.963 1.81002 -0.103922 0
M  V30 8552 C 814.011 0.897184 -3.49261 0
M  V30 8553 O 813.115 2.00764 -3.60233 0
M  V30 8554 H 812.456 0.0890023 -0.658008 0
M  V30 8555 H 814.986 -0.357345 -2.01455 0
M  V30 8556 H 814.996 1.20356 -3.89844 0
M  V30 8557 H 813.671 0.0808639 -4.15821 0
M  V30 8558 H 812.248 1.70689 -3.31541 0
M  V30 8559 N 814.433 1.57553 0.0384317 0
M  V30 8560 C 815.658 1.93485 0.746872 0
M  V30 8561 C 816.083 0.834069 1.68597 0
M  V30 8562 O 815.441 -0.210902 1.80069 0
M  V30 8563 C 815.489 3.28463 1.4881 0
M  V30 8564 O 814.593 3.20051 2.60079 0
M  V30 8565 H 813.934 0.632675 0.201539 0
M  V30 8566 H 816.464 2.046 -0.00329815 0
M  V30 8567 H 816.474 3.63132 1.86009 0
M  V30 8568 H 815.149 4.08147 0.799297 0
M  V30 8569 H 813.726 2.96998 2.25492 0
M  V30 8570 N 815.911 -0.310526 1.54511 0
M  V30 8571 C 817.139 -1.06611 1.77318 0
M  V30 8572 C 817.554 -1.81265 0.528043 0
M  V30 8573 O 816.911 -1.75466 -0.50178 0
M  V30 8574 C 816.962 -2.05409 2.97472 0
M  V30 8575 O 816.683 -1.33785 4.17173 0
M  V30 8576 C 818.184 -2.93082 3.32593 0
M  V30 8577 H 815.404 -0.316578 0.591624 0
M  V30 8578 H 817.948 -0.352691 2.01436 0
M  V30 8579 H 816.103 -2.72266 2.7559 0
M  V30 8580 H 816.517 -2.00055 4.84849 0
M  V30 8581 H 817.991 -3.58274 4.19933 0
M  V30 8582 H 818.468 -3.60877 2.50329 0
M  V30 8583 H 819.074 -2.31768 3.566 0
M  V30 8584 N 817.389 -1.46805 -0.573248 0
M  V30 8585 C 818.319 -1.60951 -1.69165 0
M  V30 8586 C 819.3 -0.45948 -1.63777 0
M  V30 8587 O 820.485 -0.68688 -1.81647 0
M  V30 8588 C 817.615 -1.60844 -3.07809 0
M  V30 8589 C 816.569 -2.74913 -3.28035 0
M  V30 8590 C 815.895 -2.59871 -4.67302 0
M  V30 8591 C 817.195 -4.16654 -3.14955 0
M  V30 8592 H 818.889 -2.54574 -1.57582 0
M  V30 8593 H 816.435 -1.22516 -0.756686 0
M  V30 8594 H 818.388 -1.69334 -3.85881 0
M  V30 8595 H 817.112 -0.637714 -3.20314 0
M  V30 8596 H 815.771 -2.65908 -2.52366 0
M  V30 8597 H 815.419 -1.60861 -4.76585 0
M  V30 8598 H 815.119 -3.36386 -4.81786 0
M  V30 8599 H 816.643 -2.70265 -5.4753 0
M  V30 8600 H 818.057 -4.26721 -3.82861 0
M  V30 8601 H 816.454 -4.93831 -3.40956 0
M  V30 8602 H 817.524 -4.36146 -2.11908 0
M  V30 8603 N 818.867 0.818669 -1.34668 0
M  V30 8604 C 820.144 1.56118 -1.17841 0
M  V30 8605 C 820.524 2.09646 0.24731 0
M  V30 8606 O 819.872 1.91329 1.24922 0
M  V30 8607 C 820.082 2.67922 -2.23649 0
M  V30 8608 C 821.43 3.36579 -2.58843 0
M  V30 8609 O 822.454 2.78182 -2.22471 0
M  V30 8610 O 821.313 4.42045 -3.21339 0
M  V30 8611 H 818.407 0.689216 -0.457067 0
M  V30 8612 H 820.953 0.859674 -1.46314 0
M  V30 8613 H 819.725 2.26153 -3.19328 0
M  V30 8614 H 819.348 3.45719 -1.96377 0
M  V30 8615 N 820.346 1.18468 1.03938 0
M  V30 8616 C 821.571 1.00638 1.81347 0
M  V30 8617 C 821.996 -0.440477 1.8287 0
M  V30 8618 O 821.354 -1.31609 1.24695 0
M  V30 8619 C 821.402 1.5673 3.24759 0
M  V30 8620 O 820.506 0.789517 4.04772 0
M  V30 8621 H 819.847 0.356432 0.560225 0
M  V30 8622 H 822.377 1.57253 1.30891 0
M  V30 8623 H 822.387 1.59496 3.75533 0
M  V30 8624 H 821.062 2.62043 3.22965 0
M  V30 8625 H 819.639 0.834267 3.63448 0
M  V30 8626 N 821.824 -1.22873 0.986916 0
M  V30 8627 C 822.754 -2.2688 0.552064 0
M  V30 8628 C 823.735 -1.64883 -0.418048 0
M  V30 8629 O 824.92 -1.9171 -0.30999 0
M  V30 8630 C 822.05 -3.47018 -0.139959 0
M  V30 8631 C 821.004 -4.21411 0.748091 0
M  V30 8632 C 820.33 -5.34645 -0.0765132 0
M  V30 8633 C 821.63 -4.80726 2.04206 0
M  V30 8634 H 823.324 -2.63507 1.42143 0
M  V30 8635 H 820.87 -1.26668 0.68492 0
M  V30 8636 H 822.823 -4.18931 -0.455527 0
M  V30 8637 H 821.547 -3.0947 -1.04382 0
M  V30 8638 H 820.206 -3.51325 1.04721 0
M  V30 8639 H 819.854 -4.93339 -0.981109 0
M  V30 8640 H 819.554 -5.85342 0.514606 0
M  V30 8641 H 821.078 -6.09377 -0.386313 0
M  V30 8642 H 822.492 -5.44612 1.79083 0
M  V30 8643 H 820.889 -5.41737 2.5815 0
M  V30 8644 H 821.959 -4.01109 2.72469 0
M  V30 8645 N 823.302 -0.75937 -1.38099 0
M  V30 8646 C 824.549 -0.318113 -1.99986 0
M  V30 8647 C 824.877 1.10184 -1.6028 0
M  V30 8648 O 824.132 1.77015 -0.834524 0
M  V30 8649 C 824.431 -0.394999 -3.55211 0
M  V30 8650 C 824.097 -1.77143 -4.14646 0
M  V30 8651 C 822.759 -2.14811 -4.30592 0
M  V30 8652 C 825.111 -2.67407 -4.47373 0
M  V30 8653 C 822.439 -3.42203 -4.76565 0
M  V30 8654 C 824.791 -3.94196 -4.94765 0
M  V30 8655 C 823.455 -4.31925 -5.08918 0
M  V30 8656 H 822.725 -0.116406 -0.7318 0
M  V30 8657 H 825.372 -0.97098 -1.65058 0
M  V30 8658 H 823.677 0.341426 -3.9031 0
M  V30 8659 H 825.374 -0.0350722 -4.00985 0
M  V30 8660 H 821.964 -1.46864 -4.02652 0
M  V30 8661 H 826.148 -2.39569 -4.3465 0
M  V30 8662 H 821.404 -3.71346 -4.85708 0
M  V30 8663 H 825.578 -4.64276 -5.19057 0
M  V30 8664 H 823.205 -5.30699 -5.443 0
M  V30 8665 N 824.78 1.49157 -0.508906 0
M  V30 8666 C 826.005 2.07376 0.0315182 0
M  V30 8667 C 826.43 1.36575 1.2934 0
M  V30 8668 O 825.788 0.424963 1.76249 0
M  V30 8669 C 825.836 3.59661 0.260118 0
M  V30 8670 O 824.94 3.90255 1.33322 0
M  V30 8671 H 824.281 0.663334 -0.029739 0
M  V30 8672 H 826.811 1.91857 -0.710791 0
M  V30 8673 H 826.821 4.05056 0.489225 0
M  V30 8674 H 825.496 4.10601 -0.661794 0
M  V30 8675 H 824.073 3.56661 1.08844 0
M  V30 8676 N 826.258 0.243083 1.55714 0
M  V30 8677 C 827.483 -0.389944 2.03701 0
M  V30 8678 C 827.908 -1.51025 1.12129 0
M  V30 8679 O 827.266 -1.80944 0.11352 0
M  V30 8680 C 827.314 -0.878649 3.49731 0
M  V30 8681 O 826.418 -1.98851 3.61292 0
M  V30 8682 H 825.759 -0.0855115 0.658471 0
M  V30 8683 H 828.289 0.368023 2.01263 0
M  V30 8684 H 828.299 -1.18287 3.90477 0
M  V30 8685 H 826.974 -0.0588107 4.15858 0
M  V30 8686 H 825.551 -1.68928 3.32442 0
M  V30 8687 N 827.736 -1.57571 -0.0300757 0
M  V30 8688 C 828.666 -2.0953 -1.03051 0
M  V30 8689 C 829.647 -0.99761 -1.37774 0
M  V30 8690 O 830.832 -1.27279 -1.46676 0
M  V30 8691 C 827.962 -2.57385 -2.33174 0
M  V30 8692 C 826.916 -3.71409 -2.12696 0
M  V30 8693 C 826.242 -4.05467 -3.4857 0
M  V30 8694 C 827.542 -4.99877 -1.51396 0
M  V30 8695 H 829.236 -2.93367 -0.597999 0
M  V30 8696 H 826.782 -1.41127 -0.286203 0
M  V30 8697 H 828.735 -2.92355 -3.03491 0
M  V30 8698 H 827.459 -1.70629 -2.78484 0
M  V30 8699 H 826.118 -3.36786 -1.44813 0
M  V30 8700 H 825.766 -3.15779 -3.91526 0
M  V30 8701 H 825.466 -4.82269 -3.35694 0
M  V30 8702 H 826.99 -4.4297 -4.2025 0
M  V30 8703 H 828.404 -5.3281 -2.11629 0
M  V30 8704 H 826.801 -5.81283 -1.49098 0
M  V30 8705 H 827.871 -4.82522 -0.479676 0
M  V30 8706 N 829.214 0.302327 -1.54673 0
M  V30 8707 C 830.164 1.37443 -1.81916 0
M  V30 8708 C 831.148 1.45999 -0.676251 0
M  V30 8709 O 832.34 1.50174 -0.93685 0
M  V30 8710 C 829.469 2.73966 -2.06876 0
M  V30 8711 C 828.555 2.69637 -3.27348 0
M  V30 8712 N 828.946 2.34926 -4.47933 0
M  V30 8713 C 827.244 3.00742 -3.29348 0
M  V30 8714 C 827.945 2.39862 -5.29944 0
M  V30 8715 N 826.921 2.77163 -4.67634 0
M  V30 8716 H 830.723 1.09567 -2.72713 0
M  V30 8717 H 828.237 0.5109 -1.54154 0
M  V30 8718 H 830.234 3.51265 -2.2454 0
M  V30 8719 H 828.894 3.02754 -1.17346 0
M  V30 8720 H 829.905 2.07403 -4.74557 0
M  V30 8721 H 826.582 3.34434 -2.49921 0
M  V30 8722 H 827.972 2.15835 -6.3629 0
M  V30 8723 N 830.692 1.47107 0.565454 0
M  V30 8724 C 831.917 1.57153 1.35343 0
M  V30 8725 C 832.342 0.219247 1.86818 0
M  V30 8726 O 831.7 -0.803539 1.62521 0
M  V30 8727 C 831.748 2.59387 2.50501 0
M  V30 8728 O 830.852 2.14086 3.52478 0
M  V30 8729 H 830.193 0.528209 0.402357 0
M  V30 8730 H 832.723 1.92821 0.684189 0
M  V30 8731 H 832.733 2.79546 2.97184 0
M  V30 8732 H 831.408 3.57579 2.12391 0
M  V30 8733 H 829.985 2.03991 3.12157 0
M  V30 8734 N 832.17 -0.811516 1.35101 0
M  V30 8735 C 833.395 -1.60499 1.31358 0
M  V30 8736 C 833.82 -1.87793 -0.107383 0
M  V30 8737 O 833.178 -1.46161 -1.07268 0
M  V30 8738 C 833.226 -2.91612 2.12119 0
M  V30 8739 O 832.33 -3.84211 1.49853 0
M  V30 8740 H 831.671 -0.487702 0.450603 0
M  V30 8741 H 834.201 -1.00758 1.7807 0
M  V30 8742 H 834.211 -3.4108 2.23894 0
M  V30 8743 H 832.886 -2.71071 3.15426 0
M  V30 8744 H 831.463 -3.42751 1.46889 0
M  V30 8745 N 833.648 -1.19017 -1.03309 0
M  V30 8746 C 834.596 -0.920627 -2.13605 0
M  V30 8747 C 835.59 0.121969 -1.6896 0
M  V30 8748 O 836.796 -0.0268854 -1.7998 0
M  V30 8749 H 833.171 -0.280284 -0.697814 0
M  V30 8750 H 835.142 -1.85755 -2.33533 0
M  V30 8751 C 833.891 -0.471198 -3.44492 0
M  V30 8752 H 833.214 -1.26499 -3.7926 0
M  V30 8753 H 834.654 -0.321663 -4.22778 0
M  V30 8754 C 833.113 0.81411 -3.26916 0
M  V30 8755 O 833.643 1.87654 -3.55175 0
M  V30 8756 N 831.849 0.769695 -2.80221 0
M  V30 8757 H 831.396 -0.0951278 -2.57424 0
M  V30 8758 H 831.354 1.63008 -2.68842 0
M  V30 8759 N 835.127 1.22348 -0.993418 0
M  V30 8760 C 836.404 1.86632 -0.585495 0
M  V30 8761 C 836.784 1.89156 0.937187 0
M  V30 8762 O 836.132 1.38247 1.81934 0
M  V30 8763 C 836.342 3.27481 -1.20652 0
M  V30 8764 C 837.69 4.03971 -1.30738 0
M  V30 8765 O 838.714 3.3675 -1.16096 0
M  V30 8766 O 837.573 5.24302 -1.54173 0
M  V30 8767 H 834.667 0.802704 -0.198984 0
M  V30 8768 H 837.213 1.30122 -1.08933 0
M  V30 8769 H 835.985 3.20281 -2.24802 0
M  V30 8770 H 835.608 3.91597 -0.688312 0
M  V30 8771 N 836.605 0.766683 1.37694 0
M  V30 8772 C 837.833 0.339939 2.04088 0
M  V30 8773 C 838.248 -1.03617 1.57826 0
M  V30 8774 O 837.605 -1.6605 0.757214 0
M  V30 8775 C 837.656 0.368269 3.59619 0
M  V30 8776 O 837.377 1.69009 4.04188 0
M  V30 8777 C 838.878 -0.0707053 4.43244 0
M  V30 8778 H 836.098 0.143189 0.655544 0
M  V30 8779 H 838.642 1.03919 1.76128 0
M  V30 8780 H 836.797 -0.282359 3.8637 0
M  V30 8781 H 837.211 1.62523 4.98685 0
M  V30 8782 H 838.685 0.000273538 5.52 0
M  V30 8783 H 839.162 -1.1204 4.24669 0
M  V30 8784 H 839.768 0.551543 4.21709 0
M  V30 8785 N 838.083 -1.48885 0.516809 0
M  V30 8786 C 839.329 -2.02788 -0.0220928 0
M  V30 8787 C 839.662 -1.39433 -1.35175 0
M  V30 8788 O 838.937 -0.535459 -1.86984 0
M  V30 8789 C 839.22 -3.59753 -0.158012 0
M  V30 8790 C 839.073 -4.33611 1.19588 0
M  V30 8791 C 840.392 -4.30984 -0.891133 0
M  V30 8792 H 837.511 -0.736971 -0.00655488 0
M  V30 8793 H 840.153 -1.77746 0.671287 0
M  V30 8794 H 838.303 -3.8122 -0.748568 0
M  V30 8795 H 839.975 -4.23598 1.82653 0
M  V30 8796 H 838.218 -3.95547 1.78116 0
M  V30 8797 H 838.889 -5.41846 1.05391 0
M  V30 8798 H 841.365 -4.14267 -0.39012 0
M  V30 8799 H 840.241 -5.40527 -0.955107 0
M  V30 8800 H 840.502 -3.97336 -1.93847 0
M  V30 8801 N 839.561 -0.251338 -1.55583 0
M  V30 8802 C 840.972 0.25098 -1.85005 0
M  V30 8803 C 841.323 1.57259 -1.17321 0
M  V30 8804 O 840.448 2.11603 -0.453136 0
M  V30 8805 C 841.043 0.462161 -3.35633 0
M  V30 8806 C 839.602 0.908737 -3.65266 0
M  V30 8807 C 838.749 -0.0115418 -2.77298 0
M  V30 8808 H 841.7 -0.473782 -1.51463 0
M  V30 8809 H 841.721 1.30415 -3.57452 0
M  V30 8810 H 841.233 -0.499886 -3.84867 0
M  V30 8811 H 839.334 1.8831 -3.21512 0
M  V30 8812 H 839.447 0.762526 -4.72993 0
M  V30 8813 H 837.811 0.500612 -2.49732 0
M  V30 8814 H 838.594 -0.969042 -3.29339 0
M  V30 8815 N 841.039 1.57585 0.0217189 0
M  V30 8816 C 842.288 1.88786 0.710125 0
M  V30 8817 C 842.601 0.850819 1.76126 0
M  V30 8818 O 843.807 1.0523 2.50277 0
M  V30 8819 C 842.263 3.3505 1.31413 0
M  V30 8820 C 841.871 4.47001 0.298959 0
M  V30 8821 C 843.615 3.7539 1.98199 0
M  V30 8822 C 841.522 5.8433 0.911727 0
M  V30 8823 H 840.452 0.704388 0.268986 0
M  V30 8824 H 843.103 1.83466 -0.0352638 0
M  V30 8825 H 841.485 3.35138 2.10947 0
M  V30 8826 H 842.659 4.58395 -0.470203 0
M  V30 8827 H 840.974 4.15542 -0.267222 0
M  V30 8828 H 843.571 4.75314 2.4491 0
M  V30 8829 H 843.914 3.07766 2.80331 0
M  V30 8830 H 844.447 3.77508 1.2543 0
M  V30 8831 H 841.186 6.55372 0.129659 0
M  V30 8832 H 840.706 5.76643 1.65056 0
M  V30 8833 H 842.385 6.31295 1.41688 0
M  V30 8834 N 842.517 -0.29412 1.54831 0
M  V30 8835 C 843.464 -1.36296 1.86258 0
M  V30 8836 C 844.434 -1.50061 0.712097 0
M  V30 8837 O 845.619 -1.64809 0.961381 0
M  V30 8838 C 842.759 -2.72187 2.12151 0
M  V30 8839 C 841.872 -2.66816 3.39755 0
M  V30 8840 C 841.007 -3.94747 3.55455 0
M  V30 8841 C 840.046 -3.838 4.76827 0
M  V30 8842 N 839.183 -5.03521 4.89296 0
M  V30 8843 H 844.023 -1.08796 2.7743 0
M  V30 8844 H 841.56 -0.526069 1.37371 0
M  V30 8845 H 843.518 -3.51225 2.25159 0
M  V30 8846 H 842.148 -2.97934 1.24237 0
M  V30 8847 H 841.2 -1.79605 3.3533 0
M  V30 8848 H 842.512 -2.5462 4.28917 0
M  V30 8849 H 841.666 -4.82223 3.68166 0
M  V30 8850 H 840.405 -4.09785 2.64438 0
M  V30 8851 H 839.41 -2.94708 4.64141 0
M  V30 8852 H 840.635 -3.70301 5.69258 0
M  V30 8853 H 838.581 -5.1901 4.01204 0
M  V30 8854 H 838.498 -4.93775 5.72471 0
M  V30 8855 H 839.766 -5.92629 5.06371 0
M  V30 8856 N 843.995 -1.47404 -0.557645 0
M  V30 8857 C 845.242 -1.54007 -1.31484 0
M  V30 8858 C 845.57 -0.202162 -1.93447 0
M  V30 8859 O 844.825 0.804901 -1.78381 0
M  V30 8860 C 845.124 -2.6061 -2.44575 0
M  V30 8861 C 844.79 -4.03896 -2.00446 0
M  V30 8862 C 843.452 -4.42901 -1.88127 0
M  V30 8863 C 845.804 -4.93804 -1.66754 0
M  V30 8864 C 843.132 -5.6965 -1.40411 0
M  V30 8865 C 845.484 -6.21016 -1.20509 0
M  V30 8866 C 844.148 -6.58903 -1.06786 0
M  V30 8867 H 843.418 -0.563552 -0.481134 0
M  V30 8868 H 846.065 -1.81001 -0.625375 0
M  V30 8869 H 844.37 -2.27371 -3.19076 0
M  V30 8870 H 846.067 -2.62941 -3.02759 0
M  V30 8871 H 842.657 -3.73077 -2.10977 0
M  V30 8872 H 846.841 -4.64369 -1.75144 0
M  V30 8873 H 842.097 -5.97755 -1.2845 0
M  V30 8874 H 846.271 -6.90095 -0.935001 0
M  V30 8875 H 843.898 -7.57008 -0.695891 0
M  V30 8876 N 845.473 0.80434 -1.35529 0
M  V30 8877 C 846.42 1.91629 -1.28635 0
M  V30 8878 C 847.39 1.65348 -0.157862 0
M  V30 8879 O 848.575 1.87711 -0.341934 0
M  V30 8880 C 845.715 3.28207 -1.0665 0
M  V30 8881 C 844.828 3.66659 -2.28441 0
M  V30 8882 C 843.963 4.92279 -1.99588 0
M  V30 8883 C 843.002 5.23365 -3.1742 0
M  V30 8884 N 842.139 6.40165 -2.88328 0
M  V30 8885 H 846.979 1.96858 -2.23721 0
M  V30 8886 H 844.516 0.962871 -1.11208 0
M  V30 8887 H 846.474 4.06945 -0.919343 0
M  V30 8888 H 845.104 3.22441 -0.152253 0
M  V30 8889 H 844.156 2.83164 -2.54013 0
M  V30 8890 H 845.468 3.8559 -3.1642 0
M  V30 8891 H 844.622 5.78847 -1.81715 0
M  V30 8892 H 843.361 4.75387 -1.08896 0
M  V30 8893 H 842.366 4.35285 -3.35867 0
M  V30 8894 H 843.591 5.42185 -4.08916 0
M  V30 8895 H 841.537 6.24694 -2.00233 0
M  V30 8896 H 841.454 6.59357 -3.69843 0
M  V30 8897 H 842.722 7.29755 -2.74002 0
M  V30 8898 N 846.951 1.19563 1.02676 0
M  V30 8899 C 847.898 0.935291 2.11 0
M  V30 8900 C 848.868 -0.130685 1.65585 0
M  V30 8901 O 850.053 0.0119062 1.90796 0
M  V30 8902 C 847.193 0.482384 3.41712 0
M  V30 8903 C 846.306 1.61537 4.00662 0
M  V30 8904 C 845.441 1.11378 5.19392 0
M  V30 8905 C 844.48 2.22052 5.70403 0
M  V30 8906 N 843.617 1.73185 6.80405 0
M  V30 8907 H 848.457 1.86275 2.32606 0
M  V30 8908 H 845.994 0.928656 1.14081 0
M  V30 8909 H 847.952 0.20118 4.16715 0
M  V30 8910 H 846.582 -0.408086 3.2021 0
M  V30 8911 H 845.634 2.01173 3.22852 0
M  V30 8912 H 846.946 2.44912 4.34534 0
M  V30 8913 H 846.1 0.787935 6.01562 0
M  V30 8914 H 844.839 0.249789 4.8706 0
M  V30 8915 H 843.844 2.55465 4.86845 0
M  V30 8916 H 845.069 3.08911 6.04774 0
M  V30 8917 H 843.015 0.890973 6.49921 0
M  V30 8918 H 842.932 2.50148 7.13416 0
M  V30 8919 H 844.2 1.4357 7.66164 0
M  V30 8920 N 848.429 -1.21819 0.999893 0
M  V30 8921 C 849.669 -1.92473 0.687996 0
M  V30 8922 C 850.033 -1.76033 -0.766569 0
M  V30 8923 O 851.234 -2.41013 -1.19021 0
M  V30 8924 C 849.505 -3.40332 1.09129 0
M  V30 8925 S 851.064 -4.29496 0.898822 0
M  V30 8926 H 847.882 -0.665097 0.251329 0
M  V30 8927 H 850.484 -1.47454 1.28364 0
M  V30 8928 H 849.188 -3.49812 2.14615 0
M  V30 8929 H 848.719 -3.90365 0.487724 0
M  V30 8930 H 850.734 -4.95769 -0.206873 0
M  V30 8931 N 849.908 -0.773975 -1.37286 0
M  V30 8932 C 851.148 -0.344505 -2.01476 0
M  V30 8933 C 851.512 1.05966 -1.6011 0
M  V30 8934 O 852.713 1.58937 -2.16778 0
M  V30 8935 C 850.984 -0.485816 -3.54083 0
M  V30 8936 S 852.543 -0.141939 -4.3857 0
M  V30 8937 H 849.361 -0.13243 -0.698558 0
M  V30 8938 H 851.963 -1.00908 -1.67445 0
M  V30 8939 H 850.667 -1.50835 -3.81677 0
M  V30 8940 H 850.198 0.195232 -3.92915 0
M  V30 8941 H 852.213 1.06177 -4.84707 0
M  V30 8942 N 851.386 1.48609 -0.524698 0
M  V30 8943 C 852.616 2.06599 0.00741868 0
M  V30 8944 C 853.024 1.3823 1.29186 0
M  V30 8945 O 852.367 0.461962 1.77797 0
M  V30 8946 C 852.429 3.58184 0.307324 0
M  V30 8947 C 852.093 4.48391 -0.882864 0
M  V30 8948 C 853.09 4.88485 -1.77984 0
M  V30 8949 C 850.775 4.90367 -1.08837 0
M  V30 8950 C 852.769 5.69319 -2.86627 0
M  V30 8951 C 850.456 5.70972 -2.17794 0
M  V30 8952 C 851.454 6.10355 -3.06523 0
M  V30 8953 O 851.142 6.89343 -4.13596 0
M  V30 8954 H 850.874 0.675421 -0.0279846 0
M  V30 8955 H 853.428 1.92058 -0.7282 0
M  V30 8956 H 851.658 3.70818 1.09685 0
M  V30 8957 H 853.347 3.98318 0.780886 0
M  V30 8958 H 854.113 4.56682 -1.63299 0
M  V30 8959 H 849.992 4.592 -0.407035 0
M  V30 8960 H 853.536 5.99978 -3.55911 0
M  V30 8961 H 849.433 6.02188 -2.32465 0
M  V30 8962 H 850.201 7.07689 -4.1124 0
M  V30 8963 N 852.864 0.259585 1.55447 0
M  V30 8964 C 854.112 -0.360893 1.98852 0
M  V30 8965 C 854.433 -1.57535 1.14924 0
M  V30 8966 O 853.703 -1.94485 0.235025 0
M  V30 8967 H 852.283 -0.136332 0.734454 0
M  V30 8968 H 854.945 0.361319 1.91522 0
M  V30 8969 H 854.041 -0.661388 3.05012 0
M  V30 8970 N 854.342 -1.57594 -0.0133615 0
M  V30 8971 C 855.572 -1.93969 -0.711295 0
M  V30 8972 C 855.98 -0.859084 -1.68572 0
M  V30 8973 O 855.323 0.171842 -1.82894 0
M  V30 8974 C 855.385 -3.2625 -1.51001 0
M  V30 8975 C 855.049 -4.51628 -0.698645 0
M  V30 8976 C 856.046 -5.19899 0.00791185 0
M  V30 8977 C 853.731 -4.98095 -0.648553 0
M  V30 8978 C 855.725 -6.32928 0.753691 0
M  V30 8979 C 853.412 -6.11017 0.10096 0
M  V30 8980 C 854.41 -6.78289 0.800828 0
M  V30 8981 O 854.098 -7.89048 1.53814 0
M  V30 8982 H 853.83 -0.6445 -0.203951 0
M  V30 8983 H 856.384 -2.05378 0.0298267 0
M  V30 8984 H 854.614 -3.11211 -2.29531 0
M  V30 8985 H 856.303 -3.47835 -2.09202 0
M  V30 8986 H 857.069 -4.84995 -0.0217192 0
M  V30 8987 H 852.948 -4.45568 -1.18282 0
M  V30 8988 H 856.492 -6.85371 1.3005 0
M  V30 8989 H 852.389 -6.45364 0.132459 0
M  V30 8990 H 853.157 -8.05492 1.45345 0
M  V30 8991 N 855.82 0.285905 -1.54985 0
M  V30 8992 C 857.06 1.02699 -1.76726 0
M  V30 8993 C 857.424 1.83962 -0.549717 0
M  V30 8994 O 858.625 2.60943 -0.645142 0
M  V30 8995 C 856.896 1.89671 -3.02919 0
M  V30 8996 S 858.455 2.7022 -3.45726 0
M  V30 8997 H 855.273 0.346114 -0.621068 0
M  V30 8998 H 857.875 0.298764 -1.93204 0
M  V30 8999 H 856.579 1.28873 -3.89641 0
M  V30 9000 H 856.11 2.66836 -2.89071 0
M  V30 9001 H 858.125 3.92184 -3.03983 0
M  V30 9002 N 857.298 1.47698 0.54982 0
M  V30 9003 C 858.547 1.53961 1.30303 0
M  V30 9004 C 858.86 0.209731 1.94472 0
M  V30 9005 O 860.066 0.150418 2.71083 0
M  V30 9006 C 858.522 2.71436 2.36328 0
M  V30 9007 C 858.13 4.10983 1.78316 0
M  V30 9008 C 859.874 2.86996 3.12783 0
M  V30 9009 C 857.781 5.19747 2.82164 0
M  V30 9010 H 856.711 0.573098 0.489975 0
M  V30 9011 H 859.362 1.73989 0.583089 0
M  V30 9012 H 857.744 2.44801 3.11269 0
M  V30 9013 H 858.918 4.47552 1.09697 0
M  V30 9014 H 857.233 4.00371 1.1442 0
M  V30 9015 H 859.83 3.65422 3.90347 0
M  V30 9016 H 860.173 1.95712 3.67427 0
M  V30 9017 H 860.706 3.13436 2.44954 0
M  V30 9018 H 857.445 6.12932 2.32366 0
M  V30 9019 H 856.965 4.87688 3.49171 0
M  V30 9020 H 858.644 5.47014 3.4552 0
M  V30 9021 N 858.776 -0.797141 1.35954 0
M  V30 9022 C 860.053 -1.54224 1.2031 0
M  V30 9023 C 860.433 -2.10013 -0.213926 0
M  V30 9024 O 859.781 -1.93292 -1.21862 0
M  V30 9025 C 859.991 -2.6433 2.27883 0
M  V30 9026 C 861.339 -3.32418 2.64165 0
M  V30 9027 O 862.363 -2.74607 2.26868 0
M  V30 9028 O 861.222 -4.36876 3.28331 0
M  V30 9029 H 858.316 -0.681857 0.467974 0
M  V30 9030 H 860.862 -0.836288 1.47663 0
M  V30 9031 H 859.634 -2.21044 3.22885 0
M  V30 9032 H 859.257 -3.42551 2.01853 0
M  V30 9033 N 860.254 -1.20106 -1.0204 0
M  V30 9034 C 861.184 -0.970301 -2.12385 0
M  V30 9035 C 862.165 0.099378 -1.69809 0
M  V30 9036 O 863.35 -0.057365 -1.94115 0
M  V30 9037 C 860.48 -0.517431 -3.43424 0
M  V30 9038 C 859.434 -1.52992 -3.99722 0
M  V30 9039 C 858.76 -0.933817 -5.26483 0
M  V30 9040 C 860.06 -2.91257 -4.33551 0
M  V30 9041 H 861.754 -1.89316 -2.31948 0
M  V30 9042 H 859.3 -0.911655 -1.11467 0
M  V30 9043 H 861.253 -0.343243 -4.2 0
M  V30 9044 H 859.977 0.441049 -3.23608 0
M  V30 9045 H 858.636 -1.6914 -3.2525 0
M  V30 9046 H 858.284 0.0324763 -5.0299 0
M  V30 9047 H 857.984 -1.60999 -5.65113 0
M  V30 9048 H 859.508 -0.770614 -6.05718 0
M  V30 9049 H 860.922 -2.78642 -5.0103 0
M  V30 9050 H 859.319 -3.55745 -4.83286 0
M  V30 9051 H 860.389 -3.43269 -3.42483 0
M  V30 9052 N 861.732 1.21287 -1.00634 0
M  V30 9053 C 862.662 2.25973 -0.588089 0
M  V30 9054 C 863.643 1.65527 0.391764 0
M  V30 9055 O 864.828 1.92179 0.279452 0
M  V30 9056 C 861.958 3.47197 0.0847336 0
M  V30 9057 C 860.912 4.20168 -0.815039 0
M  V30 9058 C 860.238 5.34699 -0.00855393 0
M  V30 9059 C 861.538 4.77416 -2.11828 0
M  V30 9060 H 863.232 2.61212 -1.46317 0
M  V30 9061 H 860.778 1.25563 -0.704985 0
M  V30 9062 H 862.731 4.19602 0.388821 0
M  V30 9063 H 861.455 3.11092 0.994456 0
M  V30 9064 H 860.114 3.49614 -1.10297 0
M  V30 9065 H 859.762 4.94837 0.902499 0
M  V30 9066 H 859.462 5.84449 -0.607664 0
M  V30 9067 H 860.986 6.09914 0.289317 0
M  V30 9068 H 862.4 5.41694 -1.87725 0
M  V30 9069 H 860.797 5.37561 -2.66736 0
M  V30 9070 H 861.867 3.96724 -2.78816 0
M  V30 9071 N 863.21 0.781244 1.36873 0
M  V30 9072 C 864.12 0.174981 2.33947 0
M  V30 9073 C 865.136 -0.668512 1.60645 0
M  V30 9074 O 866.312 -0.586213 1.9268 0
M  V30 9075 C 863.377 -0.686557 3.39834 0
M  V30 9076 C 862.438 0.174489 4.28945 0
M  V30 9077 C 861.671 -0.646024 5.29776 0
M  V30 9078 O 861.894 -1.88254 5.38439 0
M  V30 9079 O 860.828 -0.0502214 6.01879 0
M  V30 9080 H 864.654 0.977382 2.87543 0
M  V30 9081 H 862.239 0.542559 1.392 0
M  V30 9082 H 864.121 -1.1781 4.04597 0
M  V30 9083 H 862.796 -1.46699 2.8855 0
M  V30 9084 H 861.703 0.712604 3.6725 0
M  V30 9085 H 863.036 0.918232 4.83559 0
M  V30 9086 N 864.689 -1.48329 0.532571 0
M  V30 9087 C 865.636 -2.29663 -0.228779 0
M  V30 9088 C 866.606 -1.37529 -0.931401 0
M  V30 9089 O 867.791 -1.66493 -0.931921 0
M  V30 9090 C 864.931 -3.20955 -1.26814 0
M  V30 9091 C 864.044 -4.28168 -0.574099 0
M  V30 9092 C 863.179 -5.06638 -1.59661 0
M  V30 9093 C 862.218 -6.05651 -0.88618 0
M  V30 9094 N 861.355 -6.77169 -1.85436 0
M  V30 9095 H 866.195 -2.94255 0.47098 0
M  V30 9096 H 863.732 -1.45061 0.2441 0
M  V30 9097 H 865.69 -3.72285 -1.88307 0
M  V30 9098 H 864.32 -2.58281 -1.93625 0
M  V30 9099 H 863.372 -3.80085 0.154827 0
M  V30 9100 H 864.684 -4.98797 -0.0163984 0
M  V30 9101 H 863.838 -5.61995 -2.28576 0
M  V30 9102 H 862.577 -4.35854 -2.18821 0
M  V30 9103 H 861.582 -5.49495 -0.182981 0
M  V30 9104 H 862.807 -6.78434 -0.300659 0
M  V30 9105 H 860.753 -6.09134 -2.43499 0
M  V30 9106 H 860.67 -7.43882 -1.34816 0
M  V30 9107 H 861.938 -7.37114 -2.53541 0
M  V30 9108 N 866.167 -0.267825 -1.55308 0
M  V30 9109 C 867.416 0.351635 -1.98611 0
M  V30 9110 C 867.729 1.57522 -1.15957 0
M  V30 9111 O 868.935 2.26717 -1.49371 0
M  V30 9112 C 867.391 0.676986 -3.53475 0
M  V30 9113 C 866.999 -0.526385 -4.44897 0
M  V30 9114 C 868.743 1.25948 -4.05386 0
M  V30 9115 C 866.65 -0.176026 -5.91138 0
M  V30 9116 H 865.58 0.13516 -0.741787 0
M  V30 9117 H 868.231 -0.371333 -1.79704 0
M  V30 9118 H 866.613 1.45866 -3.68156 0
M  V30 9119 H 867.787 -1.30339 -4.41982 0
M  V30 9120 H 866.102 -1.02522 -4.03582 0
M  V30 9121 H 868.699 1.53529 -5.12184 0
M  V30 9122 H 869.042 2.19094 -3.53982 0
M  V30 9123 H 869.575 0.540253 -3.94114 0
M  V30 9124 H 866.314 -1.07518 -6.46622 0
M  V30 9125 H 865.834 0.564363 -5.97139 0
M  V30 9126 H 867.513 0.234365 -6.46575 0
M  V30 9127 N 867.645 1.57599 0.00500368 0
M  V30 9128 C 868.608 2.07058 0.982832 0
M  V30 9129 C 869.608 0.979045 1.27559 0
M  V30 9130 O 870.798 1.24187 1.22161 0
M  V30 9131 C 867.93 2.50782 2.30914 0
M  V30 9132 H 869.123 2.94718 0.555119 0
M  V30 9133 H 866.676 1.54249 0.25237 0
M  V30 9134 H 867.411 1.66351 2.78385 0
M  V30 9135 H 867.196 3.30495 2.10987 0
M  V30 9136 H 868.686 2.89391 3.0107 0
M  V30 9137 N 869.123 -0.277682 1.55134 0
M  V30 9138 C 870.033 -1.36524 1.90783 0
M  V30 9139 C 871.049 -1.54283 0.804542 0
M  V30 9140 O 872.225 -1.68499 1.10318 0
M  V30 9141 C 869.29 -2.70524 2.16835 0
M  V30 9142 C 868.351 -2.61552 3.40424 0
M  V30 9143 C 867.584 -3.89162 3.65224 0
M  V30 9144 O 867.807 -4.89624 2.92616 0
M  V30 9145 O 866.741 -3.89647 4.58758 0
M  V30 9146 H 870.567 -1.0929 2.83354 0
M  V30 9147 H 868.152 -0.475799 1.41621 0
M  V30 9148 H 870.034 -3.49765 2.35038 0
M  V30 9149 H 868.709 -2.97555 1.27448 0
M  V30 9150 H 867.616 -1.80704 3.27562 0
M  V30 9151 H 868.949 -2.39472 4.30016 0
M  V30 9152 N 870.601 -1.47988 -0.541979 0
M  V30 9153 C 871.878 -1.45878 -1.30303 0
M  V30 9154 C 872.258 -0.163931 -2.10463 0
M  V30 9155 O 871.606 0.854479 -2.11922 0
M  V30 9156 C 871.816 -2.71359 -2.19466 0
M  V30 9157 C 873.164 -3.19199 -2.79995 0
M  V30 9158 O 874.188 -2.72193 -2.2976 0
M  V30 9159 O 873.047 -4.00961 -3.71339 0
M  V30 9160 H 870.141 -0.582043 -0.587498 0
M  V30 9161 H 872.687 -1.60207 -0.559623 0
M  V30 9162 H 871.459 -3.57122 -1.59936 0
M  V30 9163 H 871.082 -2.59692 -3.01075 0
M  V30 9164 N 872.079 0.78992 -1.36375 0
M  V30 9165 C 873.012 1.90907 -1.25019 0
M  V30 9166 C 873.99 1.62043 -0.134463 0
M  V30 9167 O 875.174 1.86008 -0.305506 0
M  V30 9168 C 872.301 3.25716 -0.928822 0
M  V30 9169 C 871.347 3.73511 -2.05892 0
M  V30 9170 S 872.18 3.89332 -3.6767 0
M  V30 9171 C 873.336 5.27017 -3.37645 0
M  V30 9172 H 873.569 2.00247 -2.19746 0
M  V30 9173 H 871.102 0.949097 -1.21785 0
M  V30 9174 H 873.06 4.03586 -0.750219 0
M  V30 9175 H 871.721 3.141 0.000658424 0
M  V30 9176 H 870.914 4.71195 -1.78862 0
M  V30 9177 H 870.516 3.02688 -2.19672 0
M  V30 9178 H 872.808 6.1158 -2.91507 0
M  V30 9179 H 873.751 5.5905 -4.3459 0
M  V30 9180 H 874.159 4.94093 -2.73006 0
M  V30 9181 N 873.557 1.20646 1.01402 0
M  V30 9182 C 874.505 0.954493 2.12114 0
M  V30 9183 C 875.499 -0.0950737 1.69133 0
M  V30 9184 O 876.705 0.0555153 1.79914 0
M  V30 9185 H 873.08 0.29135 0.693267 0
M  V30 9186 H 875.051 1.89447 2.30548 0
M  V30 9187 C 873.8 0.525944 3.43699 0
M  V30 9188 H 873.123 1.32516 3.772 0
M  V30 9189 H 874.563 0.388883 4.22213 0
M  V30 9190 C 873.022 -0.761997 3.28169 0
M  V30 9191 O 873.552 -1.81979 3.58115 0
M  V30 9192 N 871.758 -0.725017 2.8141 0
M  V30 9193 H 871.305 0.13607 2.5724 0
M  V30 9194 H 871.263 -1.5871 2.71401 0
M  V30 9195 N 875.035 -1.20752 1.01276 0
M  V30 9196 C 876.282 -1.90021 0.699887 0
M  V30 9197 C 876.61 -1.78604 -0.770113 0
M  V30 9198 O 875.865 -1.16195 -1.57471 0
M  V30 9199 C 876.164 -3.40808 1.07633 0
M  V30 9200 C 875.83 -3.72423 2.54189 0
M  V30 9201 C 874.492 -3.80762 2.94234 0
M  V30 9202 C 876.844 -3.87025 3.49086 0
M  V30 9203 C 874.172 -4.01158 4.28123 0
M  V30 9204 C 876.524 -4.0893 4.82658 0
M  V30 9205 C 875.188 -4.15498 5.22415 0
M  V30 9206 H 874.458 -0.695335 0.256107 0
M  V30 9207 H 877.105 -1.43096 1.27263 0
M  V30 9208 H 875.41 -3.89521 0.421944 0
M  V30 9209 H 877.107 -3.92693 0.811997 0
M  V30 9210 H 873.697 -3.66529 2.22158 0
M  V30 9211 H 877.881 -3.79942 3.19309 0
M  V30 9212 H 873.137 -4.04476 4.58486 0
M  V30 9213 H 877.311 -4.19172 5.56119 0
M  V30 9214 H 874.938 -4.31055 6.26176 0
M  V30 9215 N 876.513 -0.788492 -1.36457 0
M  V30 9216 C 877.79 -0.284484 -1.9352 0
M  V30 9217 C 878.17 1.2232 -1.7205 0
M  V30 9218 O 877.518 2.01424 -1.07892 0
M  V30 9219 C 877.728 -0.676106 -3.42388 0
M  V30 9220 C 879.076 -0.655327 -4.19512 0
M  V30 9221 O 880.1 -0.616523 -3.50824 0
M  V30 9222 O 878.959 -0.697391 -5.42032 0
M  V30 9223 H 876.053 -0.0701769 -0.824017 0
M  V30 9224 H 878.599 -0.870974 -1.45644 0
M  V30 9225 H 877.371 -1.71596 -3.51668 0
M  V30 9226 H 876.994 -0.0634517 -3.97549 0
M  V30 9227 N 877.991 1.48044 -0.54043 0
M  V30 9228 C 879.238 2.02497 -0.0101567 0
M  V30 9229 C 879.566 1.41651 1.33286 0
M  V30 9230 O 878.821 0.555504 1.8765 0
M  V30 9231 C 879.12 3.57085 0.150008 0
M  V30 9232 C 878.786 4.36769 -1.11998 0
M  V30 9233 C 877.448 4.58261 -1.46801 0
M  V30 9234 C 879.8 4.82848 -1.96232 0
M  V30 9235 C 877.128 5.23079 -2.65717 0
M  V30 9236 C 879.48 5.48977 -3.14335 0
M  V30 9237 C 878.144 5.68705 -3.49472 0
M  V30 9238 H 877.414 0.740991 -0.00371661 0
M  V30 9239 H 880.061 1.77909 -0.708562 0
M  V30 9240 H 878.366 3.80572 0.931259 0
M  V30 9241 H 880.063 3.96851 0.575384 0
M  V30 9242 H 876.653 4.20309 -0.838957 0
M  V30 9243 H 880.837 4.66038 -1.70654 0
M  V30 9244 H 876.093 5.36549 -2.93129 0
M  V30 9245 H 880.267 5.83649 -3.79904 0
M  V30 9246 H 877.894 6.18703 -4.41713 0
M  V30 9247 N 879.47 0.276058 1.55163 0
M  V30 9248 C 880.747 -0.392292 1.91626 0
M  V30 9249 C 881.127 -1.73646 1.20043 0
M  V30 9250 O 880.475 -2.26139 0.327606 0
M  V30 9251 C 880.685 -0.531641 3.44927 0
M  V30 9252 C 882.033 -0.8141 4.16722 0
M  V30 9253 O 883.057 -0.616413 3.50826 0
M  V30 9254 O 881.916 -1.19224 5.33337 0
M  V30 9255 H 879.01 -0.214945 0.798579 0
M  V30 9256 H 881.556 0.32228 1.66612 0
M  V30 9257 H 880.328 0.414282 3.89101 0
M  V30 9258 H 879.951 -1.29564 3.75897 0
M  V30 9259 N 880.948 -1.576 0.00335426 0
M  V30 9260 C 881.878 -2.11668 -0.985839 0
M  V30 9261 C 882.859 -1.02661 -1.35627 0
M  V30 9262 O 884.044 -1.30361 -1.43943 0
M  V30 9263 C 881.174 -2.62273 -2.27662 0
M  V30 9264 C 880.128 -3.75837 -2.0477 0
M  V30 9265 C 879.454 -4.12769 -3.39891 0
M  V30 9266 C 880.754 -5.02975 -1.40759 0
M  V30 9267 H 882.448 -2.9457 -0.535637 0
M  V30 9268 H 879.994 -1.41702 -0.256204 0
M  V30 9269 H 881.947 -2.98727 -2.97221 0
M  V30 9270 H 880.671 -1.76498 -2.74802 0
M  V30 9271 H 879.33 -3.39782 -1.37636 0
M  V30 9272 H 878.978 -3.24013 -3.8474 0
M  V30 9273 H 878.678 -4.89281 -3.25389 0
M  V30 9274 H 880.202 -4.51784 -4.1076 0
M  V30 9275 H 881.616 -5.37179 -2.00279 0
M  V30 9276 H 880.013 -5.84315 -1.36734 0
M  V30 9277 H 881.083 -4.83431 -0.377218 0
M  V30 9278 N 882.426 0.269451 -1.5528 0
M  V30 9279 C 883.656 1.01724 -1.79821 0
M  V30 9280 C 884.064 1.80298 -0.573532 0
M  V30 9281 O 883.407 1.77666 0.466963 0
M  V30 9282 C 883.469 2.02043 -2.97353 0
M  V30 9283 C 883.133 1.42375 -4.34256 0
M  V30 9284 C 884.13 0.837611 -5.13108 0
M  V30 9285 C 881.815 1.44988 -4.8092 0
M  V30 9286 C 883.809 0.285557 -6.3676 0
M  V30 9287 C 881.496 0.893969 -6.04526 0
M  V30 9288 C 882.494 0.312809 -6.82283 0
M  V30 9289 O 882.182 -0.234582 -8.03558 0
M  V30 9290 H 881.914 0.30604 -0.602757 0
M  V30 9291 H 884.468 0.30454 -2.0313 0
M  V30 9292 H 882.698 2.77082 -2.69745 0
M  V30 9293 H 884.387 2.6298 -3.09187 0
M  V30 9294 H 885.153 0.81009 -4.78187 0
M  V30 9295 H 881.032 1.89162 -4.20403 0
M  V30 9296 H 884.576 -0.168696 -6.97396 0
M  V30 9297 H 880.473 0.918742 -6.38928 0
M  V30 9298 H 881.241 -0.124282 -8.18406 0
M  V30 9299 N 883.904 1.48273 0.534124 0
M  V30 9300 C 885.153 1.55334 1.28663 0
M  V30 9301 C 885.466 0.230345 1.94239 0
M  V30 9302 O 886.672 0.179161 2.70908 0
M  V30 9303 C 885.128 2.73927 2.33435 0
M  V30 9304 C 884.736 4.12852 1.73947 0
M  V30 9305 C 886.48 2.90298 3.09722 0
M  V30 9306 C 884.387 5.22711 2.76636 0
M  V30 9307 H 883.317 0.578262 0.483869 0
M  V30 9308 H 885.968 1.74598 0.564602 0
M  V30 9309 H 884.35 2.48089 3.08655 0
M  V30 9310 H 885.524 4.48691 1.04944 0
M  V30 9311 H 883.839 4.01562 1.10167 0
M  V30 9312 H 886.436 3.69542 3.86449 0
M  V30 9313 H 886.779 1.99598 3.6533 0
M  V30 9314 H 887.312 3.16017 2.41616 0
M  V30 9315 H 884.051 6.15362 2.25852 0
M  V30 9316 H 883.571 4.91364 3.43979 0
M  V30 9317 H 885.25 5.50648 3.39699 0
M  V30 9318 N 885.382 -0.782676 1.36792 0
M  V30 9319 C 886.628 -1.54311 1.3159 0
M  V30 9320 C 886.961 -1.93928 -0.102696 0
M  V30 9321 O 886.236 -1.63233 -1.05761 0
M  V30 9322 C 886.519 -2.81561 2.24489 0
M  V30 9323 C 886.372 -2.48268 3.75078 0
M  V30 9324 C 887.691 -3.83428 2.16034 0
M  V30 9325 H 884.81 -0.559828 0.479335 0
M  V30 9326 H 887.452 -0.898717 1.67401 0
M  V30 9327 H 885.602 -3.36549 1.9408 0
M  V30 9328 H 887.274 -1.99279 4.16036 0
M  V30 9329 H 885.517 -1.81116 3.94182 0
M  V30 9330 H 886.188 -3.39183 4.35499 0
M  V30 9331 H 888.664 -3.37905 2.42815 0
M  V30 9332 H 887.54 -4.70204 2.83194 0
M  V30 9333 H 887.801 -4.26887 1.14976 0
M  V30 9334 N 886.86 -1.21182 -1.00761 0
M  V30 9335 C 888.108 -1.02543 -1.74153 0
M  V30 9336 C 888.429 0.442372 -1.89916 0
M  V30 9337 O 887.699 1.31927 -1.44818 0
M  V30 9338 H 886.279 -0.37644 -0.645214 0
M  V30 9339 H 888.941 -1.52446 -1.21434 0
M  V30 9340 H 888.037 -1.49122 -2.7417 0
M  V30 9341 N 888.338 1.20213 -1.01915 0
M  V30 9342 C 889.615 1.85348 -0.62495 0
M  V30 9343 C 889.995 1.91101 0.896854 0
M  V30 9344 O 889.343 1.42075 1.78961 0
M  V30 9345 C 889.553 3.24849 -1.27571 0
M  V30 9346 C 890.901 4.01107 -1.39277 0
M  V30 9347 O 891.925 3.34211 -1.23212 0
M  V30 9348 O 890.784 5.20914 -1.6526 0
M  V30 9349 H 887.878 0.798303 -0.215965 0
M  V30 9350 H 890.424 1.27782 -1.11669 0
M  V30 9351 H 889.196 3.1544 -2.31545 0
M  V30 9352 H 888.819 3.90049 -0.77122 0
M  V30 9353 N 889.816 0.795718 1.36037 0
M  V30 9354 C 891.064 0.370291 1.98679 0
M  V30 9355 C 891.385 -1.06332 1.63458 0
M  V30 9356 O 890.655 -1.73394 0.911671 0
M  V30 9357 H 889.235 0.133928 0.734896 0
M  V30 9358 H 891.897 1.01915 1.6613 0
M  V30 9359 H 890.993 0.467207 3.08583 0
M  V30 9360 N 891.294 -1.47756 0.548274 0
M  V30 9361 C 892.241 -2.29893 -0.204408 0
M  V30 9362 C 893.211 -1.38509 -0.916761 0
M  V30 9363 O 894.396 -1.67472 -0.91421 0
M  V30 9364 C 891.536 -3.22282 -1.23403 0
M  V30 9365 C 890.649 -4.28753 -0.528654 0
M  V30 9366 C 889.784 -5.08303 -1.54279 0
M  V30 9367 C 888.823 -6.06557 -0.821893 0
M  V30 9368 N 887.96 -6.79098 -1.78243 0
M  V30 9369 H 892.8 -2.93739 0.502163 0
M  V30 9370 H 890.337 -1.44793 0.259471 0
M  V30 9371 H 892.295 -3.74262 -1.84348 0
M  V30 9372 H 890.925 -2.6032 -1.90875 0
M  V30 9373 H 889.977 -3.79899 0.195132 0
M  V30 9374 H 891.289 -4.98787 0.0365066 0
M  V30 9375 H 890.443 -5.64388 -2.22602 0
M  V30 9376 H 889.182 -4.3815 -2.14186 0
M  V30 9377 H 888.187 -5.49659 -0.12469 0
M  V30 9378 H 889.412 -6.78715 -0.228685 0
M  V30 9379 H 887.358 -6.11682 -2.37025 0
M  V30 9380 H 887.275 -7.4527 -1.26919 0
M  V30 9381 H 888.543 -7.39762 -2.45709 0
M  V30 9382 N 892.772 -0.284283 -1.55015 0
M  V30 9383 C 894.002 0.332465 -2.03907 0
M  V30 9384 C 894.41 1.49331 -1.16177 0
M  V30 9385 O 893.753 1.82851 -0.176395 0
M  V30 9386 C 893.815 0.867193 -3.48884 0
M  V30 9387 C 893.479 -0.166198 -4.56698 0
M  V30 9388 C 894.476 -0.988898 -5.10408 0
M  V30 9389 C 892.161 -0.303081 -5.01385 0
M  V30 9390 C 894.155 -1.93458 -6.07333 0
M  V30 9391 C 891.842 -1.25223 -5.98133 0
M  V30 9392 C 892.84 -2.06647 -6.50988 0
M  V30 9393 O 892.528 -2.99955 -7.45843 0
M  V30 9394 H 892.26 0.0786597 -0.671408 0
M  V30 9395 H 894.814 -0.416871 -2.01125 0
M  V30 9396 H 893.044 1.66676 -3.48935 0
M  V30 9397 H 894.733 1.39802 -3.81065 0
M  V30 9398 H 895.499 -0.89393 -4.76691 0
M  V30 9399 H 891.378 0.320711 -4.59883 0
M  V30 9400 H 894.922 -2.57053 -6.48513 0
M  V30 9401 H 890.819 -1.34798 -6.31268 0
M  V30 9402 H 891.587 -2.94742 -7.6359 0
M  V30 9403 N 894.251 1.57596 -0.0117121 0
M  V30 9404 C 895.499 1.90694 0.669342 0
M  V30 9405 C 895.82 0.886999 1.73659 0
M  V30 9406 O 895.09 -0.0739779 1.9576 0
M  V30 9407 H 893.67 0.703846 0.250219 0
M  V30 9408 H 896.332 1.94821 -0.0554057 0
M  V30 9409 H 895.428 2.90802 1.13316 0
M  V30 9410 N 895.729 -0.261212 1.5542 0
M  V30 9411 C 896.692 -1.30645 1.8832 0
M  V30 9412 C 897.692 -1.41782 0.758588 0
M  V30 9413 O 898.882 -1.40729 1.02669 0
M  V30 9414 C 896.014 -2.6862 2.09895 0
M  V30 9415 H 897.207 -1.02698 2.81768 0
M  V30 9416 H 894.76 -0.499838 1.48092 0
M  V30 9417 H 895.495 -3.0173 1.18868 0
M  V30 9418 H 895.28 -2.61921 2.91787 0
M  V30 9419 H 896.77 -3.44121 2.36581 0
M  V30 9420 N 897.207 -1.48554 -0.526253 0
M  V30 9421 C 898.453 -1.57972 -1.28127 0
M  V30 9422 C 898.808 -0.251973 -1.90743 0
M  V30 9423 O 898.101 0.745524 -1.76501 0
M  V30 9424 C 898.295 -2.65739 -2.38993 0
M  V30 9425 C 898.124 -4.08864 -1.87244 0
M  V30 9426 C 896.894 -4.75959 -1.6968 0
M  V30 9427 C 899.092 -4.94912 -1.39882 0
M  V30 9428 N 897.074 -6.03486 -1.12596 0
M  V30 9429 C 898.445 -6.12714 -0.947696 0
M  V30 9430 C 900.5 -4.81107 -1.2822 0
M  V30 9431 C 899.203 -7.18234 -0.391507 0
M  V30 9432 C 901.229 -5.86752 -0.740001 0
M  V30 9433 C 900.591 -7.03765 -0.298968 0
M  V30 9434 H 896.69 -0.632588 -0.459735 0
M  V30 9435 H 899.274 -1.85452 -0.59294 0
M  V30 9436 H 897.445 -2.40075 -3.05317 0
M  V30 9437 H 899.177 -2.64821 -3.06026 0
M  V30 9438 H 895.932 -4.32351 -1.93312 0
M  V30 9439 H 896.356 -6.71509 -0.860541 0
M  V30 9440 H 900.998 -3.90978 -1.60922 0
M  V30 9441 H 898.716 -8.08083 -0.0521685 0
M  V30 9442 H 902.302 -5.78125 -0.652889 0
M  V30 9443 H 901.182 -7.84117 0.114052 0
M  V30 9444 N 898.685 0.775411 -1.37205 0
M  V30 9445 C 899.632 1.88857 -1.32671 0
M  V30 9446 C 900.602 1.64976 -0.192899 0
M  V30 9447 O 901.787 1.86944 -0.381673 0
M  V30 9448 C 898.927 3.25871 -1.13588 0
M  V30 9449 C 898.04 3.61731 -2.36167 0
M  V30 9450 C 897.175 4.87934 -2.09985 0
M  V30 9451 C 896.214 5.16514 -3.2845 0
M  V30 9452 N 895.351 6.33905 -3.01842 0
M  V30 9453 H 900.191 1.92068 -2.27846 0
M  V30 9454 H 897.728 0.939066 -1.13225 0
M  V30 9455 H 899.686 4.04903 -1.00546 0
M  V30 9456 H 898.316 3.22045 -0.220613 0
M  V30 9457 H 897.368 2.77712 -2.59962 0
M  V30 9458 H 898.68 3.78792 -3.24528 0
M  V30 9459 H 897.834 5.74863 -1.93953 0
M  V30 9460 H 896.573 4.7297 -1.18956 0
M  V30 9461 H 895.578 4.28063 -3.45025 0
M  V30 9462 H 896.803 5.33389 -4.20325 0
M  V30 9463 H 894.749 6.20306 -2.13439 0
M  V30 9464 H 894.666 6.51364 -3.83746 0
M  V30 9465 H 895.934 7.23779 -2.8942 0
M  V30 9466 N 900.163 1.21714 1.00117 0
M  V30 9467 C 901.111 0.976937 2.11089 0
M  V30 9468 C 902.105 -0.0771295 1.69224 0
M  V30 9469 O 903.311 0.0745945 1.79845 0
M  V30 9470 H 899.686 0.298687 0.690138 0
M  V30 9471 H 901.657 1.91881 2.28526 0
M  V30 9472 C 900.406 0.562369 3.43122 0
M  V30 9473 H 899.729 1.36509 3.75773 0
M  V30 9474 H 901.169 0.433642 4.21777 0
M  V30 9475 C 899.628 -0.727148 3.28959 0
M  V30 9476 O 900.158 -1.78171 3.60025 0
M  V30 9477 N 898.364 -0.695129 2.82164 0
M  V30 9478 H 897.911 0.163346 2.57082 0
M  V30 9479 H 897.869 -1.55822 2.73069 0
M  V30 9480 N 901.641 -1.19671 1.02551 0
M  V30 9481 C 902.889 -1.88894 0.71858 0
M  V30 9482 C 903.21 -1.79797 -0.754856 0
M  V30 9483 O 902.48 -1.20621 -1.54362 0
M  V30 9484 H 901.06 -0.699244 0.262806 0
M  V30 9485 H 903.722 -1.45298 1.29902 0
M  V30 9486 H 902.818 -2.95309 1.00989 0
M  V30 9487 N 903.119 -0.802921 -1.35613 0
M  V30 9488 C 904.069 -0.183492 -2.2726 0
M  V30 9489 C 905.053 0.640527 -1.47601 0
M  V30 9490 O 906.245 0.498386 -1.69838 0
M  V30 9491 C 903.374 0.67003 -3.36698 0
M  V30 9492 C 902.46 -0.163517 -4.23785 0
M  V30 9493 N 902.851 -1.22472 -4.90749 0
M  V30 9494 C 901.149 0.0554547 -4.45966 0
M  V30 9495 C 901.85 -1.73329 -5.55276 0
M  V30 9496 N 900.826 -1.04033 -5.33552 0
M  V30 9497 H 904.628 -0.995525 -2.76526 0
M  V30 9498 H 902.142 -0.643714 -1.49098 0
M  V30 9499 H 904.139 1.12981 -4.01299 0
M  V30 9500 H 902.799 1.48045 -2.88986 0
M  V30 9501 H 903.81 -1.60733 -4.92327 0
M  V30 9502 H 900.487 0.835312 -4.09058 0
M  V30 9503 H 901.877 -2.62 -6.18713 0
M  V30 9504 N 904.597 1.47463 -0.556102 0
M  V30 9505 C 905.843 2.03361 -0.039909 0
M  V30 9506 C 906.198 1.42292 1.29502 0
M  V30 9507 O 905.491 0.568813 1.82962 0
M  V30 9508 C 905.685 3.57224 0.112126 0
M  V30 9509 C 905.514 4.33213 -1.20652 0
M  V30 9510 C 904.284 4.73153 -1.77352 0
M  V30 9511 C 906.482 4.68415 -2.12348 0
M  V30 9512 N 904.464 5.33781 -3.03233 0
M  V30 9513 C 905.835 5.29334 -3.22808 0
M  V30 9514 C 907.89 4.50344 -2.12356 0
M  V30 9515 C 906.593 5.7409 -4.33374 0
M  V30 9516 C 908.619 4.96098 -3.21933 0
M  V30 9517 C 907.981 5.57065 -4.31112 0
M  V30 9518 H 904.08 0.779939 -0.0567407 0
M  V30 9519 H 906.664 1.79959 -0.743147 0
M  V30 9520 H 904.835 3.80395 0.784485 0
M  V30 9521 H 906.567 3.99762 0.630285 0
M  V30 9522 H 903.322 4.55074 -1.31165 0
M  V30 9523 H 903.746 5.6864 -3.67393 0
M  V30 9524 H 908.388 4.02566 -1.29229 0
M  V30 9525 H 906.106 6.2086 -5.17261 0
M  V30 9526 H 909.692 4.83887 -3.23024 0
M  V30 9527 H 908.572 5.91824 -5.14504 0
M  V30 9528 N 906.075 0.2925 1.54862 0
M  V30 9529 C 907.303 -0.322113 2.04377 0
M  V30 9530 C 907.718 -1.48164 1.17016 0
M  V30 9531 O 907.075 -1.81466 0.19395 0
M  V30 9532 C 907.126 -0.786506 3.5284 0
M  V30 9533 O 906.847 0.326863 4.36879 0
M  V30 9534 C 908.348 -1.46715 4.18318 0
M  V30 9535 H 905.568 -0.0712074 0.667211 0
M  V30 9536 H 908.112 0.429657 1.99935 0
M  V30 9537 H 906.267 -1.48832 3.5767 0
M  V30 9538 H 906.681 -0.0331558 5.2449 0
M  V30 9539 H 908.155 -1.74333 5.23748 0
M  V30 9540 H 908.632 -2.40443 3.67538 0
M  V30 9541 H 909.238 -0.808735 4.1754 0
M  V30 9542 N 907.553 -1.57587 0.0200696 0
M  V30 9543 C 908.801 -1.91046 -0.65922 0
M  V30 9544 C 909.122 -0.896197 -1.73186 0
M  V30 9545 O 908.392 0.0635952 -1.95797 0
M  V30 9546 H 906.972 -0.705163 -0.246483 0
M  V30 9547 H 909.634 -1.94789 0.0657368 0
M  V30 9548 H 908.73 -2.91399 -1.11773 0
M  V30 9549 N 909.032 0.252966 -1.55557 0
M  V30 9550 C 909.962 1.31691 -1.9282 0
M  V30 9551 C 910.943 1.50516 -0.7924 0
M  V30 9552 O 912.128 1.63225 -1.05219 0
M  V30 9553 C 909.258 2.67281 -2.21762 0
M  V30 9554 C 908.212 2.6316 -3.37536 0
M  V30 9555 C 907.538 4.02488 -3.52005 0
M  V30 9556 C 908.838 2.20675 -4.73392 0
M  V30 9557 H 910.532 1.00751 -2.81939 0
M  V30 9558 H 908.078 0.483219 -1.3565 0
M  V30 9559 H 910.031 3.41842 -2.46419 0
M  V30 9560 H 908.755 2.99845 -1.29463 0
M  V30 9561 H 907.414 1.91057 -3.12878 0
M  V30 9562 H 907.062 4.32307 -2.57137 0
M  V30 9563 H 906.762 4.00621 -4.29857 0
M  V30 9564 H 908.286 4.78758 -3.78977 0
M  V30 9565 H 909.7 2.84965 -4.97461 0
M  V30 9566 H 908.097 2.29931 -5.54303 0
M  V30 9567 H 909.167 1.15831 -4.70862 0
M  V30 9568 N 910.51 1.48831 0.518367 0
M  V30 9569 C 911.756 1.57672 1.27543 0
M  V30 9570 C 912.089 0.254915 1.9252 0
M  V30 9571 O 911.364 -0.740107 1.79868 0
M  V30 9572 C 911.647 2.72345 2.35585 0
M  V30 9573 C 911.5 4.14267 1.75224 0
M  V30 9574 C 912.819 2.82726 3.37274 0
M  V30 9575 H 909.938 0.573926 0.462361 0
M  V30 9576 H 912.58 1.8105 0.576267 0
M  V30 9577 H 910.73 2.52543 2.95219 0
M  V30 9578 H 912.402 4.45539 1.19551 0
M  V30 9579 H 910.645 4.20724 1.05706 0
M  V30 9580 H 911.316 4.90345 2.53507 0
M  V30 9581 H 913.792 3.00699 2.8761 0
M  V30 9582 H 912.668 3.6467 4.10252 0
M  V30 9583 H 912.929 1.9136 3.9854 0
M  V30 9584 N 911.988 -0.768124 1.37614 0
M  V30 9585 C 913.236 -1.52379 1.3276 0
M  V30 9586 C 913.557 -1.94809 -0.0863564 0
M  V30 9587 O 912.827 -1.66568 -1.03112 0
M  V30 9588 H 911.407 -0.565179 0.488448 0
M  V30 9589 H 914.069 -0.913974 1.72141 0
M  V30 9590 H 913.165 -2.4215 1.96901 0
M  V30 9591 N 913.466 -1.22244 -0.994698 0
M  V30 9592 C 914.743 -0.954459 -1.70732 0
M  V30 9593 C 915.123 0.530945 -2.04314 0
M  V30 9594 O 914.471 1.49851 -1.72502 0
M  V30 9595 C 914.681 -1.85016 -2.95922 0
M  V30 9596 C 916.029 -2.10517 -3.68738 0
M  V30 9597 O 917.053 -1.82449 -3.05926 0
M  V30 9598 O 915.912 -2.58044 -4.81742 0
M  V30 9599 H 913.006 -0.35879 -0.745116 0
M  V30 9600 H 915.552 -1.33221 -1.0512 0
M  V30 9601 H 914.324 -2.85498 -2.67594 0
M  V30 9602 H 913.947 -1.47388 -3.69273 0
M  V30 9603 N 914.944 1.19125 -1.03184 0
M  V30 9604 C 915.874 2.24675 -0.635889 0
M  V30 9605 C 916.855 1.66321 0.356565 0
M  V30 9606 O 918.04 1.92728 0.238625 0
M  V30 9607 C 915.17 3.47298 0.011069 0
M  V30 9608 C 914.124 4.18345 -0.903979 0
M  V30 9609 C 913.45 5.34561 -0.12197 0
M  V30 9610 C 914.75 4.72816 -2.21907 0
M  V30 9611 H 916.444 2.5805 -1.51825 0
M  V30 9612 H 913.99 1.24039 -0.73146 0
M  V30 9613 H 915.943 4.20333 0.299729 0
M  V30 9614 H 914.667 3.13131 0.928245 0
M  V30 9615 H 913.326 3.47196 -1.17688 0
M  V30 9616 H 912.974 4.9664 0.797334 0
M  V30 9617 H 912.674 5.83029 -0.731498 0
M  V30 9618 H 914.198 6.10391 0.159881 0
M  V30 9619 H 915.612 5.3759 -1.99173 0
M  V30 9620 H 914.009 5.31782 -2.78078 0
M  V30 9621 H 915.079 3.9072 -2.87168 0
M  V30 9622 N 916.422 0.810101 1.35185 0
M  V30 9623 C 917.352 0.237453 2.32289 0
M  V30 9624 C 918.333 -0.639032 1.5764 0
M  V30 9625 O 919.518 -0.568575 1.8569 0
M  V30 9626 C 916.648 -0.611964 3.41866 0
M  V30 9627 C 915.602 0.166318 4.27677 0
M  V30 9628 C 914.928 -0.805024 5.28605 0
M  V30 9629 C 916.228 1.36729 5.04086 0
M  V30 9630 H 917.922 1.04874 2.80432 0
M  V30 9631 H 915.468 0.505751 1.34826 0
M  V30 9632 H 917.421 -1.02267 4.08802 0
M  V30 9633 H 916.145 -1.45617 2.92341 0
M  V30 9634 H 914.804 0.558238 3.62325 0
M  V30 9635 H 914.452 -1.64483 4.75347 0
M  V30 9636 H 914.152 -0.288577 5.86891 0
M  V30 9637 H 915.676 -1.21386 5.98413 0
M  V30 9638 H 917.09 1.03128 5.63948 0
M  V30 9639 H 915.487 1.81848 5.71884 0
M  V30 9640 H 916.557 2.15214 4.34524 0
M  V30 9641 N 917.9 -1.47166 0.563914 0
M  V30 9642 C 919.316 -1.58018 0.224173 0
M  V30 9643 C 919.516 -1.56163 -1.27339 0
M  V30 9644 O 918.572 -1.4686 -2.05398 0
M  V30 9645 C 919.885 -2.88236 0.856762 0
M  V30 9646 C 921.433 -3.01833 0.82861 0
M  V30 9647 C 921.908 -4.34761 1.44039 0
M  V30 9648 N 923.399 -4.41413 1.40388 0
M  V30 9649 C 924.134 -5.42845 1.84681 0
M  V30 9650 N 923.63 -6.51052 2.3686 0
M  V30 9651 N 925.423 -5.33931 1.75711 0
M  V30 9652 H 917.574 -1.46615 1.53681 0
M  V30 9653 H 919.837 -0.698195 0.64127 0
M  V30 9654 H 919.543 -2.95349 1.90949 0
M  V30 9655 H 919.417 -3.75537 0.353766 0
M  V30 9656 H 921.804 -2.94312 -0.215451 0
M  V30 9657 H 921.885 -2.16056 1.36943 0
M  V30 9658 H 921.529 -4.43037 2.48355 0
M  V30 9659 H 921.459 -5.1928 0.874953 0
M  V30 9660 H 923.95 -3.63811 1.02227 0
M  V30 9661 H 924.263 -7.24633 2.68564 0
M  V30 9662 H 922.608 -6.51924 2.40875 0
M  V30 9663 H 925.799 -4.48295 1.34718 0
M  V30 9664 H 925.972 -6.12841 2.10547 0
M  V30 9665 N 919.378 -0.300708 -1.54705 0
M  V30 9666 C 920.626 0.308044 -1.99739 0
M  V30 9667 C 920.947 1.54433 -1.19061 0
M  V30 9668 O 920.217 1.93794 -0.286507 0
M  V30 9669 H 918.797 0.116811 -0.73781 0
M  V30 9670 H 921.459 -0.41197 -1.90496 0
M  V30 9671 H 920.555 0.580287 -3.06658 0
M  V30 9672 N 920.856 1.57574 -0.0284266 0
M  V30 9673 C 922.084 1.96071 0.660575 0
M  V30 9674 C 922.499 0.904881 1.65703 0
M  V30 9675 O 921.856 -0.113379 1.82147 0
M  V30 9676 C 921.907 3.34634 1.36756 0
M  V30 9677 O 921.628 4.36167 0.411041 0
M  V30 9678 C 923.129 3.87758 2.14845 0
M  V30 9679 H 920.349 0.645794 0.182183 0
M  V30 9680 H 922.893 2.04311 -0.0879858 0
M  V30 9681 H 921.048 3.27616 2.06753 0
M  V30 9682 H 921.462 5.16493 0.913 0
M  V30 9683 H 922.936 4.87058 2.59767 0
M  V30 9684 H 923.413 3.21967 2.9872 0
M  V30 9685 H 924.019 3.98043 1.49807 0
M  V30 9686 N 922.334 -0.244713 1.55689 0
M  V30 9687 C 923.297 -1.2864 1.89695 0
M  V30 9688 C 924.297 -1.40969 0.773583 0
M  V30 9689 O 925.487 -1.39632 1.04156 0
M  V30 9690 C 922.619 -2.66379 2.12732 0
M  V30 9691 H 923.812 -0.997033 2.82841 0
M  V30 9692 H 921.365 -0.484103 1.48614 0
M  V30 9693 H 922.1 -3.00452 1.22062 0
M  V30 9694 H 921.885 -2.58812 2.94549 0
M  V30 9695 H 923.375 -3.41592 2.40218 0
M  V30 9696 N 923.813 -1.49104 -0.510467 0
M  V30 9697 C 924.763 -1.6147 -1.6097 0
M  V30 9698 C 925.747 -0.470797 -1.53858 0
M  V30 9699 O 926.939 -0.723266 -1.61548 0
M  V30 9700 C 924.068 -1.67575 -2.99622 0
M  V30 9701 C 923.154 -2.87511 -3.11766 0
M  V30 9702 N 923.545 -4.11704 -2.93826 0
M  V30 9703 C 921.843 -2.85251 -3.42852 0
M  V30 9704 C 922.544 -4.92276 -3.09902 0
M  V30 9705 N 921.52 -4.2546 -3.38355 0
M  V30 9706 H 925.322 -2.5522 -1.45739 0
M  V30 9707 H 922.836 -1.45745 -0.716383 0
M  V30 9708 H 924.833 -1.74531 -3.78609 0
M  V30 9709 H 923.493 -0.749557 -3.1593 0
M  V30 9710 H 924.504 -4.41834 -2.70191 0
M  V30 9711 H 921.181 -2.0197 -3.65396 0
M  V30 9712 H 922.571 -6.00905 -3.00604 0
M  V30 9713 N 925.291 0.760815 -1.38019 0
M  V30 9714 C 926.224 1.88212 -1.2904 0
M  V30 9715 C 927.202 1.61721 -0.168805 0
M  V30 9716 O 928.386 1.85318 -0.344893 0
M  V30 9717 C 925.513 3.23672 -0.997702 0
M  V30 9718 C 924.559 3.6906 -2.13769 0
M  V30 9719 S 925.392 3.81445 -3.75845 0
M  V30 9720 C 926.548 5.19736 -3.48748 0
M  V30 9721 H 926.781 1.95541 -2.23944 0
M  V30 9722 H 924.314 0.923051 -1.2377 0
M  V30 9723 H 926.272 4.01904 -0.835657 0
M  V30 9724 H 924.933 3.14031 -0.065967 0
M  V30 9725 H 924.126 4.67295 -1.88816 0
M  V30 9726 H 923.728 2.97961 -2.26043 0
M  V30 9727 H 926.02 6.05259 -3.04414 0
M  V30 9728 H 926.963 5.49706 -4.46351 0
M  V30 9729 H 927.371 4.88191 -2.83425 0
M  V30 9730 N 926.769 1.22769 0.988202 0
M  V30 9731 C 927.732 1.00325 2.06076 0
M  V30 9732 C 928.732 -0.0320618 1.60768 0
M  V30 9733 O 929.922 0.206912 1.72967 0
M  V30 9734 C 927.054 0.516376 3.36966 0
M  V30 9735 H 928.247 1.95499 2.27421 0
M  V30 9736 H 925.8 1.04704 1.16047 0
M  V30 9737 H 926.535 -0.439498 3.21308 0
M  V30 9738 H 926.32 1.26337 3.71189 0
M  V30 9739 H 927.81 0.37974 4.1587 0
M  V30 9740 N 928.247 -1.18576 1.03814 0
M  V30 9741 C 929.493 -1.88773 0.741132 0
M  V30 9742 C 929.826 -1.79993 -0.729127 0
M  V30 9743 O 929.101 -1.19851 -1.53186 0
M  V30 9744 C 929.384 -3.39352 1.20468 0
M  V30 9745 C 929.237 -3.56955 2.73684 0
M  V30 9746 C 930.556 -4.32901 0.792741 0
M  V30 9747 H 927.675 -0.685482 0.270708 0
M  V30 9748 H 930.317 -1.39523 1.2897 0
M  V30 9749 H 928.467 -3.81427 0.737974 0
M  V30 9750 H 930.139 -3.2399 3.28372 0
M  V30 9751 H 928.382 -2.99696 3.13632 0
M  V30 9752 H 929.053 -4.62598 3.01176 0
M  V30 9753 H 931.529 -3.98592 1.1943 0
M  V30 9754 H 930.405 -5.36828 1.14486 0
M  V30 9755 H 930.666 -4.41052 -0.304295 0
M  V30 9756 N 929.725 -0.817259 -1.34754 0
M  V30 9757 C 930.953 -0.415451 -2.02686 0
M  V30 9758 C 931.368 0.97688 -1.61563 0
M  V30 9759 O 930.725 1.63125 -0.818321 0
M  V30 9760 C 930.776 -0.501486 -3.58005 0
M  V30 9761 O 930.497 -1.83893 -3.97637 0
M  V30 9762 C 931.998 -0.0938504 -4.43201 0
M  V30 9763 H 929.218 -0.16742 -0.649778 0
M  V30 9764 H 931.762 -1.10384 -1.7215 0
M  V30 9765 H 929.917 0.138766 -3.87151 0
M  V30 9766 H 930.331 -1.8092 -4.92309 0
M  V30 9767 H 931.805 -0.205145 -5.51619 0
M  V30 9768 H 932.282 0.962011 -4.28535 0
M  V30 9769 H 932.888 -0.707677 -4.19371 0
M  V30 9770 N 931.203 1.46865 -0.571711 0
M  V30 9771 C 932.428 2.07323 -0.0564655 0
M  V30 9772 C 932.853 1.41938 1.23431 0
M  V30 9773 O 932.211 0.499334 1.74288 0
M  V30 9774 C 932.259 3.6044 0.107339 0
M  V30 9775 O 931.363 3.95558 1.1665 0
M  V30 9776 H 930.704 0.661475 -0.0578465 0
M  V30 9777 H 933.234 1.88669 -0.791524 0
M  V30 9778 H 933.244 4.06767 0.316987 0
M  V30 9779 H 931.919 4.07425 -0.835348 0
M  V30 9780 H 930.496 3.60957 0.936189 0
M  V30 9781 N 932.681 0.308908 1.54543 0
M  V30 9782 C 933.928 -0.298036 2.00295 0
M  V30 9783 C 934.256 -1.53285 1.19724 0
M  V30 9784 O 933.511 -1.93917 0.263551 0
M  V30 9785 C 933.81 -0.691522 3.50646 0
M  V30 9786 C 933.476 0.442454 4.48724 0
M  V30 9787 C 932.138 0.753739 4.7526 0
M  V30 9788 C 934.49 1.20488 5.07082 0
M  V30 9789 C 931.818 1.83044 5.57415 0
M  V30 9790 C 934.17 2.27156 5.90409 0
M  V30 9791 C 932.834 2.58882 6.15253 0
M  V30 9792 H 932.104 -0.109059 0.73293 0
M  V30 9793 H 934.751 0.429647 1.86618 0
M  V30 9794 H 933.056 -1.49941 3.61974 0
M  V30 9795 H 934.753 -1.17244 3.83477 0
M  V30 9796 H 931.343 0.189744 4.2818 0
M  V30 9797 H 935.527 0.977653 4.86575 0
M  V30 9798 H 930.783 2.08088 5.749 0
M  V30 9799 H 934.957 2.86687 6.34652 0
M  V30 9800 H 932.584 3.42443 6.78702 0
M  V30 9801 N 934.159 -1.57557 0.0367827 0
M  V30 9802 C 935.384 -1.96828 -0.653707 0
M  V30 9803 C 935.809 -0.913559 -1.64425 0
M  V30 9804 O 935.167 0.124749 -1.8087 0
M  V30 9805 C 935.215 -3.35189 -1.32969 0
M  V30 9806 O 934.319 -3.32095 -2.44513 0
M  V30 9807 H 933.66 -0.64157 -0.171124 0
M  V30 9808 H 936.19 -2.04351 0.100912 0
M  V30 9809 H 936.2 -3.71593 -1.68472 0
M  V30 9810 H 934.875 -4.11496 -0.603654 0
M  V30 9811 H 933.452 -3.07418 -2.11065 0
M  V30 9812 N 935.637 0.236453 -1.55816 0
M  V30 9813 C 936.886 0.960981 -1.77336 0
M  V30 9814 C 937.199 1.86085 -0.602641 0
M  V30 9815 O 938.405 2.62291 -0.701106 0
M  V30 9816 C 936.861 1.75884 -3.13995 0
M  V30 9817 C 936.469 0.905849 -4.38746 0
M  V30 9818 C 938.213 2.47548 -3.44848 0
M  V30 9819 C 936.12 1.7002 -5.66434 0
M  V30 9820 H 935.05 0.362547 -0.661117 0
M  V30 9821 H 937.701 0.215303 -1.82233 0
M  V30 9822 H 936.083 2.54687 -3.03234 0
M  V30 9823 H 937.257 0.159415 -4.60524 0
M  V30 9824 H 935.572 0.30205 -4.15303 0
M  V30 9825 H 938.169 3.07452 -4.37467 0
M  V30 9826 H 938.512 3.19689 -2.66655 0
M  V30 9827 H 939.045 1.75747 -3.56872 0
M  V30 9828 H 935.784 1.02234 -6.47479 0
M  V30 9829 H 935.304 2.42164 -5.48741 0
M  V30 9830 H 936.983 2.26469 -6.0607 0
M  V30 9831 N 937.115 1.49373 0.502552 0
M  V30 9832 C 938.063 1.66411 1.62512 0
M  V30 9833 C 939.057 0.530062 1.60893 0
M  V30 9834 O 940.263 0.709648 1.65421 0
M  V30 9835 H 936.638 0.524707 0.538689 0
M  V30 9836 H 938.609 2.60639 1.45293 0
M  V30 9837 C 937.358 1.74648 3.00655 0
M  V30 9838 H 936.681 2.61285 3.02606 0
M  V30 9839 H 938.121 1.90605 3.78742 0
M  V30 9840 C 936.58 0.490963 3.33303 0
M  V30 9841 O 937.11 -0.384039 3.9986 0
M  V30 9842 N 935.316 0.354375 2.88431 0
M  V30 9843 H 934.863 1.06742 2.34444 0
M  V30 9844 H 934.821 -0.484593 3.10643 0
M  V30 9845 N 938.594 -0.753485 1.38421 0
M  V30 9846 C 939.822 -1.54272 1.37868 0
M  V30 9847 C 940.237 -1.88774 -0.0315155 0
M  V30 9848 O 939.594 -1.52785 -0.998148 0
M  V30 9849 C 939.645 -2.84179 2.23438 0
M  V30 9850 O 939.366 -2.51149 3.58965 0
M  V30 9851 C 940.867 -3.78316 2.31067 0
M  V30 9852 H 938.087 -0.47735 0.47157 0
M  V30 9853 H 940.631 -0.932509 1.82001 0
M  V30 9854 H 938.786 -3.41577 1.82767 0
M  V30 9855 H 939.2 -3.34466 4.04021 0
M  V30 9856 H 940.674 -4.66418 2.95226 0
M  V30 9857 H 941.151 -4.18757 1.32436 0
M  V30 9858 H 941.757 -3.26842 2.72129 0
M  V30 9859 N 940.072 -1.23292 -0.981677 0
M  V30 9860 C 941.035 -1.01417 -2.05542 0
M  V30 9861 C 942.035 0.0235354 -1.60783 0
M  V30 9862 O 943.225 -0.216082 -1.72855 0
M  V30 9863 C 940.357 -0.534239 -3.36688 0
M  V30 9864 H 941.55 -1.96702 -2.26381 0
M  V30 9865 H 939.103 -1.05318 -1.1549 0
M  V30 9866 H 939.838 0.422452 -3.21537 0
M  V30 9867 H 939.623 -1.28304 -3.70514 0
M  V30 9868 H 941.113 -0.40179 -4.15663 0
M  V30 9869 N 941.55 1.18024 -1.04442 0
M  V30 9870 C 942.966 1.40107 -0.76435 0
M  V30 9871 C 943.166 1.90914 0.644516 0
M  V30 9872 O 942.222 2.0959 1.40813 0
M  V30 9873 C 943.535 2.39851 -1.81361 0
M  V30 9874 C 945.083 2.53571 -1.83496 0
M  V30 9875 C 945.558 3.56583 -2.87424 0
M  V30 9876 N 947.049 3.64094 -2.86339 0
M  V30 9877 C 947.784 4.43537 -3.63405 0
M  V30 9878 N 947.28 5.26557 -4.50233 0
M  V30 9879 N 949.073 4.38336 -3.51877 0
M  V30 9880 H 941.224 0.833726 -1.95353 0
M  V30 9881 H 943.487 0.42881 -0.845474 0
M  V30 9882 H 943.193 2.09576 -2.82438 0
M  V30 9883 H 943.067 3.39251 -1.6489 0
M  V30 9884 H 945.454 2.83161 -0.830883 0
M  V30 9885 H 945.535 1.54272 -2.04044 0
M  V30 9886 H 945.179 3.27733 -3.88012 0
M  V30 9887 H 945.109 4.55569 -2.6413 0
M  V30 9888 H 947.6 3.04814 -2.23376 0
M  V30 9889 H 947.913 5.84336 -5.05738 0
M  V30 9890 H 946.258 5.25964 -4.54298 0
M  V30 9891 H 949.449 3.72528 -2.83444 0
M  V30 9892 H 949.622 5.00007 -4.12186 0
M  V30 9893 N 943.028 0.824394 1.34319 0
M  V30 9894 C 944.253 0.425194 2.02995 0
M  V30 9895 C 944.678 -0.961476 1.6167 0
M  V30 9896 O 944.036 -1.62593 0.80207 0
M  V30 9897 C 944.084 0.537004 3.56579 0
M  V30 9898 O 943.188 -0.442576 4.10018 0
M  V30 9899 H 942.529 0.174853 0.640564 0
M  V30 9900 H 945.059 1.11522 1.71534 0
M  V30 9901 H 945.069 0.413311 4.05901 0
M  V30 9902 H 943.744 1.54836 3.86004 0
M  V30 9903 H 942.321 -0.277644 3.71865 0
M  V30 9904 N 944.506 -1.46559 0.579492 0
M  V30 9905 C 945.438 -2.28383 -0.19337 0
M  V30 9906 C 946.451 -1.38324 -0.858511 0
M  V30 9907 O 947.64 -1.62952 -0.728615 0
M  V30 9908 C 944.74 -3.13262 -1.29306 0
M  V30 9909 C 943.913 -4.31426 -0.720459 0
M  V30 9910 C 942.972 -4.97728 -1.70744 0
M  V30 9911 O 941.998 -5.55423 -1.24476 0
M  V30 9912 N 943.2 -4.94445 -3.04146 0
M  V30 9913 H 945.965 -2.95353 0.508611 0
M  V30 9914 H 943.526 -1.56436 0.417046 0
M  V30 9915 H 945.518 -3.54483 -1.95254 0
M  V30 9916 H 944.088 -2.48388 -1.89795 0
M  V30 9917 H 943.308 -3.94028 0.116398 0
M  V30 9918 H 944.596 -5.07808 -0.31763 0
M  V30 9919 H 943.994 -4.4881 -3.44363 0
M  V30 9920 H 942.551 -5.39616 -3.65592 0
M  V30 9921 N 945.984 -0.3171 -1.54377 0
M  V30 9922 C 947.23 0.287836 -2.00747 0
M  V30 9923 C 947.563 1.52292 -1.20502 0
M  V30 9924 O 946.838 1.92391 -0.285626 0
M  V30 9925 C 947.121 0.628423 -3.54574 0
M  V30 9926 C 946.974 -0.616922 -4.45549 0
M  V30 9927 C 948.293 1.44862 -4.15575 0
M  V30 9928 H 945.412 0.103144 -0.729747 0
M  V30 9929 H 948.054 -0.432396 -1.85014 0
M  V30 9930 H 946.204 1.24203 -3.68111 0
M  V30 9931 H 947.876 -1.25526 -4.43893 0
M  V30 9932 H 946.119 -1.24706 -4.15489 0
M  V30 9933 H 946.79 -0.334243 -5.50987 0
M  V30 9934 H 949.266 0.930015 -4.05574 0
M  V30 9935 H 948.142 1.6557 -5.23333 0
M  V30 9936 H 948.403 2.44279 -3.68484 0
M  V30 9937 N 947.462 1.57535 -0.0451378 0
M  V30 9938 C 948.711 1.91628 0.629415 0
M  V30 9939 C 949.024 0.924754 1.72359 0
M  V30 9940 O 950.23 1.15751 2.45589 0
M  V30 9941 C 948.686 3.40322 1.17084 0
M  V30 9942 C 948.294 4.47867 0.109101 0
M  V30 9943 C 950.038 3.83458 1.82099 0
M  V30 9944 C 947.945 5.87671 0.663072 0
M  V30 9945 H 946.875 0.715163 0.238868 0
M  V30 9946 H 949.526 1.83151 -0.113046 0
M  V30 9947 H 947.908 3.43783 1.96543 0
M  V30 9948 H 949.082 4.55988 -0.664201 0
M  V30 9949 H 947.397 4.14034 -0.443227 0
M  V30 9950 H 949.994 4.85273 2.2453 0
M  V30 9951 H 950.337 3.19379 2.67026 0
M  V30 9952 H 950.87 3.82488 1.09305 0
M  V30 9953 H 947.609 6.55332 -0.148423 0
M  V30 9954 H 947.129 5.83124 1.4045 0
M  V30 9955 H 948.808 6.36737 1.14785 0
M  V30 9956 N 948.94 -0.228186 1.55939 0
M  V30 9957 C 950.217 -0.977492 1.69424 0
M  V30 9958 C 950.597 -2.02674 0.590479 0
M  V30 9959 O 949.945 -2.2491 -0.403467 0
M  V30 9960 C 950.155 -1.59394 3.10475 0
M  V30 9961 C 951.503 -2.08871 3.69673 0
M  V30 9962 O 952.527 -1.693 3.13394 0
M  V30 9963 O 951.386 -2.81584 4.68372 0
M  V30 9964 H 948.48 -0.456185 0.6898 0
M  V30 9965 H 951.026 -0.220492 1.68261 0
M  V30 9966 H 949.798 -0.835971 3.82266 0
M  V30 9967 H 949.421 -2.41665 3.15727 0
M  V30 9968 N 950.418 -1.49637 -0.494624 0
M  V30 9969 C 951.665 -1.59445 -1.24834 0
M  V30 9970 C 951.993 -0.284028 -1.92415 0
M  V30 9971 O 951.248 0.728519 -1.81634 0
M  V30 9972 C 951.547 -2.70749 -2.33302 0
M  V30 9973 C 951.213 -4.12034 -1.83135 0
M  V30 9974 C 949.875 -4.50482 -1.69173 0
M  V30 9975 C 952.227 -5.00432 -1.4566 0
M  V30 9976 C 949.555 -5.75093 -1.16124 0
M  V30 9977 C 951.907 -6.25568 -0.940608 0
M  V30 9978 C 950.571 -6.62839 -0.787432 0
M  V30 9979 H 949.841 -0.583451 -0.456799 0
M  V30 9980 H 952.488 -1.8349 -0.548044 0
M  V30 9981 H 950.793 -2.407 -3.09145 0
M  V30 9982 H 952.49 -2.75546 -2.91334 0
M  V30 9983 H 949.08 -3.8169 -1.94964 0
M  V30 9984 H 953.264 -4.71379 -1.55291 0
M  V30 9985 H 948.52 -6.02665 -1.02982 0
M  V30 9986 H 952.694 -6.93439 -0.641467 0
M  V30 9987 H 950.321 -7.59279 -0.374191 0
M  V30 9988 N 951.896 0.746133 -1.38819 0
M  V30 9989 C 953.124 1.53539 -1.38685 0
M  V30 9990 C 953.539 1.88788 0.0215039 0
M  V30 9991 O 952.896 1.53312 0.990031 0
M  V30 9992 C 952.947 2.8299 -2.24942 0
M  V30 9993 O 952.668 2.49242 -3.60292 0
M  V30 9994 C 954.169 3.77085 -2.3307 0
M  V30 9995 H 951.389 0.474842 -0.474095 0
M  V30 9996 H 953.933 0.922844 -1.82493 0
M  V30 9997 H 952.088 3.40603 -1.84576 0
M  V30 9998 H 952.502 3.32319 -4.05789 0
M  V30 9999 H 953.976 4.64845 -2.97696 0
M  V30 10000 H 954.453 4.18049 -1.34655 0
M  V30 10001 H 955.059 3.25394 -2.73859 0
M  V30 10002 N 953.375 1.23811 0.975125 0
M  V30 10003 C 954.6 1.10109 1.75757 0
M  V30 10004 C 955.025 -0.342922 1.84948 0
M  V30 10005 O 954.383 -1.24814 1.31496 0
M  V30 10006 C 954.431 1.73724 3.15994 0
M  V30 10007 O 953.535 1.00297 4.00018 0
M  V30 10008 H 952.876 0.385627 0.540544 0
M  V30 10009 H 955.406 1.63971 1.22372 0
M  V30 10010 H 955.416 1.79178 3.6655 0
M  V30 10011 H 954.091 2.78794 3.0862 0
M  V30 10012 H 952.668 1.02575 3.58515 0
M  V30 10013 N 954.853 -1.17469 1.05066 0
M  V30 10014 C 956.264 -1.69334 0.786304 0
M  V30 10015 C 956.615 -1.83604 -0.691671 0
M  V30 10016 O 955.74 -1.52269 -1.53763 0
M  V30 10017 C 956.335 -3.07572 1.42074 0
M  V30 10018 C 954.894 -3.56609 1.20446 0
M  V30 10019 C 954.041 -2.329 1.50508 0
M  V30 10020 H 956.992 -1.02003 1.21577 0
M  V30 10021 H 957.013 -3.71352 0.829334 0
M  V30 10022 H 956.525 -2.97154 2.49642 0
M  V30 10023 H 954.626 -3.72306 0.147968 0
M  V30 10024 H 954.739 -4.39446 1.90852 0
M  V30 10025 H 953.103 -2.37305 0.925124 0
M  V30 10026 H 953.886 -2.25093 2.59207 0
M  V30 10027 N 956.331 -0.831506 -1.3388 0
M  V30 10028 C 957.578 -0.423674 -1.98018 0
M  V30 10029 C 957.906 1.01533 -1.65895 0
M  V30 10030 O 957.161 1.72342 -0.927183 0
M  V30 10031 C 957.46 -0.582733 -3.52617 0
M  V30 10032 C 957.126 -1.98874 -4.04673 0
M  V30 10033 C 955.788 -2.37334 -4.186 0
M  V30 10034 C 958.14 -2.90745 -4.3257 0
M  V30 10035 C 955.468 -3.66984 -4.57755 0
M  V30 10036 C 957.82 -4.19868 -4.73174 0
M  V30 10037 C 956.484 -4.58294 -4.85307 0
M  V30 10038 H 955.754 -0.155033 -0.7246 0
M  V30 10039 H 958.401 -1.05711 -1.59679 0
M  V30 10040 H 956.706 0.134052 -3.91571 0
M  V30 10041 H 958.403 -0.247576 -4.00235 0
M  V30 10042 H 954.993 -1.68001 -3.94301 0
M  V30 10043 H 959.177 -2.62272 -4.2134 0
M  V30 10044 H 954.433 -3.9657 -4.65341 0
M  V30 10045 H 958.607 -4.91138 -4.93717 0
M  V30 10046 H 956.234 -5.58805 -5.15404 0
M  V30 10047 N 957.809 1.4625 -0.587256 0
M  V30 10048 C 959.056 2.02363 -0.0745746 0
M  V30 10049 C 959.384 1.4582 1.28712 0
M  V30 10050 O 958.639 0.614922 1.85788 0
M  V30 10051 C 958.938 3.57382 0.036328 0
M  V30 10052 C 958.604 4.32985 -1.25837 0
M  V30 10053 C 957.266 4.53358 -1.61306 0
M  V30 10054 C 959.618 4.76361 -2.11494 0
M  V30 10055 C 956.946 5.14361 -2.82223 0
M  V30 10056 C 959.298 5.38699 -3.31641 0
M  V30 10057 C 957.962 5.57299 -3.67388 0
M  V30 10058 H 957.232 0.740497 -0.0272888 0
M  V30 10059 H 959.879 1.75565 -0.764804 0
M  V30 10060 H 958.184 3.83342 0.809712 0
M  V30 10061 H 959.881 3.9848 0.448838 0
M  V30 10062 H 956.471 4.17427 -0.972251 0
M  V30 10063 H 960.655 4.60372 -1.85394 0
M  V30 10064 H 955.911 5.26952 -3.10051 0
M  V30 10065 H 960.085 5.71267 -3.9828 0
M  V30 10066 H 957.712 6.04338 -4.61173 0
M  V30 10067 N 959.287 0.325282 1.54207 0
M  V30 10068 C 960.512 -0.281418 2.05482 0
M  V30 10069 C 960.937 -1.44869 1.19977 0
M  V30 10070 O 960.295 -1.80088 0.209275 0
M  V30 10071 C 960.343 -0.692029 3.53897 0
M  V30 10072 O 959.447 -1.7942 3.71325 0
M  V30 10073 H 958.788 -0.0504872 0.662078 0
M  V30 10074 H 961.318 0.474191 1.99029 0
M  V30 10075 H 961.328 -0.974219 3.96198 0
M  V30 10076 H 960.003 0.161709 4.15586 0
M  V30 10077 H 958.58 -1.51069 3.40929 0
M  V30 10078 N 960.765 -1.57509 0.0534917 0
M  V30 10079 C 961.993 -1.97098 -0.629298 0
M  V30 10080 C 962.408 -0.931128 -1.64242 0
M  V30 10081 O 961.765 0.0843866 -1.82305 0
M  V30 10082 C 961.816 -3.36767 -1.31415 0
M  V30 10083 O 961.537 -4.36766 -0.341599 0
M  V30 10084 C 963.038 -3.91127 -2.08649 0
M  V30 10085 H 960.258 -0.648611 -0.171886 0
M  V30 10086 H 962.802 -2.04145 0.120479 0
M  V30 10087 H 960.957 -3.30863 -2.01515 0
M  V30 10088 H 961.371 -5.1788 -0.830715 0
M  V30 10089 H 962.845 -4.91129 -2.51985 0
M  V30 10090 H 963.322 -3.26679 -2.9356 0
M  V30 10091 H 963.928 -4.00376 -1.43456 0
M  V30 10092 N 962.243 0.219913 -1.56058 0
M  V30 10093 C 963.468 0.965073 -1.83579 0
M  V30 10094 C 963.893 1.77092 -0.634024 0
M  V30 10095 O 963.251 1.76434 0.417205 0
M  V30 10096 C 963.299 1.85705 -3.09105 0
M  V30 10097 O 962.403 2.95261 -2.87914 0
M  V30 10098 H 961.744 0.273173 -0.605204 0
M  V30 10099 H 964.274 0.23273 -2.03272 0
M  V30 10100 H 964.284 2.26655 -3.39252 0
M  V30 10101 H 962.959 1.26476 -3.96203 0
M  V30 10102 H 961.536 2.58246 -2.69005 0
M  V30 10103 N 963.721 1.49897 0.486681 0
M  V30 10104 C 964.651 1.7054 1.59494 0
M  V30 10105 C 965.632 0.554184 1.60819 0
M  V30 10106 O 966.817 0.791617 1.77333 0
M  V30 10107 C 963.947 1.78517 2.97908 0
M  V30 10108 C 962.901 2.93571 3.11449 0
M  V30 10109 C 962.227 2.86674 4.51356 0
M  V30 10110 C 963.527 4.34308 2.90127 0
M  V30 10111 H 965.221 2.63329 1.42472 0
M  V30 10112 H 962.767 1.2672 0.683969 0
M  V30 10113 H 964.72 1.91544 3.75352 0
M  V30 10114 H 963.444 0.823381 3.16051 0
M  V30 10115 H 962.103 2.80169 2.36433 0
M  V30 10116 H 961.751 1.88373 4.66395 0
M  V30 10117 H 961.451 3.63903 4.61355 0
M  V30 10118 H 962.975 3.01728 5.30841 0
M  V30 10119 H 964.389 4.48317 3.57331 0
M  V30 10120 H 962.786 5.12869 3.11585 0
M  V30 10121 H 963.856 4.47759 1.86119 0
M  V30 10122 N 965.199 -0.738761 1.39212 0
M  V30 10123 C 966.447 -1.49529 1.35962 0
M  V30 10124 C 966.768 -1.94948 -0.0450152 0
M  V30 10125 O 966.038 -1.68717 -0.995552 0
M  V30 10126 H 964.618 -0.554692 0.500326 0
M  V30 10127 H 967.28 -0.877255 1.74041 0
M  V30 10128 H 966.376 -2.37919 2.01993 0
M  V30 10129 N 966.677 -1.24326 -0.968545 0
M  V30 10130 C 967.926 -1.07647 -1.70572 0
M  V30 10131 C 968.239 0.384821 -1.91777 0
M  V30 10132 O 969.445 0.671782 -2.63058 0
M  V30 10133 C 967.901 -1.87799 -3.07017 0
M  V30 10134 C 967.509 -3.38333 -2.93658 0
M  V30 10135 C 969.253 -1.79647 -3.84613 0
M  V30 10136 C 967.16 -4.10831 -4.25407 0
M  V30 10137 H 966.09 -0.399216 -0.639642 0
M  V30 10138 H 968.741 -1.484 -1.07934 0
M  V30 10139 H 967.123 -1.3986 -3.7048 0
M  V30 10140 H 968.297 -3.93845 -2.39213 0
M  V30 10141 H 966.612 -3.47427 -2.29528 0
M  V30 10142 H 969.209 -2.31116 -4.82172 0
M  V30 10143 H 969.552 -0.761553 -4.09275 0
M  V30 10144 H 970.085 -2.25261 -3.27875 0
M  V30 10145 H 966.824 -5.14679 -4.05939 0
M  V30 10146 H 966.344 -3.60105 -4.79671 0
M  V30 10147 H 968.023 -4.17783 -4.94031 0
M  V30 10148 N 968.156 1.1691 -1.05688 0
M  V30 10149 C 969.086 2.23275 -0.683402 0
M  V30 10150 C 970.067 1.6704 0.321206 0
M  V30 10151 O 971.252 1.93191 0.197691 0
M  V30 10152 C 968.382 3.47244 -0.0626006 0
M  V30 10153 C 967.336 4.16333 -0.992513 0
M  V30 10154 C 966.662 5.34182 -0.23533 0
M  V30 10155 C 967.962 4.68002 -2.31886 0
M  V30 10156 H 969.656 2.54771 -1.57264 0
M  V30 10157 H 967.202 1.2246 -0.757606 0
M  V30 10158 H 969.155 4.20874 0.210503 0
M  V30 10159 H 967.879 3.1503 0.861616 0
M  V30 10160 H 966.538 3.44622 -1.25026 0
M  V30 10161 H 966.186 4.9822 0.69181 0
M  V30 10162 H 965.886 5.81346 -0.855002 0
M  V30 10163 H 967.41 6.10592 0.0303717 0
M  V30 10164 H 968.824 5.33244 -2.10531 0
M  V30 10165 H 967.221 5.25764 -2.89296 0
M  V30 10166 H 968.291 3.84541 -2.95391 0
M  V30 10167 N 969.634 0.838594 1.33437 0
M  V30 10168 C 970.88 0.434813 1.98084 0
M  V30 10169 C 971.213 -1.00331 1.66275 0
M  V30 10170 O 970.488 -1.70139 0.942501 0
M  V30 10171 C 970.771 0.655602 3.54082 0
M  V30 10172 C 970.624 2.14097 3.95578 0
M  V30 10173 C 971.943 0.101576 4.39983 0
M  V30 10174 H 969.062 0.159456 0.719544 0
M  V30 10175 H 971.704 1.05406 1.58081 0
M  V30 10176 H 969.854 0.128501 3.88287 0
M  V30 10177 H 971.526 2.73292 3.71631 0
M  V30 10178 H 969.769 2.62558 3.4532 0
M  V30 10179 H 970.44 2.24621 5.04231 0
M  V30 10180 H 972.916 0.552122 4.12421 0
M  V30 10181 H 971.792 0.28575 5.48156 0
M  V30 10182 H 972.053 -0.994616 4.30767 0
M  V30 10183 N 971.112 -1.45937 0.595003 0
M  V30 10184 C 972.528 -1.57507 0.257641 0
M  V30 10185 C 972.728 -1.58829 -1.23998 0
M  V30 10186 O 971.784 -1.51183 -2.02237 0
M  V30 10187 C 973.097 -2.86354 0.917708 0
M  V30 10188 C 974.645 -3.00007 0.892446 0
M  V30 10189 C 975.12 -4.31607 1.53229 0
M  V30 10190 N 976.611 -4.38336 1.49719 0
M  V30 10191 C 977.346 -5.38805 1.96154 0
M  V30 10192 N 976.842 -6.45882 2.50617 0
M  V30 10193 N 978.635 -5.30084 1.86997 0
M  V30 10194 H 970.786 -1.43322 1.56756 0
M  V30 10195 H 973.049 -0.684436 0.655936 0
M  V30 10196 H 972.755 -2.91233 1.97171 0
M  V30 10197 H 972.629 -3.74703 0.433344 0
M  V30 10198 H 975.016 -2.94703 -0.152975 0
M  V30 10199 H 975.097 -2.13103 1.41495 0
M  V30 10200 H 974.741 -4.3767 2.57697 0
M  V30 10201 H 974.671 -5.17308 0.984903 0
M  V30 10202 H 977.162 -3.6156 1.09921 0
M  V30 10203 H 977.475 -7.18774 2.83874 0
M  V30 10204 H 975.82 -6.46668 2.54649 0
M  V30 10205 H 979.011 -4.45337 1.44196 0
M  V30 10206 H 979.184 -6.08237 2.23499 0
M  V30 10207 N 972.59 -0.333456 -1.54032 0
M  V30 10208 C 973.818 0.267813 -2.05159 0
M  V30 10209 C 974.233 1.4501 -1.20903 0
M  V30 10210 O 973.59 1.80888 -0.241994 0
M  V30 10211 C 973.641 0.69268 -3.54802 0
M  V30 10212 O 973.362 -0.442579 -4.35859 0
M  V30 10213 C 974.863 1.35572 -4.2206 0
M  V30 10214 H 972.083 0.0534924 -0.668864 0
M  V30 10215 H 974.627 -0.482515 -1.98726 0
M  V30 10216 H 972.782 1.39297 -3.6149 0
M  V30 10217 H 973.196 -0.105915 -5.24393 0
M  V30 10218 H 974.67 1.60385 -5.28186 0
M  V30 10219 H 975.147 2.30614 -3.73783 0
M  V30 10220 H 975.753 0.697748 -4.19537 0
M  V30 10221 N 974.068 1.57479 -0.061844 0
M  V30 10222 C 975.484 1.56855 0.294753 0
M  V30 10223 C 975.684 1.07042 1.70717 0
M  V30 10224 O 974.74 0.731817 2.41662 0
M  V30 10225 C 976.053 3.00486 0.113484 0
M  V30 10226 C 977.601 3.1246 0.183778 0
M  V30 10227 C 978.076 4.5799 0.0309092 0
M  V30 10228 N 979.567 4.63119 0.0868393 0
M  V30 10229 C 980.302 5.734 -0.00717446 0
M  V30 10230 N 979.798 6.92628 -0.154144 0
M  V30 10231 N 981.591 5.62078 0.0491763 0
M  V30 10232 H 973.742 1.88176 -0.985058 0
M  V30 10233 H 976.005 0.867051 -0.383309 0
M  V30 10234 H 975.711 3.41004 -0.86075 0
M  V30 10235 H 975.585 3.67029 0.870023 0
M  V30 10236 H 977.972 2.71834 1.14849 0
M  V30 10237 H 978.053 2.48574 -0.603697 0
M  V30 10238 H 977.697 4.99303 -0.930526 0
M  V30 10239 H 977.627 5.19895 0.837664 0
M  V30 10240 H 980.118 3.77374 0.199245 0
M  V30 10241 H 980.431 7.72492 -0.218296 0
M  V30 10242 H 978.776 6.94742 -0.189372 0
M  V30 10243 H 981.967 4.67817 0.162626 0
M  V30 10244 H 982.14 6.47994 -0.0275478 0
M  V30 10245 N 975.546 -0.211634 1.56173 0
M  V30 10246 C 976.823 -0.959467 1.70451 0
M  V30 10247 C 977.203 -2.02036 0.611942 0
M  V30 10248 O 976.551 -2.25325 -0.37959 0
M  V30 10249 C 976.761 -1.56092 3.12148 0
M  V30 10250 C 978.109 -2.04939 3.71867 0
M  V30 10251 O 979.133 -1.65966 3.15172 0
M  V30 10252 O 977.992 -2.766 4.71333 0
M  V30 10253 H 975.086 -0.448844 0.6946 0
M  V30 10254 H 977.632 -0.202633 1.68486 0
M  V30 10255 H 976.404 -0.79538 3.83131 0
M  V30 10256 H 976.027 -2.38303 3.18273 0
M  V30 10257 N 977.024 -1.50153 -0.478725 0
M  V30 10258 C 978.252 -1.64505 -1.25482 0
M  V30 10259 C 978.667 -0.325295 -1.85977 0
M  V30 10260 O 978.024 0.691885 -1.68876 0
M  V30 10261 C 978.075 -2.73052 -2.36906 0
M  V30 10262 O 977.796 -3.99911 -1.78894 0
M  V30 10263 C 979.297 -2.98309 -3.27912 0
M  V30 10264 H 976.517 -0.55318 -0.379781 0
M  V30 10265 H 979.061 -1.96329 -0.57229 0
M  V30 10266 H 977.216 -2.43944 -3.00949 0
M  V30 10267 H 977.63 -4.5988 -2.52211 0
M  V30 10268 H 979.104 -3.77942 -4.02323 0
M  V30 10269 H 979.581 -2.09082 -3.8624 0
M  V30 10270 H 980.187 -3.2892 -2.69614 0
M  V30 10271 N 978.502 0.731368 -1.39602 0
M  V30 10272 C 979.465 1.8271 -1.38383 0
M  V30 10273 C 980.465 1.58338 -0.280309 0
M  V30 10274 O 981.655 1.65671 -0.538402 0
M  V30 10275 C 978.787 3.20556 -1.16002 0
M  V30 10276 H 979.98 1.85193 -2.35889 0
M  V30 10277 H 977.533 0.935396 -1.2522 0
M  V30 10278 H 978.268 3.23732 -0.191927 0
M  V30 10279 H 978.053 3.39643 -1.9592 0
M  V30 10280 H 979.543 4.00612 -1.17899 0
M  V30 10281 N 979.98 1.24838 0.961938 0
M  V30 10282 C 980.943 1.04674 2.03902 0
M  V30 10283 C 981.943 0.00204674 1.608 0
M  V30 10284 O 983.133 0.243555 1.72489 0
M  V30 10285 C 980.265 0.587736 3.35795 0
M  V30 10286 H 981.458 2.00278 2.23223 0
M  V30 10287 H 979.011 1.07142 1.138 0
M  V30 10288 H 979.746 -0.371244 3.22168 0
M  V30 10289 H 979.531 1.34182 3.68426 0
M  V30 10290 H 981.021 0.467867 4.14971 0
M  V30 10291 N 981.458 -1.16348 1.06306 0
M  V30 10292 C 982.869 -1.68491 0.80422 0
M  V30 10293 C 983.22 -1.84327 -0.672159 0
M  V30 10294 O 982.345 -1.53892 -1.52139 0
M  V30 10295 C 982.94 -3.06048 1.45328 0
M  V30 10296 C 981.499 -3.55311 1.24221 0
M  V30 10297 C 980.646 -2.31291 1.5297 0
M  V30 10298 H 983.597 -1.00708 1.22652 0
M  V30 10299 H 983.618 -3.70451 0.868674 0
M  V30 10300 H 983.13 -2.9449 2.52779 0
M  V30 10301 H 981.231 -3.72128 0.187447 0
M  V30 10302 H 981.344 -4.37397 1.95502 0
M  V30 10303 H 979.708 -2.3631 0.950241 0
M  V30 10304 H 980.491 -2.22331 2.6158 0
M  V30 10305 N 982.937 -0.845659 -1.3299 0
M  V30 10306 C 984.186 -0.440928 -1.96822 0
M  V30 10307 C 984.499 1.00668 -1.67706 0
M  V30 10308 O 985.705 1.51641 -2.25205 0
M  V30 10309 C 984.161 -0.73752 -3.52262 0
M  V30 10310 C 983.769 -2.20026 -3.90247 0
M  V30 10311 C 985.513 -0.400072 -4.22611 0
M  V30 10312 C 983.42 -2.44054 -5.38694 0
M  V30 10313 H 982.35 -0.161148 -0.736578 0
M  V30 10314 H 985.001 -1.03519 -1.51513 0
M  V30 10315 H 983.383 -0.0728025 -3.95933 0
M  V30 10316 H 984.557 -2.90602 -3.57613 0
M  V30 10317 H 982.872 -2.50135 -3.32899 0
M  V30 10318 H 985.469 -0.557136 -5.3179 0
M  V30 10319 H 985.812 0.657547 -4.11074 0
M  V30 10320 H 986.345 -1.0203 -3.84493 0
M  V30 10321 H 983.084 -3.48407 -5.55241 0
M  V30 10322 H 982.604 -1.78047 -5.72765 0
M  V30 10323 H 984.283 -2.27549 -6.05665 0
M  V30 10324 N 984.415 1.45619 -0.602734 0
M  V30 10325 C 985.663 2.01873 -0.095844 0
M  V30 10326 C 985.984 1.47427 1.27633 0
M  V30 10327 O 985.254 0.666652 1.84208 0
M  V30 10328 H 983.834 0.746295 -0.0324408 0
M  V30 10329 H 986.496 1.78478 -0.783037 0
M  V30 10330 H 985.592 3.12072 -0.0419507 0
M  V30 10331 N 985.893 0.34162 1.53853 0
M  V30 10332 C 986.856 -0.503541 2.236 0
M  V30 10333 C 987.856 -1.02912 1.23554 0
M  V30 10334 O 989.046 -0.918678 1.48007 0
M  V30 10335 C 986.178 -1.70126 2.95415 0
M  V30 10336 H 987.371 0.106437 2.99711 0
M  V30 10337 H 984.924 0.0929408 1.56023 0
M  V30 10338 H 985.659 -2.34999 2.23486 0
M  V30 10339 H 985.444 -1.33161 3.68796 0
M  V30 10340 H 986.934 -2.30077 3.48503 0
M  V30 10341 N 987.371 -1.57444 0.0701946 0
M  V30 10342 C 988.618 -1.93429 -0.59929 0
M  V30 10343 C 988.946 -0.9501 -1.69715 0
M  V30 10344 O 988.201 0.0345377 -1.9567 0
M  V30 10345 C 988.5 -3.36044 -1.21694 0
M  V30 10346 C 988.166 -4.50232 -0.245374 0
M  V30 10347 C 986.828 -4.81195 0.0219161 0
M  V30 10348 C 989.18 -5.1951 0.419396 0
M  V30 10349 C 986.508 -5.78775 0.96109 0
M  V30 10350 C 988.86 -6.18095 1.34688 0
M  V30 10351 C 987.524 -6.47477 1.62265 0
M  V30 10352 H 986.794 -0.707807 -0.219296 0
M  V30 10353 H 989.441 -1.90982 0.14073 0
M  V30 10354 H 987.746 -3.34948 -2.03265 0
M  V30 10355 H 989.443 -3.61176 -1.74221 0
M  V30 10356 H 986.033 -4.26082 -0.463887 0
M  V30 10357 H 990.217 -4.95785 0.226009 0
M  V30 10358 H 985.473 -5.99865 1.18202 0
M  V30 10359 H 989.647 -6.7088 1.86795 0
M  V30 10360 H 987.274 -7.229 2.352 0
M  V30 10361 N 988.849 0.203349 -1.56283 0
M  V30 10362 C 989.782 1.27982 -1.88934 0
M  V30 10363 C 990.76 1.44345 -0.748555 0
M  V30 10364 O 991.944 1.59867 -0.998741 0
M  V30 10365 C 989.071 2.64762 -2.11231 0
M  V30 10366 C 988.117 2.65315 -3.33932 0
M  V30 10367 S 988.95 2.17568 -4.8931 0
M  V30 10368 C 990.106 3.56189 -5.14665 0
M  V30 10369 H 990.339 1.00095 -2.79943 0
M  V30 10370 H 987.872 0.406458 -1.48954 0
M  V30 10371 H 989.83 3.43501 -2.2476 0
M  V30 10372 H 988.491 2.89864 -1.20986 0
M  V30 10373 H 987.684 3.6587 -3.46634 0
M  V30 10374 H 987.286 1.94652 -3.19353 0
M  V30 10375 H 989.578 4.52001 -5.0468 0
M  V30 10376 H 990.521 3.48387 -6.16467 0
M  V30 10377 H 990.929 3.50719 -4.42331 0
M  V30 10378 N 990.327 1.50405 0.470755 0
M  V30 10379 C 991.573 1.62618 1.22175 0
M  V30 10380 C 991.928 0.322593 1.89676 0
M  V30 10381 O 991.221 -0.679504 1.79146 0
M  V30 10382 C 991.415 2.74426 2.28965 0
M  V30 10383 C 991.244 4.15532 1.71941 0
M  V30 10384 C 990.014 4.81928 1.51899 0
M  V30 10385 C 992.212 4.99762 1.21417 0
M  V30 10386 N 990.194 6.07249 0.901208 0
M  V30 10387 C 991.565 6.15809 0.719638 0
M  V30 10388 C 993.62 4.85535 1.10275 0
M  V30 10389 C 992.323 7.19192 0.124669 0
M  V30 10390 C 994.349 5.89094 0.521721 0
M  V30 10391 C 993.711 7.0439 0.0375645 0
M  V30 10392 H 989.81 0.649215 0.43594 0
M  V30 10393 H 992.394 1.87525 0.523702 0
M  V30 10394 H 990.565 2.51242 2.96196 0
M  V30 10395 H 992.297 2.75996 2.95987 0
M  V30 10396 H 989.052 4.39228 1.77133 0
M  V30 10397 H 989.476 6.7424 0.610722 0
M  V30 10398 H 994.118 3.96681 1.463 0
M  V30 10399 H 991.836 8.0772 -0.247782 0
M  V30 10400 H 995.422 5.8015 0.437872 0
M  V30 10401 H 994.302 7.83154 -0.404993 0
M  V30 10402 N 991.805 -0.723954 1.39988 0
M  V30 10403 C 993.216 -1.30273 1.33738 0
M  V30 10404 C 993.567 -1.96199 0.00690581 0
M  V30 10405 O 992.692 -1.97016 -0.895179 0
M  V30 10406 C 993.287 -2.36889 2.42217 0
M  V30 10407 C 991.846 -2.90412 2.39453 0
M  V30 10408 C 990.993 -1.64103 2.2353 0
M  V30 10409 H 993.944 -0.520672 1.49916 0
M  V30 10410 H 993.965 -3.17538 2.09642 0
M  V30 10411 H 993.477 -1.88878 3.39038 0
M  V30 10412 H 991.578 -3.42674 1.46304 0
M  V30 10413 H 991.691 -3.42775 3.34727 0
M  V30 10414 H 990.055 -1.88855 1.70897 0
M  V30 10415 H 990.838 -1.18128 3.22336 0
M  V30 10416 N 993.283 -1.25346 -0.955304 0
M  V30 10417 C 994.213 -1.08152 -2.06943 0
M  V30 10418 C 995.194 0.00922598 -1.70097 0
M  V30 10419 O 996.379 -0.160181 -1.93538 0
M  V30 10420 C 993.509 -0.698745 -3.40198 0
M  V30 10421 C 992.463 -1.73965 -3.9105 0
M  V30 10422 C 991.789 -1.21158 -5.20792 0
M  V30 10423 C 993.089 -3.13829 -4.17503 0
M  V30 10424 H 994.783 -2.01345 -2.21586 0
M  V30 10425 H 992.329 -0.969459 -1.06478 0
M  V30 10426 H 994.282 -0.565394 -4.1759 0
M  V30 10427 H 993.006 0.268892 -3.25491 0
M  V30 10428 H 991.665 -1.86143 -3.15827 0
M  V30 10429 H 991.313 -0.234193 -5.02455 0
M  V30 10430 H 991.013 -1.90728 -5.55785 0
M  V30 10431 H 992.537 -1.09061 -6.00781 0
M  V30 10432 H 993.951 -3.04809 -4.85556 0
M  V30 10433 H 992.348 -3.80863 -4.63749 0
M  V30 10434 H 993.418 -3.6094 -3.23806 0
M  V30 10435 N 994.761 1.15782 -1.06922 0
M  V30 10436 C 995.711 2.18373 -0.655537 0
M  V30 10437 C 996.695 1.57745 0.317084 0
M  V30 10438 O 997.887 1.76511 0.131509 0
M  V30 10439 C 995.016 3.43263 -0.0502314 0
M  V30 10440 C 994.102 4.10954 -1.04773 0
M  V30 10441 N 994.493 4.542 -2.22567 0
M  V30 10442 C 992.791 4.3723 -0.880087 0
M  V30 10443 C 993.492 5.06641 -2.85815 0
M  V30 10444 N 992.468 4.99917 -2.13505 0
M  V30 10445 H 996.27 2.49533 -1.55276 0
M  V30 10446 H 993.784 1.32303 -0.941793 0
M  V30 10447 H 995.781 4.16063 0.264003 0
M  V30 10448 H 994.441 3.13588 0.842167 0
M  V30 10449 H 995.452 4.47727 -2.60309 0
M  V30 10450 H 992.129 4.17481 -0.0402148 0
M  V30 10451 H 993.519 5.50092 -3.85808 0
M  V30 10452 N 996.239 0.8527 1.3254 0
M  V30 10453 C 997.485 0.46507 1.98012 0
M  V30 10454 C 997.84 -0.968179 1.66265 0
M  V30 10455 O 997.133 -1.66985 0.9395 0
M  V30 10456 C 997.327 0.638757 3.51646 0
M  V30 10457 C 997.156 2.08734 3.98322 0
M  V30 10458 C 995.926 2.72544 4.25497 0
M  V30 10459 C 998.124 3.0577 4.13533 0
M  V30 10460 N 996.106 4.08333 4.58408 0
M  V30 10461 C 997.477 4.26542 4.49958 0
M  V30 10462 C 999.532 3.01991 3.95861 0
M  V30 10463 C 998.235 5.4403 4.70557 0
M  V30 10464 C 1000.26 4.18722 4.17643 0
M  V30 10465 C 999.623 5.38252 4.54383 0
M  V30 10466 H 995.722 0.218881 0.750743 0
M  V30 10467 H 998.306 1.10368 1.60397 0
M  V30 10468 H 996.477 0.0298629 3.88389 0
M  V30 10469 H 998.209 0.221215 4.04095 0
M  V30 10470 H 994.964 2.23594 4.17496 0
M  V30 10471 H 995.388 4.78372 4.79051 0
M  V30 10472 H 1000.03 2.107 3.66559 0
M  V30 10473 H 997.748 6.35854 4.98714 0
M  V30 10474 H 1001.33 4.17232 4.05474 0
M  V30 10475 H 1000.21 6.27075 4.709 0
M  V30 10476 N 997.718 -1.45297 0.610449 0
M  V30 10477 C 998.946 -2.0659 0.113211 0
M  V30 10478 C 999.361 -1.4546 -1.20361 0
M  V30 10479 O 998.718 -0.569823 -1.73376 0
M  V30 10480 C 998.769 -3.61488 -0.0298411 0
M  V30 10481 O 998.49 -4.20336 1.23488 0
M  V30 10482 C 999.991 -4.39772 -0.558202 0
M  V30 10483 H 997.211 -0.667322 0.0701555 0
M  V30 10484 H 999.755 -1.86497 0.838993 0
M  V30 10485 H 997.91 -3.80913 -0.705963 0
M  V30 10486 H 998.324 -5.13545 1.0664 0
M  V30 10487 H 999.798 -5.48648 -0.607375 0
M  V30 10488 H 1000.27 -4.09755 -1.58107 0
M  V30 10489 H 1000.88 -4.25217 0.0839704 0
M  V30 10490 N 999.196 -0.349774 -1.5367 0
M  V30 10491 C 1000.13 0.547309 -2.2154 0
M  V30 10492 C 1001.11 1.09543 -1.20163 0
M  V30 10493 O 1002.29 1.15453 -1.49006 0
M  V30 10494 C 999.418 1.75356 -2.89772 0
M  V30 10495 C 998.464 1.33433 -4.0509 0
M  V30 10496 S 999.297 0.348891 -5.34362 0
M  V30 10497 C 1000.45 1.56183 -6.061 0
M  V30 10498 H 1000.69 -0.0291392 -2.97286 0
M  V30 10499 H 998.219 -0.133853 -1.53819 0
M  V30 10500 H 1000.18 2.44555 -3.29701 0
M  V30 10501 H 998.838 2.30123 -2.1378 0
M  V30 10502 H 998.031 2.23388 -4.5179 0
M  V30 10503 H 997.633 0.721746 -3.6697 0
M  V30 10504 H 999.925 2.49535 -6.29872 0
M  V30 10505 H 1000.87 1.13651 -6.9892 0
M  V30 10506 H 1001.28 1.76071 -5.36339 0
M  V30 10507 N 1000.67 1.57404 -0.0785433 0
M  V30 10508 C 1001.92 1.9484 0.583853 0
M  V30 10509 C 1002.27 0.958758 1.6681 0
M  V30 10510 O 1001.57 -0.0179065 1.91592 0
M  V30 10511 C 1001.76 3.36684 1.1991 0
M  V30 10512 C 1001.59 4.49356 0.175978 0
M  V30 10513 C 1000.36 5.04721 -0.241733 0
M  V30 10514 C 1002.56 5.10911 -0.589415 0
M  V30 10515 N 1000.54 6.00938 -1.25485 0
M  V30 10516 C 1001.91 6.0269 -1.45483 0
M  V30 10517 C 1003.97 4.93708 -0.644746 0
M  V30 10518 C 1002.67 6.79111 -2.37066 0
M  V30 10519 C 1004.7 5.70778 -1.54812 0
M  V30 10520 C 1004.06 6.6221 -2.40119 0
M  V30 10521 H 1000.16 0.75993 0.184472 0
M  V30 10522 H 1002.74 1.94064 -0.157259 0
M  V30 10523 H 1000.91 3.38186 1.91011 0
M  V30 10524 H 1002.64 3.6134 1.82251 0
M  V30 10525 H 999.399 4.73385 0.142732 0
M  V30 10526 H 999.823 6.53746 -1.75912 0
M  V30 10527 H 1004.46 4.228 0.000601434 0
M  V30 10528 H 1002.18 7.49292 -3.02634 0
M  V30 10529 H 1005.77 5.59485 -1.59586 0
M  V30 10530 H 1004.65 7.20804 -3.08887 0
M  V30 10531 N 1002.15 -0.195058 1.56388 0
M  V30 10532 C 1003.08 -1.24444 1.97575 0
M  V30 10533 C 1004.06 -1.47471 0.847717 0
M  V30 10534 O 1005.25 -1.59208 1.11205 0
M  V30 10535 C 1002.38 -2.58866 2.31529 0
M  V30 10536 C 1001.33 -2.50451 3.47071 0
M  V30 10537 C 1000.66 -3.89146 3.667 0
M  V30 10538 C 1001.96 -2.02953 4.81256 0
M  V30 10539 H 1003.65 -0.902178 2.85484 0
M  V30 10540 H 1001.2 -0.43254 1.3735 0
M  V30 10541 H 1003.15 -3.3246 2.58936 0
M  V30 10542 H 1001.87 -2.94833 1.40502 0
M  V30 10543 H 1000.53 -1.79313 3.19754 0
M  V30 10544 H 1000.18 -4.22466 2.73004 0
M  V30 10545 H 999.882 -3.84391 4.44429 0
M  V30 10546 H 1001.41 -4.64363 3.96484 0
M  V30 10547 H 1002.82 -2.66306 5.07695 0
M  V30 10548 H 1001.22 -2.092 5.62455 0
M  V30 10549 H 1002.29 -0.982757 4.74837 0
M  V30 10550 N 1003.63 -1.50653 -0.462772 0
M  V30 10551 C 1004.88 -1.61737 -1.21184 0
M  V30 10552 C 1005.2 -0.32369 -1.92295 0
M  V30 10553 O 1004.47 0.659269 -1.84473 0
M  V30 10554 H 1003.05 -0.596015 -0.450306 0
M  V30 10555 H 1005.71 -1.87469 -0.533051 0
M  V30 10556 H 1004.81 -2.43262 -1.95525 0
M  V30 10557 N 1005.11 0.71652 -1.4037 0
M  V30 10558 C 1006.36 1.47193 -1.37903 0
M  V30 10559 C 1006.67 1.95593 0.0159939 0
M  V30 10560 O 1007.88 2.71009 0.163282 0
M  V30 10561 C 1006.33 2.6606 -2.42363 0
M  V30 10562 C 1005.94 2.24533 -3.87671 0
M  V30 10563 C 1007.68 3.438 -2.49001 0
M  V30 10564 C 1005.59 3.40234 -4.8373 0
M  V30 10565 H 1004.52 0.552811 -0.512753 0
M  V30 10566 H 1007.17 0.779894 -1.66102 0
M  V30 10567 H 1005.55 3.37429 -2.07262 0
M  V30 10568 H 1006.73 1.6059 -4.31911 0
M  V30 10569 H 1005.04 1.59839 -3.845 0
M  V30 10570 H 1007.64 4.29893 -3.17956 0
M  V30 10571 H 1007.98 3.8755 -1.52023 0
M  V30 10572 H 1008.52 2.79474 -2.83088 0
M  V30 10573 H 1005.26 3.01517 -5.82037 0
M  V30 10574 H 1004.78 4.03095 -4.44156 0
M  V30 10575 H 1006.45 4.06312 -5.03507 0
M  V30 10576 N 1006.59 1.25851 0.948643 0
M  V30 10577 C 1007.83 1.10954 1.69397 0
M  V30 10578 C 1008.16 -0.348443 1.91353 0
M  V30 10579 O 1007.42 -1.27285 1.48651 0
M  V30 10580 C 1007.72 1.81565 3.07846 0
M  V30 10581 C 1007.38 3.31477 3.0567 0
M  V30 10582 C 1006.04 3.72371 3.04784 0
M  V30 10583 C 1008.4 4.27225 2.98543 0
M  V30 10584 C 1005.72 5.07416 2.94527 0
M  V30 10585 C 1008.08 5.62301 2.89828 0
M  V30 10586 C 1006.74 6.02516 2.87281 0
M  V30 10587 H 1006.01 0.406011 0.619868 0
M  V30 10588 H 1008.66 1.562 1.10787 0
M  V30 10589 H 1006.96 1.28767 3.70035 0
M  V30 10590 H 1008.66 1.67486 3.64348 0
M  V30 10591 H 1005.25 2.98941 3.07135 0
M  V30 10592 H 1009.43 3.96618 2.98342 0
M  V30 10593 H 1004.69 5.37746 2.90928 0
M  V30 10594 H 1008.86 6.36182 2.83276 0
M  V30 10595 H 1006.49 7.07116 2.79089 0
M  V30 10596 N 1008.06 -1.15214 1.07534 0
M  V30 10597 C 1009.31 -1.86319 0.800814 0
M  V30 10598 C 1009.64 -1.82221 -0.671494 0
M  V30 10599 O 1008.92 -1.24664 -1.49295 0
M  V30 10600 C 1009.2 -3.35347 1.31203 0
M  V30 10601 C 1009.05 -3.48067 2.84902 0
M  V30 10602 C 1010.37 -4.3016 0.930064 0
M  V30 10603 H 1007.49 -0.676523 0.292379 0
M  V30 10604 H 1010.13 -1.35349 1.33344 0
M  V30 10605 H 1008.28 -3.78886 0.858949 0
M  V30 10606 H 1009.96 -3.13379 3.38514 0
M  V30 10607 H 1008.2 -2.89566 3.23008 0
M  V30 10608 H 1008.87 -4.52782 3.15741 0
M  V30 10609 H 1011.35 -3.94591 1.3205 0
M  V30 10610 H 1010.22 -5.32914 1.31507 0
M  V30 10611 H 1010.48 -4.41796 -0.163824 0
M  V30 10612 N 1009.54 -0.859717 -1.32086 0
M  V30 10613 C 1010.51 -0.313005 -2.27053 0
M  V30 10614 C 1011.51 0.530191 -1.51808 0
M  V30 10615 O 1012.7 0.340972 -1.7083 0
M  V30 10616 C 1009.83 0.5566 -3.36325 0
M  V30 10617 H 1011.02 -1.15125 -2.76923 0
M  V30 10618 H 1008.57 -0.634463 -1.42843 0
M  V30 10619 H 1009.31 1.41645 -2.91731 0
M  V30 10620 H 1009.09 -0.0470197 -3.92072 0
M  V30 10621 H 1010.58 0.931725 -4.07073 0
M  V30 10622 N 1011.02 1.44971 -0.618145 0
M  V30 10623 C 1011.95 2.33357 0.0815955 0
M  V30 10624 C 1012.93 1.47451 0.848072 0
M  V30 10625 O 1014.12 1.762 0.816532 0
M  V30 10626 C 1011.25 3.30324 1.07253 0
M  V30 10627 C 1010.2 4.25948 0.418563 0
M  V30 10628 C 1009.53 5.12685 1.51849 0
M  V30 10629 C 1010.83 5.18024 -0.66697 0
M  V30 10630 H 1012.52 2.92115 -0.656442 0
M  V30 10631 H 1010.07 1.40465 -0.317129 0
M  V30 10632 H 1012.02 3.91033 1.57069 0
M  V30 10633 H 1010.74 2.69748 1.8413 0
M  V30 10634 H 1009.4 3.66553 -0.0588308 0
M  V30 10635 H 1009.05 4.4847 2.2778 0
M  V30 10636 H 1008.75 5.7747 1.08637 0
M  V30 10637 H 1010.27 5.76264 2.01871 0
M  V30 10638 H 1011.69 5.72744 -0.252448 0
M  V30 10639 H 1010.09 5.91343 -1.02146 0
M  V30 10640 H 1011.16 4.59817 -1.53936 0
M  V30 10641 N 1012.5 0.357919 1.53482 0
M  V30 10642 C 1013.45 -0.50845 2.22258 0
M  V30 10643 C 1014.43 -1.05476 1.21506 0
M  V30 10644 O 1015.62 -0.986075 1.46988 0
M  V30 10645 C 1012.75 -1.65157 3.00962 0
M  V30 10646 C 1011.84 -1.11851 4.09084 0
M  V30 10647 N 1012.23 -0.307818 5.04862 0
M  V30 10648 C 1010.53 -1.39405 4.23653 0
M  V30 10649 C 1011.23 -0.016842 5.81698 0
M  V30 10650 N 1010.21 -0.612396 5.40139 0
M  V30 10651 H 1014.01 0.117836 2.93664 0
M  V30 10652 H 1011.52 0.16553 1.61554 0
M  V30 10653 H 1013.52 -2.28435 3.48745 0
M  V30 10654 H 1012.18 -2.281 2.31086 0
M  V30 10655 H 1013.19 0.0523313 5.17874 0
M  V30 10656 H 1009.87 -2.02682 3.65002 0
M  V30 10657 H 1011.26 0.638046 6.68864 0
M  V30 10658 N 1013.98 -1.5736 0.0868897 0
M  V30 10659 C 1015.23 -1.93229 -0.578387 0
M  V30 10660 C 1015.54 -0.970127 -1.69847 0
M  V30 10661 O 1016.74 -1.22222 -2.42434 0
M  V30 10662 C 1015.2 -3.43307 -1.0802 0
M  V30 10663 C 1014.81 -4.47999 0.00968135 0
M  V30 10664 C 1016.55 -3.88151 -1.71868 0
M  V30 10665 C 1014.46 -5.89223 -0.507029 0
M  V30 10666 H 1013.39 -0.721245 -0.219823 0
M  V30 10667 H 1016.04 -1.82787 0.161566 0
M  V30 10668 H 1014.42 -3.48873 -1.87359 0
M  V30 10669 H 1015.6 -4.54067 0.784865 0
M  V30 10670 H 1013.91 -4.12714 0.552845 0
M  V30 10671 H 1016.51 -4.91056 -2.11585 0
M  V30 10672 H 1016.85 -3.26347 -2.58464 0
M  V30 10673 H 1017.38 -3.85252 -0.991259 0
M  V30 10674 H 1014.12 -6.54708 0.322121 0
M  V30 10675 H 1013.64 -5.86643 -1.2494 0
M  V30 10676 H 1015.32 -6.39556 -0.978628 0
M  V30 10677 N 1015.45 0.186762 -1.56489 0
M  V30 10678 C 1016.68 0.921832 -1.85229 0
M  V30 10679 C 1017.1 1.76496 -0.670416 0
M  V30 10680 O 1016.45 1.78899 0.360758 0
M  V30 10681 C 1016.51 1.81121 -3.12854 0
M  V30 10682 O 1016.23 1.00211 -4.26485 0
M  V30 10683 C 1017.73 2.65725 -3.54831 0
M  V30 10684 H 1014.95 0.268563 -0.61491 0
M  V30 10685 H 1017.49 0.191505 -2.03601 0
M  V30 10686 H 1015.65 2.49506 -2.96354 0
M  V30 10687 H 1016.06 1.60893 -4.99213 0
M  V30 10688 H 1017.53 3.23771 -4.47075 0
M  V30 10689 H 1018.01 3.39843 -2.78215 0
M  V30 10690 H 1018.62 2.02698 -3.7389 0
M  V30 10691 N 1016.93 1.50896 0.454776 0
M  V30 10692 C 1017.9 1.70377 1.53312 0
M  V30 10693 C 1018.9 0.57408 1.50203 0
M  V30 10694 O 1020.09 0.841374 1.52534 0
M  V30 10695 C 1017.22 1.74411 2.92905 0
M  V30 10696 H 1018.41 2.66599 1.37349 0
M  V30 10697 H 1015.96 1.40622 0.68228 0
M  V30 10698 H 1016.7 0.799408 3.14293 0
M  V30 10699 H 1016.48 2.56496 2.96568 0
M  V30 10700 H 1017.97 1.91382 3.71164 0
M  V30 10701 N 1018.41 -0.709066 1.40748 0
M  V30 10702 C 1019.66 -1.47119 1.39585 0
M  V30 10703 C 1019.99 -1.942 0.000245323 0
M  V30 10704 O 1019.26 -1.68609 -0.969593 0
M  V30 10705 C 1019.55 -2.69266 2.39099 0
M  V30 10706 C 1019.4 -2.28037 3.8771 0
M  V30 10707 C 1020.72 -3.71438 2.36055 0
M  V30 10708 H 1017.84 -0.533632 0.508336 0
M  V30 10709 H 1020.48 -0.808718 1.7193 0
M  V30 10710 H 1018.63 -3.25788 2.11647 0
M  V30 10711 H 1020.3 -1.76946 4.26014 0
M  V30 10712 H 1018.55 -1.59966 4.03229 0
M  V30 10713 H 1019.22 -3.15621 4.52866 0
M  V30 10714 H 1021.69 -3.24559 2.60385 0
M  V30 10715 H 1020.57 -4.54532 3.07721 0
M  V30 10716 H 1020.83 -4.20193 1.37443 0
M  V30 10717 N 1019.89 -1.26353 -0.941956 0
M  V30 10718 C 1021.14 -1.11851 -1.68806 0
M  V30 10719 C 1021.46 0.33829 -1.91535 0
M  V30 10720 O 1020.72 1.26495 -1.49324 0
M  V30 10721 C 1021.02 -1.83195 -3.06879 0
M  V30 10722 C 1020.68 -3.33093 -3.03908 0
M  V30 10723 C 1019.35 -3.73982 -3.02805 0
M  V30 10724 C 1021.7 -4.28803 -2.96273 0
M  V30 10725 C 1019.03 -5.08971 -2.91832 0
M  V30 10726 C 1021.38 -5.6383 -2.86842 0
M  V30 10727 C 1020.04 -6.04032 -2.84081 0
M  V30 10728 H 1019.31 -0.409293 -0.617706 0
M  V30 10729 H 1021.96 -1.56785 -1.09957 0
M  V30 10730 H 1020.26 -1.30728 -3.69347 0
M  V30 10731 H 1021.96 -1.69416 -3.63455 0
M  V30 10732 H 1018.55 -3.00566 -3.05546 0
M  V30 10733 H 1022.74 -3.98195 -2.96234 0
M  V30 10734 H 1017.99 -5.39282 -2.88072 0
M  V30 10735 H 1022.17 -6.37676 -2.79898 0
M  V30 10736 H 1019.79 -7.08586 -2.75335 0
M  V30 10737 N 1021.37 1.14642 -1.08144 0
M  V30 10738 C 1022.3 2.21775 -0.730609 0
M  V30 10739 C 1023.28 1.67683 0.285702 0
M  V30 10740 O 1024.46 1.93567 0.156667 0
M  V30 10741 C 1021.59 3.47033 -0.136242 0
M  V30 10742 C 1020.55 4.14134 -1.0806 0
M  V30 10743 C 1019.87 5.33563 -0.348585 0
M  V30 10744 C 1021.17 4.62978 -2.41761 0
M  V30 10745 H 1022.87 2.51378 -1.62633 0
M  V30 10746 H 1020.41 1.20825 -0.783411 0
M  V30 10747 H 1022.37 4.21226 0.121182 0
M  V30 10748 H 1021.09 3.16786 0.7946 0
M  V30 10749 H 1019.75 3.41892 -1.32308 0
M  V30 10750 H 1019.4 4.99575 0.585974 0
M  V30 10751 H 1019.1 5.79402 -0.978122 0
M  V30 10752 H 1020.62 6.10519 -0.0991508 0
M  V30 10753 H 1022.04 5.28659 -2.21795 0
M  V30 10754 H 1020.43 5.1951 -3.00383 0
M  V30 10755 H 1021.5 3.78189 -3.03482 0
M  V30 10756 N 1022.85 0.866709 1.31628 0
M  V30 10757 C 1024.07 0.49039 2.01004 0
M  V30 10758 C 1024.49 -0.916244 1.65077 0
M  V30 10759 O 1023.85 -1.59975 0.8783 0
M  V30 10760 C 1023.9 0.634011 3.55897 0
M  V30 10761 O 1023.62 1.98525 3.90537 0
M  V30 10762 C 1025.12 0.258277 4.42547 0
M  V30 10763 H 1022.34 0.191421 0.643117 0
M  V30 10764 H 1024.88 1.16698 1.67934 0
M  V30 10765 H 1023.04 0.00501801 3.874 0
M  V30 10766 H 1023.45 1.99067 4.85255 0
M  V30 10767 H 1024.93 0.409733 5.50477 0
M  V30 10768 H 1025.4 -0.802301 4.3181 0
M  V30 10769 H 1026.01 0.862837 4.16456 0
M  V30 10770 N 1024.32 -1.44642 0.625825 0
M  V30 10771 C 1025.25 -2.33397 -0.0692188 0
M  V30 10772 C 1026.23 -1.47898 -0.840241 0
M  V30 10773 O 1027.42 -1.7663 -0.807176 0
M  V30 10774 C 1024.55 -3.30888 -1.055 0
M  V30 10775 C 1023.5 -4.26164 -0.395968 0
M  V30 10776 C 1022.83 -5.13483 -1.49128 0
M  V30 10777 C 1024.13 -5.17663 0.694433 0
M  V30 10778 H 1025.82 -2.91763 0.671925 0
M  V30 10779 H 1023.37 -1.40294 0.324573 0
M  V30 10780 H 1025.32 -3.91861 -1.54993 0
M  V30 10781 H 1024.05 -2.7072 -1.82696 0
M  V30 10782 H 1022.71 -3.66516 0.0782691 0
M  V30 10783 H 1022.35 -4.49672 -2.25399 0
M  V30 10784 H 1022.05 -5.78038 -1.05573 0
M  V30 10785 H 1023.58 -5.77327 -1.98813 0
M  V30 10786 H 1024.99 -5.72602 0.282818 0
M  V30 10787 H 1023.39 -5.90793 1.05281 0
M  V30 10788 H 1024.46 -4.58994 1.56372 0
M  V30 10789 N 1025.8 -0.366053 -1.5329 0
M  V30 10790 C 1027.03 0.22391 -2.05383 0
M  V30 10791 C 1027.44 1.42962 -1.23929 0
M  V30 10792 O 1026.78 1.81659 -0.273072 0
M  V30 10793 C 1026.84 0.681038 -3.5299 0
M  V30 10794 C 1026.51 -0.40805 -4.55175 0
M  V30 10795 C 1027.51 -1.25806 -5.04449 0
M  V30 10796 C 1025.19 -0.568428 -4.99073 0
M  V30 10797 C 1027.18 -2.25379 -5.96224 0
M  V30 10798 C 1024.87 -1.56752 -5.90654 0
M  V30 10799 C 1025.87 -2.40864 -6.39119 0
M  V30 10800 O 1025.56 -3.39069 -7.28895 0
M  V30 10801 H 1025.29 0.0429593 -0.674634 0
M  V30 10802 H 1027.84 -0.522897 -1.98633 0
M  V30 10803 H 1026.07 1.47945 -3.5728 0
M  V30 10804 H 1027.76 1.19406 -3.8794 0
M  V30 10805 H 1028.53 -1.14536 -4.71282 0
M  V30 10806 H 1024.41 0.0764858 -4.60937 0
M  V30 10807 H 1027.95 -2.91068 -6.33976 0
M  V30 10808 H 1023.85 -1.6807 -6.23236 0
M  V30 10809 H 1024.62 -3.34804 -7.46893 0
M  V30 10810 N 1027.28 1.57312 -0.0952337 0
M  V30 10811 C 1028.19 2.17556 0.877877 0
M  V30 10812 C 1029.21 1.14505 1.31014 0
M  V30 10813 O 1030.38 1.46876 1.37802 0
M  V30 10814 C 1027.45 2.74413 2.11892 0
M  V30 10815 C 1026.51 3.92419 1.74085 0
M  V30 10816 C 1025.74 4.46556 2.92273 0
M  V30 10817 O 1025.96 3.99631 4.07002 0
M  V30 10818 O 1024.9 5.37576 2.70732 0
M  V30 10819 H 1028.72 3.01116 0.395312 0
M  V30 10820 H 1026.31 1.48841 0.129123 0
M  V30 10821 H 1028.19 3.10754 2.84622 0
M  V30 10822 H 1026.87 1.93899 2.59201 0
M  V30 10823 H 1025.77 3.6089 0.985346 0
M  V30 10824 H 1027.11 4.74298 1.31539 0
M  V30 10825 N 1028.76 -0.17846 1.56586 0
M  V30 10826 C 1030 -0.892915 1.82753 0
M  V30 10827 C 1030.36 -1.8018 0.674744 0
M  V30 10828 O 1029.65 -1.8875 -0.329219 0
M  V30 10829 C 1029.85 -1.73063 3.12704 0
M  V30 10830 C 1029.67 -0.904341 4.40513 0
M  V30 10831 C 1028.44 -0.582221 5.01935 0
M  V30 10832 C 1030.64 -0.249232 5.13696 0
M  V30 10833 N 1028.62 0.260955 6.13345 0
M  V30 10834 C 1030 0.455417 6.18325 0
M  V30 10835 C 1032.05 -0.166663 4.97621 0
M  V30 10836 C 1030.75 1.23479 7.08622 0
M  V30 10837 C 1032.78 0.599362 5.88355 0
M  V30 10838 C 1032.14 1.2924 6.92442 0
M  V30 10839 H 1028.24 -0.30559 0.719818 0
M  V30 10840 H 1030.82 -0.160405 1.94038 0
M  V30 10841 H 1029 -2.43461 3.02624 0
M  V30 10842 H 1030.73 -2.38584 3.26894 0
M  V30 10843 H 1027.48 -0.910612 4.64763 0
M  V30 10844 H 1027.91 0.672643 6.7365 0
M  V30 10845 H 1032.55 -0.688116 4.17163 0
M  V30 10846 H 1030.27 1.76762 7.88531 0
M  V30 10847 H 1033.85 0.664826 5.77989 0
M  V30 10848 H 1032.73 1.87564 7.61439 0
M  V30 10849 N 1030.24 -1.51135 -0.446768 0
M  V30 10850 C 1031.18 -1.71767 -1.54158 0
M  V30 10851 C 1032.15 -0.559201 -1.56404 0
M  V30 10852 O 1033.34 -0.792567 -1.7356 0
M  V30 10853 C 1030.48 -1.84006 -2.91952 0
M  V30 10854 C 1029.59 -3.11511 -2.99308 0
M  V30 10855 C 1028.73 -3.144 -4.28166 0
M  V30 10856 C 1027.76 -4.36258 -4.29355 0
M  V30 10857 N 1026.9 -4.3675 -5.49722 0
M  V30 10858 H 1031.74 -2.65224 -1.35869 0
M  V30 10859 H 1029.28 -1.31453 -0.660186 0
M  V30 10860 H 1031.24 -1.89083 -3.71892 0
M  V30 10861 H 1029.87 -0.939661 -3.08821 0
M  V30 10862 H 1028.92 -3.15788 -2.12089 0
M  V30 10863 H 1030.23 -4.01445 -2.96047 0
M  V30 10864 H 1029.38 -3.18341 -5.16473 0
M  V30 10865 H 1028.12 -2.22338 -4.3407 0
M  V30 10866 H 1027.13 -4.32503 -3.39442 0
M  V30 10867 H 1028.35 -5.29574 -4.25122 0
M  V30 10868 H 1026.3 -3.47554 -5.56365 0
M  V30 10869 H 1026.22 -5.20481 -5.48302 0
M  V30 10870 H 1027.48 -4.4487 -6.40086 0
M  V30 10871 N 1031.71 0.701592 -1.41122 0
M  V30 10872 C 1032.94 1.49553 -1.43696 0
M  V30 10873 C 1033.36 1.88053 -0.0421865 0
M  V30 10874 O 1032.72 1.54223 0.953144 0
M  V30 10875 C 1032.77 2.73834 -2.34622 0
M  V30 10876 O 1031.87 3.71088 -1.7991 0
M  V30 10877 H 1031.21 0.450352 -0.487933 0
M  V30 10878 H 1033.74 0.862886 -1.85514 0
M  V30 10879 H 1033.75 3.22209 -2.5029 0
M  V30 10880 H 1032.43 2.45149 -3.35969 0
M  V30 10881 H 1031.01 3.29994 -1.73661 0
M  V30 10882 N 1033.19 1.2685 0.935242 0
M  V30 10883 C 1034.6 1.11569 1.49697 0
M  V30 10884 C 1034.95 -0.301952 1.93863 0
M  V30 10885 O 1034.08 -1.19408 1.80473 0
M  V30 10886 C 1034.67 2.01918 2.72056 0
M  V30 10887 C 1033.23 1.90765 3.24477 0
M  V30 10888 C 1032.38 1.94918 1.97237 0
M  V30 10889 H 1035.33 1.39853 0.750116 0
M  V30 10890 H 1035.35 1.57056 3.46574 0
M  V30 10891 H 1034.86 3.05088 2.39881 0
M  V30 10892 H 1032.96 0.905521 3.61429 0
M  V30 10893 H 1033.08 2.76611 3.91182 0
M  V30 10894 H 1031.44 1.39046 2.13397 0
M  V30 10895 H 1032.22 2.99729 1.67385 0
M  V30 10896 N 1034.67 -1.14067 1.0875 0
M  V30 10897 C 1035.92 -1.85185 0.819317 0
M  V30 10898 C 1036.25 -1.8314 -0.654969 0
M  V30 10899 O 1035.5 -1.25974 -1.49763 0
M  V30 10900 C 1035.8 -3.33273 1.29089 0
M  V30 10901 C 1035.47 -3.55504 2.77359 0
M  V30 10902 C 1034.13 -3.61279 3.17853 0
M  V30 10903 C 1036.48 -3.64041 3.72992 0
M  V30 10904 C 1033.81 -3.73119 4.52768 0
M  V30 10905 C 1036.16 -3.77407 5.07687 0
M  V30 10906 C 1034.82 -3.81433 5.47782 0
M  V30 10907 H 1034.09 -0.67764 0.299809 0
M  V30 10908 H 1036.74 -1.34713 1.36106 0
M  V30 10909 H 1035.05 -3.86049 0.668811 0
M  V30 10910 H 1036.74 -3.86734 1.06009 0
M  V30 10911 H 1033.33 -3.51659 2.45019 0
M  V30 10912 H 1037.52 -3.58866 3.42825 0
M  V30 10913 H 1032.77 -3.74499 4.83281 0
M  V30 10914 H 1036.95 -3.82956 5.81651 0
M  V30 10915 H 1034.57 -3.9036 6.52321 0
M  V30 10916 N 1036.15 -0.873678 -1.31166 0
M  V30 10917 C 1037.4 -0.485497 -1.96182 0
M  V30 10918 C 1037.72 0.96621 -1.69379 0
M  V30 10919 O 1036.99 1.67783 -1.01121 0
M  V30 10920 H 1035.57 -0.176547 -0.725838 0
M  V30 10921 H 1038.23 -1.11428 -1.59906 0
M  V30 10922 H 1037.33 -0.646325 -3.05334 0
M  V30 10923 N 1037.63 1.44308 -0.633487 0
M  V30 10924 C 1038.56 2.33431 0.0568402 0
M  V30 10925 C 1039.54 1.48342 0.832386 0
M  V30 10926 O 1040.72 1.77056 0.797798 0
M  V30 10927 C 1037.85 3.31443 1.03743 0
M  V30 10928 C 1036.81 4.26368 0.373362 0
M  V30 10929 C 1036.13 5.14267 1.46403 0
M  V30 10930 C 1037.43 5.17287 -0.721876 0
M  V30 10931 H 1039.13 2.91402 -0.687388 0
M  V30 10932 H 1036.67 1.4012 -0.332009 0
M  V30 10933 H 1038.63 3.92677 1.52913 0
M  V30 10934 H 1037.35 2.71686 1.81258 0
M  V30 10935 H 1036.01 3.6647 -0.0977053 0
M  V30 10936 H 1035.66 4.50861 2.23011 0
M  V30 10937 H 1035.36 5.7859 1.02506 0
M  V30 10938 H 1036.88 5.78373 1.95748 0
M  V30 10939 H 1038.29 5.72444 -0.313181 0
M  V30 10940 H 1036.69 5.90226 -1.08413 0
M  V30 10941 H 1037.76 4.58159 -1.58804 0
M  V30 10942 N 1039.1 0.374177 1.53094 0
M  V30 10943 C 1040.33 -0.213325 2.05797 0
M  V30 10944 C 1040.75 -1.41753 1.24706 0
M  V30 10945 O 1040.1 -1.80183 0.289868 0
M  V30 10946 C 1040.16 -0.598367 3.56513 0
M  V30 10947 O 1039.88 0.557983 4.34532 0
M  V30 10948 C 1041.38 -1.24334 4.25507 0
M  V30 10949 H 1038.6 -0.0357398 0.670048 0
M  V30 10950 H 1041.14 0.535035 1.97377 0
M  V30 10951 H 1039.3 -1.29663 3.65056 0
M  V30 10952 H 1039.71 0.244911 5.23928 0
M  V30 10953 H 1041.18 -1.46325 5.32253 0
M  V30 10954 H 1041.66 -2.20622 3.79766 0
M  V30 10955 H 1042.27 -0.586269 4.2124 0
M  V30 10956 N 1040.58 -1.57259 0.103575 0
M  V30 10957 C 1041.99 -1.81816 -0.424239 0
M  V30 10958 C 1042.34 -1.01976 -1.67617 0
M  V30 10959 O 1041.47 -0.251673 -2.14932 0
M  V30 10960 C 1042.06 -3.29783 -0.776453 0
M  V30 10961 C 1040.62 -3.55074 -1.24897 0
M  V30 10962 C 1039.77 -2.76172 -0.249875 0
M  V30 10963 H 1042.72 -1.55254 0.328913 0
M  V30 10964 H 1042.74 -3.43569 -1.63526 0
M  V30 10965 H 1042.25 -3.87865 0.134906 0
M  V30 10966 H 1040.36 -3.02332 -2.17775 0
M  V30 10967 H 1040.47 -4.637 -1.20495 0
M  V30 10968 H 1038.83 -2.43902 -0.733767 0
M  V30 10969 H 1039.62 -3.37007 0.65431 0
M  V30 10970 N 1042.06 0.170153 -1.56679 0
M  V30 10971 C 1043.01 1.21064 -1.965 0
M  V30 10972 C 1043.98 1.43928 -0.829092 0
M  V30 10973 O 1045.16 1.56649 -1.08931 0
M  V30 10974 C 1042.3 2.54468 -2.33109 0
M  V30 10975 C 1041.42 2.38974 -3.59883 0
M  V30 10976 C 1040.55 3.65252 -3.857 0
M  V30 10977 C 1039.59 3.44696 -5.05817 0
M  V30 10978 N 1038.73 4.63047 -5.27761 0
M  V30 10979 H 1043.57 0.864055 -2.85198 0
M  V30 10980 H 1041.1 0.415243 -1.41117 0
M  V30 10981 H 1043.06 3.32222 -2.52358 0
M  V30 10982 H 1041.69 2.8712 -1.4752 0
M  V30 10983 H 1040.74 1.5239 -3.48542 0
M  V30 10984 H 1042.06 2.19731 -4.47794 0
M  V30 10985 H 1041.21 4.51441 -4.05322 0
M  V30 10986 H 1039.95 3.87475 -2.96166 0
M  V30 10987 H 1038.95 2.56893 -4.86092 0
M  V30 10988 H 1040.18 3.23894 -5.96883 0
M  V30 10989 H 1038.12 4.85487 -4.41179 0
M  V30 10990 H 1038.04 4.46722 -6.09898 0
M  V30 10991 H 1039.31 5.50516 -5.51863 0
M  V30 10992 N 1043.54 1.5137 0.438746 0
M  V30 10993 C 1044.79 1.63645 1.18595 0
M  V30 10994 C 1045.11 0.354241 1.91755 0
M  V30 10995 O 1044.38 -0.629838 1.85499 0
M  V30 10996 H 1042.96 0.603103 0.440767 0
M  V30 10997 H 1045.62 1.88293 0.503159 0
M  V30 10998 H 1044.72 2.46342 1.9163 0
M  V30 10999 N 1045.02 -0.694098 1.41492 0
M  V30 11000 C 1046.43 -1.00487 1.23994 0
M  V30 11001 C 1046.63 -2.01078 0.130346 0
M  V30 11002 O 1045.69 -2.47403 -0.504775 0
M  V30 11003 C 1047 -1.52808 2.58979 0
M  V30 11004 C 1048.55 -1.64684 2.66173 0
M  V30 11005 C 1049.02 -2.20406 4.01479 0
M  V30 11006 N 1050.52 -2.27765 4.03333 0
M  V30 11007 C 1051.25 -2.7191 5.04829 0
M  V30 11008 N 1050.75 -3.1565 6.16714 0
M  V30 11009 N 1052.54 -2.71487 4.9219 0
M  V30 11010 H 1044.69 -0.027746 2.12382 0
M  V30 11011 H 1046.95 -0.0748741 0.945039 0
M  V30 11012 H 1046.66 -0.863519 3.40934 0
M  V30 11013 H 1046.53 -2.50998 2.81566 0
M  V30 11014 H 1048.92 -2.30251 1.84576 0
M  V30 11015 H 1049 -0.65035 2.47395 0
M  V30 11016 H 1048.65 -1.55454 4.83525 0
M  V30 11017 H 1048.58 -3.2081 4.17599 0
M  V30 11018 H 1051.07 -1.96899 3.22551 0
M  V30 11019 H 1051.38 -3.47966 6.90029 0
M  V30 11020 H 1049.72 -3.13555 6.20248 0
M  V30 11021 H 1052.92 -2.36666 4.03865 0
M  V30 11022 H 1053.09 -3.05573 5.71427 0
M  V30 11023 N 1046.49 -1.27344 -0.928501 0
M  V30 11024 C 1047.44 -1.09835 -2.05034 0
M  V30 11025 C 1048.44 -0.0216643 -1.69386 0
M  V30 11026 O 1049.64 -0.179323 -1.79105 0
M  V30 11027 H 1046.02 -0.338416 -0.671549 0
M  V30 11028 H 1047.99 -2.04879 -2.1695 0
M  V30 11029 C 1046.74 -0.761462 -3.3926 0
M  V30 11030 H 1046.06 -1.58186 -3.67175 0
M  V30 11031 H 1047.5 -0.678812 -4.18531 0
M  V30 11032 C 1045.96 0.534118 -3.32639 0
M  V30 11033 O 1046.49 1.56877 -3.69801 0
M  V30 11034 N 1044.7 0.529437 -2.85736 0
M  V30 11035 H 1044.24 -0.312954 -2.55692 0
M  V30 11036 H 1044.2 1.39637 -2.81689 0
M  V30 11037 N 1047.97 1.13488 -1.09353 0
M  V30 11038 C 1049.39 1.36739 -0.823086 0
M  V30 11039 C 1049.59 1.93476 0.562963 0
M  V30 11040 O 1048.64 2.15374 1.31796 0
M  V30 11041 C 1049.96 2.31943 -1.91371 0
M  V30 11042 C 1051.51 2.4556 -1.94085 0
M  V30 11043 C 1051.98 3.44072 -3.02289 0
M  V30 11044 N 1053.47 3.51622 -3.01524 0
M  V30 11045 C 1054.21 4.27724 -3.8189 0
M  V30 11046 N 1053.7 5.06987 -4.72161 0
M  V30 11047 N 1055.5 4.23018 -3.70152 0
M  V30 11048 H 1047.65 0.75012 -1.98713 0
M  V30 11049 H 1049.91 0.392564 -0.862901 0
M  V30 11050 H 1049.62 1.97408 -2.91072 0
M  V30 11051 H 1049.49 3.31952 -1.79131 0
M  V30 11052 H 1051.88 2.79382 -0.950234 0
M  V30 11053 H 1051.96 1.45479 -2.10403 0
M  V30 11054 H 1051.6 3.10981 -4.01564 0
M  V30 11055 H 1051.53 4.43956 -2.83214 0
M  V30 11056 H 1054.02 2.95066 -2.36103 0
M  V30 11057 H 1054.34 5.6236 -5.30067 0
M  V30 11058 H 1052.68 5.06222 -4.76197 0
M  V30 11059 H 1055.87 3.60171 -2.98989 0
M  V30 11060 H 1056.04 4.82075 -4.33022 0
M  V30 11061 N 1049.45 0.880621 1.30701 0
M  V30 11062 C 1050.68 0.510909 2.01009 0
M  V30 11063 C 1051.1 -0.892041 1.65603 0
M  V30 11064 O 1050.46 -1.59045 0.870309 0
M  V30 11065 C 1050.51 0.687759 3.53981 0
M  V30 11066 O 1049.61 -0.268275 4.11526 0
M  V30 11067 H 1048.95 0.201864 0.632572 0
M  V30 11068 H 1051.48 1.18697 1.6665 0
M  V30 11069 H 1051.49 0.585095 4.03783 0
M  V30 11070 H 1050.17 1.71068 3.79089 0
M  V30 11071 H 1048.74 -0.119673 3.72708 0
M  V30 11072 N 1050.93 -1.4397 0.641131 0
M  V30 11073 C 1051.88 -2.30728 -0.0577905 0
M  V30 11074 C 1052.85 -1.44059 -0.826819 0
M  V30 11075 O 1054.03 -1.72947 -0.805853 0
M  V30 11076 C 1051.17 -3.29478 -1.02657 0
M  V30 11077 C 1050.28 -4.31247 -0.254913 0
M  V30 11078 C 1049.42 -5.17085 -1.2164 0
M  V30 11079 C 1048.46 -6.10556 -0.434481 0
M  V30 11080 N 1047.6 -6.89059 -1.34694 0
M  V30 11081 H 1052.44 -2.8995 0.687953 0
M  V30 11082 H 1049.97 -1.4285 0.351029 0
M  V30 11083 H 1051.93 -3.85228 -1.60173 0
M  V30 11084 H 1050.56 -2.71932 -1.73933 0
M  V30 11085 H 1049.61 -3.77889 0.436338 0
M  V30 11086 H 1050.92 -4.97545 0.353642 0
M  V30 11087 H 1050.08 -5.77402 -1.86258 0
M  V30 11088 H 1048.82 -4.50885 -1.85888 0
M  V30 11089 H 1047.82 -5.49339 0.225125 0
M  V30 11090 H 1049.05 -6.78795 0.203415 0
M  V30 11091 H 1046.99 -6.25518 -1.97644 0
M  V30 11092 H 1046.91 -7.51833 -0.792657 0
M  V30 11093 H 1048.18 -7.5389 -1.98165 0
M  V30 11094 N 1052.41 -0.382291 -1.52893 0
M  V30 11095 C 1053.65 0.202433 -2.01787 0
M  V30 11096 C 1053.99 1.47044 -1.26853 0
M  V30 11097 O 1053.26 1.91007 -0.366969 0
M  V30 11098 C 1053.54 0.477471 -3.5692 0
M  V30 11099 C 1053.4 -0.805339 -4.42532 0
M  V30 11100 C 1054.72 1.27106 -4.21346 0
M  V30 11101 H 1051.84 0.0720998 -0.733465 0
M  V30 11102 H 1054.48 -0.510478 -1.83014 0
M  V30 11103 H 1052.63 1.08478 -3.73048 0
M  V30 11104 H 1054.3 -1.4424 -4.3817 0
M  V30 11105 H 1052.54 -1.42216 -4.09826 0
M  V30 11106 H 1053.21 -0.567635 -5.49074 0
M  V30 11107 H 1055.69 0.757161 -4.09153 0
M  V30 11108 H 1054.57 1.43225 -5.29885 0
M  V30 11109 H 1054.83 2.28431 -3.78513 0
M  V30 11110 N 1053.89 1.57202 -0.111913 0
M  V30 11111 C 1055.13 1.9495 0.547795 0
M  V30 11112 C 1055.46 0.994763 1.67137 0
M  V30 11113 O 1054.72 0.0173528 1.95692 0
M  V30 11114 C 1055.01 3.39152 1.12741 0
M  V30 11115 C 1054.68 4.50724 0.125916 0
M  V30 11116 C 1053.34 4.80968 -0.149489 0
M  V30 11117 C 1055.69 5.18215 -0.556987 0
M  V30 11118 C 1053.02 5.76023 -1.1142 0
M  V30 11119 C 1055.37 6.14307 -1.51029 0
M  V30 11120 C 1054.04 6.42947 -1.79375 0
M  V30 11121 H 1053.31 0.713372 0.200453 0
M  V30 11122 H 1055.96 1.90542 -0.191316 0
M  V30 11123 H 1054.26 3.4022 1.94313 0
M  V30 11124 H 1055.96 3.65668 1.64584 0
M  V30 11125 H 1052.55 4.27162 0.350756 0
M  V30 11126 H 1056.73 4.95012 -0.357378 0
M  V30 11127 H 1051.99 5.9652 -1.34064 0
M  V30 11128 H 1056.16 6.65692 -2.04516 0
M  V30 11129 H 1053.79 7.1641 -2.54284 0
M  V30 11130 N 1055.36 -0.161842 1.56767 0
M  V30 11131 C 1056.59 -0.896274 1.87034 0
M  V30 11132 C 1057.01 -1.74617 0.699314 0
M  V30 11133 O 1056.37 -1.77861 -0.351435 0
M  V30 11134 C 1056.42 -1.74105 3.15784 0
M  V30 11135 O 1055.52 -2.84372 2.98674 0
M  V30 11136 H 1054.86 -0.250523 0.614926 0
M  V30 11137 H 1057.39 -0.157127 2.03996 0
M  V30 11138 H 1057.4 -2.13907 3.4743 0
M  V30 11139 H 1056.08 -1.11684 4.00624 0
M  V30 11140 H 1054.66 -2.48084 2.78404 0
M  V30 11141 N 1056.84 -1.516 -0.430713 0
M  V30 11142 C 1058.09 -1.64596 -1.17959 0
M  V30 11143 C 1058.42 -0.365382 -1.91037 0
M  V30 11144 O 1057.67 0.650826 -1.84561 0
M  V30 11145 C 1057.97 -2.804 -2.21609 0
M  V30 11146 C 1057.64 -4.19431 -1.65495 0
M  V30 11147 C 1056.3 -4.57252 -1.49915 0
M  V30 11148 C 1058.65 -5.0616 -1.24304 0
M  V30 11149 C 1055.98 -5.79501 -0.916276 0
M  V30 11150 C 1058.33 -6.28995 -0.674437 0
M  V30 11151 C 1056.99 -6.65582 -0.505591 0
M  V30 11152 H 1056.26 -0.602301 -0.431642 0
M  V30 11153 H 1058.91 -1.8565 -0.469726 0
M  V30 11154 H 1057.22 -2.53595 -2.98658 0
M  V30 11155 H 1058.91 -2.87654 -2.79385 0
M  V30 11156 H 1055.5 -3.89615 -1.78599 0
M  V30 11157 H 1059.69 -4.77541 -1.35159 0
M  V30 11158 H 1054.94 -6.0649 -0.77328 0
M  V30 11159 H 1059.12 -6.95536 -0.346779 0
M  V30 11160 H 1056.74 -7.60182 -0.0518188 0
M  V30 11161 N 1058.32 0.686584 -1.41858 0
M  V30 11162 C 1059.54 1.4802 -1.45275 0
M  V30 11163 C 1059.97 1.87997 -0.0621297 0
M  V30 11164 O 1059.33 1.55226 0.936733 0
M  V30 11165 C 1059.38 2.7133 -2.37513 0
M  V30 11166 O 1058.48 3.69159 -1.83836 0
M  V30 11167 H 1057.82 0.445152 -0.492682 0
M  V30 11168 H 1060.35 0.843161 -1.86419 0
M  V30 11169 H 1060.36 3.19537 -2.53693 0
M  V30 11170 H 1059.04 2.41571 -3.3855 0
M  V30 11171 H 1057.61 3.28134 -1.77151 0
M  V30 11172 N 1059.8 1.27835 0.921735 0
M  V30 11173 C 1061.02 1.17465 1.70929 0
M  V30 11174 C 1061.45 -0.264171 1.86236 0
M  V30 11175 O 1060.81 -1.19124 1.36671 0
M  V30 11176 C 1060.85 1.8697 3.08342 0
M  V30 11177 O 1059.96 1.17173 3.95404 0
M  V30 11178 H 1059.3 0.408206 0.523702 0
M  V30 11179 H 1061.83 1.69013 1.15307 0
M  V30 11180 H 1061.84 1.94564 3.58621 0
M  V30 11181 H 1060.51 2.91633 2.96518 0
M  V30 11182 H 1059.09 1.17688 3.53842 0
M  V30 11183 N 1061.28 -1.12907 1.09954 0
M  V30 11184 C 1062.24 -2.16673 0.747364 0
M  V30 11185 C 1063.24 -1.59208 -0.225741 0
M  V30 11186 O 1064.43 -1.742 -0.00322482 0
M  V30 11187 C 1061.56 -3.40735 0.106169 0
M  V30 11188 H 1062.75 -2.49341 1.6664 0
M  V30 11189 H 1060.31 -1.27828 0.899421 0
M  V30 11190 H 1061.04 -3.13661 -0.82384 0
M  V30 11191 H 1060.83 -3.83717 0.806434 0
M  V30 11192 H 1062.32 -4.17414 -0.12464 0
M  V30 11193 N 1062.75 -0.88754 -1.30232 0
M  V30 11194 C 1063.68 -0.372481 -2.3051 0
M  V30 11195 C 1064.66 0.546037 -1.61098 0
M  V30 11196 O 1065.85 0.459345 -1.88689 0
M  V30 11197 C 1062.98 0.411605 -3.44852 0
M  V30 11198 C 1061.93 -0.415383 -4.2598 0
M  V30 11199 C 1061.26 0.495463 -5.324 0
M  V30 11200 C 1062.56 -1.65886 -4.95257 0
M  V30 11201 H 1064.25 -1.21045 -2.7384 0
M  V30 11202 H 1061.8 -0.583498 -1.31648 0
M  V30 11203 H 1063.75 0.782584 -4.1407 0
M  V30 11204 H 1062.48 1.28325 -3.00334 0
M  V30 11205 H 1061.14 -0.768534 -3.58454 0
M  V30 11206 H 1060.78 1.36489 -4.84128 0
M  V30 11207 H 1060.48 -0.0540885 -5.87575 0
M  V30 11208 H 1062.01 0.862901 -6.04472 0
M  V30 11209 H 1063.42 -1.35832 -5.56976 0
M  V30 11210 H 1061.82 -2.14881 -5.60309 0
M  V30 11211 H 1062.89 -2.40181 -4.21237 0
M  V30 11212 N 1064.23 1.43628 -0.648757 0
M  V30 11213 C 1065.18 2.32529 0.057536 0
M  V30 11214 C 1066.17 1.48358 0.817699 0
M  V30 11215 O 1067.38 1.64595 0.728605 0
M  V30 11216 H 1063.76 0.75107 0.037388 0
M  V30 11217 H 1065.73 2.89829 -0.710062 0
M  V30 11218 C 1064.48 3.32605 1.01336 0
M  V30 11219 H 1063.8 3.97395 0.437855 0
M  V30 11220 H 1065.24 3.97453 1.47672 0
M  V30 11221 C 1063.7 2.62865 2.10722 0
M  V30 11222 O 1064.23 2.4408 3.19042 0
M  V30 11223 N 1062.43 2.22312 1.87152 0
M  V30 11224 H 1061.98 2.3779 0.990644 0
M  V30 11225 H 1061.94 1.75979 2.60536 0
M  V30 11226 N 1065.71 0.390394 1.52688 0
M  V30 11227 C 1066.96 -0.192697 2.00777 0
M  V30 11228 C 1067.27 -1.4781 1.28108 0
M  V30 11229 O 1068.48 -2.1413 1.66914 0
M  V30 11230 C 1066.93 -0.393955 3.57737 0
M  V30 11231 C 1066.54 0.878259 4.39307 0
M  V30 11232 C 1068.29 -0.933352 4.14112 0
M  V30 11233 C 1066.19 0.645218 5.8787 0
M  V30 11234 H 1065.12 -0.0757862 0.750182 0
M  V30 11235 H 1067.77 0.512961 1.76184 0
M  V30 11236 H 1066.16 -1.16149 3.78583 0
M  V30 11237 H 1067.33 1.65049 4.30227 0
M  V30 11238 H 1065.65 1.34269 3.94158 0
M  V30 11239 H 1068.24 -1.12343 5.22765 0
M  V30 11240 H 1068.59 -1.90272 3.70273 0
M  V30 11241 H 1069.12 -0.225361 3.97161 0
M  V30 11242 H 1065.86 1.58562 6.36033 0
M  V30 11243 H 1065.38 -0.0880609 5.99735 0
M  V30 11244 H 1067.06 0.280178 6.46393 0
M  V30 11245 N 1067.19 -1.57141 0.120249 0
M  V30 11246 C 1068.43 -1.97124 -0.540521 0
M  V30 11247 C 1068.79 -1.0022 -1.63768 0
M  V30 11248 O 1069.99 -1.29146 -2.35743 0
M  V30 11249 C 1068.26 -3.41371 -1.05833 0
M  V30 11250 S 1069.82 -4.03367 -1.72745 0
M  V30 11251 H 1066.64 -0.688962 -0.175646 0
M  V30 11252 H 1069.24 -1.94416 0.205625 0
M  V30 11253 H 1067.95 -4.09646 -0.248656 0
M  V30 11254 H 1067.48 -3.47732 -1.83972 0
M  V30 11255 H 1069.49 -3.94227 -3.0133 0
M  V30 11256 N 1068.67 0.153526 -1.5685 0
M  V30 11257 C 1069.9 0.881055 -1.86872 0
M  V30 11258 C 1070.3 1.75547 -0.705692 0
M  V30 11259 O 1069.65 1.8064 0.333888 0
M  V30 11260 C 1069.71 1.79429 -3.11521 0
M  V30 11261 C 1069.37 1.0977 -4.43621 0
M  V30 11262 C 1070.37 0.454693 -5.17908 0
M  V30 11263 C 1068.06 1.08915 -4.9035 0
M  V30 11264 C 1070.05 -0.187562 -6.37124 0
M  V30 11265 C 1067.74 0.443084 -6.09492 0
M  V30 11266 C 1068.73 -0.194154 -6.82724 0
M  V30 11267 O 1068.42 -0.829995 -7.99604 0
M  V30 11268 H 1068.15 0.260486 -0.623797 0
M  V30 11269 H 1070.71 0.153024 -2.04829 0
M  V30 11270 H 1068.94 2.5631 -2.89555 0
M  V30 11271 H 1070.63 2.39321 -3.27842 0
M  V30 11272 H 1071.39 0.453151 -4.82878 0
M  V30 11273 H 1067.27 1.57456 -4.33276 0
M  V30 11274 H 1070.82 -0.685542 -6.94223 0
M  V30 11275 H 1066.71 0.44227 -6.43983 0
M  V30 11276 H 1067.48 -0.731013 -8.15229 0
M  V30 11277 N 1070.14 1.51827 0.422667 0
M  V30 11278 C 1071.11 1.7359 1.49663 0
M  V30 11279 C 1072.11 0.605811 1.48952 0
M  V30 11280 O 1073.3 0.87354 1.50715 0
M  V30 11281 C 1070.43 1.80585 2.8914 0
M  V30 11282 H 1071.62 2.69453 1.31664 0
M  V30 11283 H 1069.18 1.42038 0.652298 0
M  V30 11284 H 1069.91 0.865895 3.12526 0
M  V30 11285 H 1069.7 2.62729 2.9106 0
M  V30 11286 H 1071.19 1.99212 3.67021 0
M  V30 11287 N 1071.62 -0.679052 1.4222 0
M  V30 11288 C 1072.55 -1.80481 1.48152 0
M  V30 11289 C 1073.53 -1.66698 0.338502 0
M  V30 11290 O 1074.72 -1.86183 0.552228 0
M  V30 11291 C 1071.85 -3.18746 1.37908 0
M  V30 11292 C 1070.8 -3.47258 2.50192 0
M  V30 11293 C 1070.13 -4.85052 2.25008 0
M  V30 11294 C 1071.43 -3.44576 3.92511 0
M  V30 11295 H 1073.12 -1.75774 2.42371 0
M  V30 11296 H 1070.67 -0.844241 1.16656 0
M  V30 11297 H 1072.62 -3.97229 1.40666 0
M  V30 11298 H 1071.35 -3.24119 0.401806 0
M  V30 11299 H 1070 -2.71133 2.46744 0
M  V30 11300 H 1069.65 -4.8707 1.25584 0
M  V30 11301 H 1069.35 -5.05092 3.00259 0
M  V30 11302 H 1070.88 -5.65825 2.29508 0
M  V30 11303 H 1072.29 -4.13036 3.97585 0
M  V30 11304 H 1070.69 -3.76151 4.67579 0
M  V30 11305 H 1071.76 -2.4323 4.19484 0
M  V30 11306 N 1073.1 -1.28322 -0.914942 0
M  V30 11307 C 1074.03 -1.14681 -2.03398 0
M  V30 11308 C 1075.01 -0.0448939 -1.70041 0
M  V30 11309 O 1076.2 -0.221672 -1.92931 0
M  V30 11310 C 1073.33 -0.806623 -3.37803 0
M  V30 11311 C 1072.28 -1.86318 -3.85318 0
M  V30 11312 C 1071.61 -1.37665 -5.16674 0
M  V30 11313 C 1072.91 -3.26953 -4.07307 0
M  V30 11314 H 1074.6 -2.08293 -2.15068 0
M  V30 11315 H 1072.15 -1.00284 -1.03339 0
M  V30 11316 H 1074.1 -0.69796 -4.1558 0
M  V30 11317 H 1072.82 0.165203 -3.26182 0
M  V30 11318 H 1071.48 -1.96096 -3.09745 0
M  V30 11319 H 1071.13 -0.393927 -5.01455 0
M  V30 11320 H 1070.83 -2.08313 -5.49435 0
M  V30 11321 H 1072.35 -1.28119 -5.97007 0
M  V30 11322 H 1073.77 -3.20102 -4.75613 0
M  V30 11323 H 1072.17 -3.95424 -4.51398 0
M  V30 11324 H 1073.24 -3.71059 -3.12159 0
M  V30 11325 N 1074.58 1.12322 -1.10551 0
M  V30 11326 C 1075.83 1.83858 -0.848674 0
M  V30 11327 C 1076.15 1.84159 0.62575 0
M  V30 11328 O 1075.41 1.28341 1.4774 0
M  V30 11329 C 1075.71 3.31177 -1.34375 0
M  V30 11330 C 1075.37 3.51046 -2.8298 0
M  V30 11331 C 1074.04 3.56177 -3.23561 0
M  V30 11332 C 1076.39 3.58061 -3.78737 0
M  V30 11333 C 1073.72 3.65868 -4.58647 0
M  V30 11334 C 1076.07 3.69283 -5.13627 0
M  V30 11335 C 1074.73 3.7267 -5.53781 0
M  V30 11336 H 1074 0.672784 -0.310552 0
M  V30 11337 H 1076.65 1.3253 -1.38232 0
M  V30 11338 H 1074.95 3.84937 -0.730144 0
M  V30 11339 H 1076.65 3.84998 -1.12148 0
M  V30 11340 H 1073.24 3.47716 -2.50582 0
M  V30 11341 H 1077.42 3.53366 -3.48491 0
M  V30 11342 H 1072.68 3.66763 -4.89178 0
M  V30 11343 H 1076.85 3.73654 -5.8767 0
M  V30 11344 H 1074.48 3.79932 -6.58449 0
M  V30 11345 N 1076.06 0.894434 1.2976 0
M  V30 11346 C 1077.3 0.516646 1.95385 0
M  V30 11347 C 1077.63 -0.939141 1.70895 0
M  V30 11348 O 1076.9 -1.66153 1.03778 0
M  V30 11349 H 1075.48 0.188072 0.722937 0
M  V30 11350 H 1078.14 1.13958 1.58113 0
M  V30 11351 H 1077.23 0.694819 3.04267 0
M  V30 11352 N 1077.53 -1.43282 0.656365 0
M  V30 11353 C 1078.95 -1.56272 0.324213 0
M  V30 11354 C 1079.15 -1.63946 -1.1715 0
M  V30 11355 O 1078.21 -1.59625 -1.95643 0
M  V30 11356 C 1079.52 -2.82204 1.03833 0
M  V30 11357 C 1081.07 -2.95952 1.01889 0
M  V30 11358 C 1081.54 -4.2472 1.71397 0
M  V30 11359 N 1083.03 -4.31591 1.68176 0
M  V30 11360 C 1083.77 -5.30001 2.1883 0
M  V30 11361 N 1083.26 -6.34671 2.77785 0
M  V30 11362 N 1085.06 -5.21676 2.09311 0
M  V30 11363 H 1077.21 -1.36544 1.62694 0
M  V30 11364 H 1079.47 -0.655999 0.684375 0
M  V30 11365 H 1079.18 -2.82608 2.09346 0
M  V30 11366 H 1079.05 -3.72527 0.591878 0
M  V30 11367 H 1081.44 -2.95087 -0.0278431 0
M  V30 11368 H 1081.52 -2.0691 1.50406 0
M  V30 11369 H 1081.16 -4.26346 2.76028 0
M  V30 11370 H 1081.09 -5.12665 1.20342 0
M  V30 11371 H 1083.58 -3.56573 1.25157 0
M  V30 11372 H 1083.9 -7.06087 3.14104 0
M  V30 11373 H 1082.24 -6.35285 2.81847 0
M  V30 11374 H 1085.43 -4.3882 1.62955 0
M  V30 11375 H 1085.61 -5.9821 2.49095 0
M  V30 11376 N 1079.01 -0.398486 -1.52479 0
M  V30 11377 C 1080.24 0.180557 -2.06111 0
M  V30 11378 C 1080.66 1.39751 -1.26945 0
M  V30 11379 O 1080.01 1.79699 -0.318497 0
M  V30 11380 C 1080.06 0.541573 -3.5742 0
M  V30 11381 O 1079.79 -0.627043 -4.33589 0
M  V30 11382 C 1081.29 1.17549 -4.27431 0
M  V30 11383 H 1078.51 0.0250754 -0.670531 0
M  V30 11384 H 1081.05 -0.566368 -1.96501 0
M  V30 11385 H 1079.21 1.23839 -3.67073 0
M  V30 11386 H 1079.62 -0.328233 -5.23472 0
M  V30 11387 H 1081.09 1.37839 -5.34513 0
M  V30 11388 H 1081.57 2.14553 -3.83228 0
M  V30 11389 H 1082.18 0.51918 -4.22119 0
M  V30 11390 N 1080.49 1.57075 -0.12858 0
M  V30 11391 C 1081.74 1.9581 0.527868 0
M  V30 11392 C 1082.07 1.01253 1.65715 0
M  V30 11393 O 1081.35 0.0514853 1.94432 0
M  V30 11394 C 1081.63 3.44406 1.05151 0
M  V30 11395 C 1081.48 4.49737 -0.0750113 0
M  V30 11396 C 1082.8 3.95069 1.9393 0
M  V30 11397 H 1079.92 0.711978 0.19041 0
M  V30 11398 H 1082.56 1.88879 -0.206081 0
M  V30 11399 H 1080.71 3.50443 1.67697 0
M  V30 11400 H 1082.38 4.55793 -0.710685 0
M  V30 11401 H 1080.63 4.27497 -0.736809 0
M  V30 11402 H 1081.3 5.50996 0.332779 0
M  V30 11403 H 1083.77 3.91395 1.41241 0
M  V30 11404 H 1082.65 4.99542 2.27484 0
M  V30 11405 H 1082.91 3.36329 2.86941 0
M  V30 11406 N 1081.97 -0.145205 1.5693 0
M  V30 11407 C 1082.93 -1.16316 1.97492 0
M  V30 11408 C 1083.93 -1.35764 0.861668 0
M  V30 11409 O 1085.12 -1.32726 1.12825 0
M  V30 11410 C 1082.25 -2.52311 2.29242 0
M  V30 11411 H 1083.45 -0.815138 2.8861 0
M  V30 11412 H 1081 -0.38861 1.51392 0
M  V30 11413 H 1081.74 -2.92081 1.40922 0
M  V30 11414 H 1081.52 -2.39555 3.10412 0
M  V30 11415 H 1083.01 -3.25624 2.61456 0
M  V30 11416 N 1083.45 -1.52049 -0.414609 0
M  V30 11417 C 1084.7 -1.65067 -1.15912 0
M  V30 11418 C 1085.01 -0.383969 -1.91794 0
M  V30 11419 O 1086.22 -0.393872 -2.68628 0
M  V30 11420 C 1084.67 -2.91611 -2.1093 0
M  V30 11421 C 1084.28 -4.25369 -1.4059 0
M  V30 11422 C 1086.02 -3.13992 -2.85674 0
M  V30 11423 C 1083.93 -5.43041 -2.34223 0
M  V30 11424 H 1082.86 -0.614884 -0.436387 0
M  V30 11425 H 1085.51 -1.78533 -0.424072 0
M  V30 11426 H 1083.89 -2.71831 -2.87965 0
M  V30 11427 H 1085.07 -4.55611 -0.689568 0
M  V30 11428 H 1083.38 -4.09047 -0.779088 0
M  V30 11429 H 1085.98 -3.99082 -3.55861 0
M  V30 11430 H 1086.32 -2.27998 -3.48314 0
M  V30 11431 H 1086.86 -3.34217 -2.1574 0
M  V30 11432 H 1083.59 -6.31364 -1.76238 0
M  V30 11433 H 1083.11 -5.17144 -3.03845 0
M  V30 11434 H 1084.79 -5.75901 -2.94868 0
M  V30 11435 N 1084.93 0.6715 -1.42579 0
M  V30 11436 C 1085.87 1.78496 -1.46314 0
M  V30 11437 C 1086.84 1.63091 -0.314743 0
M  V30 11438 O 1088.03 1.83597 -0.519292 0
M  V30 11439 C 1085.17 3.16548 -1.37447 0
M  V30 11440 C 1084.28 3.43216 -2.62348 0
M  V30 11441 C 1083.42 4.71014 -2.456 0
M  V30 11442 C 1082.45 4.90728 -3.65859 0
M  V30 11443 N 1081.59 6.09769 -3.48032 0
M  V30 11444 H 1086.43 1.74638 -2.41466 0
M  V30 11445 H 1083.97 0.852491 -1.19879 0
M  V30 11446 H 1085.93 3.96329 -1.30303 0
M  V30 11447 H 1084.56 3.19522 -0.458891 0
M  V30 11448 H 1083.61 2.57664 -2.79846 0
M  V30 11449 H 1084.92 3.53675 -3.51732 0
M  V30 11450 H 1084.07 5.58892 -2.3606 0
M  V30 11451 H 1082.81 4.62843 -1.53712 0
M  V30 11452 H 1081.82 4.01291 -3.75827 0
M  V30 11453 H 1083.04 5.00741 -4.58732 0
M  V30 11454 H 1080.99 6.02765 -2.58864 0
M  V30 11455 H 1080.91 6.21104 -4.31005 0
M  V30 11456 H 1082.17 7.00317 -3.42311 0
M  V30 11457 N 1086.4 1.28806 0.908124 0
M  V30 11458 C 1087.81 1.14719 1.47297 0
M  V30 11459 C 1088.17 -0.260763 1.94459 0
M  V30 11460 O 1087.29 -1.15553 1.82966 0
M  V30 11461 C 1087.89 2.07643 2.67712 0
M  V30 11462 C 1086.44 1.97605 3.20358 0
M  V30 11463 C 1085.59 1.99058 1.93058 0
M  V30 11464 H 1088.54 1.41413 0.720283 0
M  V30 11465 H 1088.56 1.64372 3.43165 0
M  V30 11466 H 1088.08 3.10108 2.33355 0
M  V30 11467 H 1086.18 0.981982 3.59427 0
M  V30 11468 H 1086.29 2.84846 3.85226 0
M  V30 11469 H 1084.65 1.43541 2.104 0
M  V30 11470 H 1085.44 3.03212 1.60989 0
M  V30 11471 N 1087.88 -1.11734 1.11145 0
M  V30 11472 C 1089.29 -1.64928 0.874959 0
M  V30 11473 C 1089.64 -1.87012 -0.593375 0
M  V30 11474 O 1088.77 -1.60206 -1.45475 0
M  V30 11475 C 1089.36 -2.99608 1.58178 0
M  V30 11476 C 1087.92 -3.49723 1.39179 0
M  V30 11477 C 1087.07 -2.24595 1.62642 0
M  V30 11478 H 1090.02 -0.954154 1.26813 0
M  V30 11479 H 1090.04 -3.66434 1.02501 0
M  V30 11480 H 1089.55 -2.83504 2.65042 0
M  V30 11481 H 1087.65 -3.70998 0.345111 0
M  V30 11482 H 1087.77 -4.28711 2.13878 0
M  V30 11483 H 1086.13 -2.32067 1.04961 0
M  V30 11484 H 1086.91 -2.11036 2.70774 0
M  V30 11485 N 1089.36 -0.901303 -1.29284 0
M  V30 11486 C 1090.31 -0.378666 -2.27672 0
M  V30 11487 C 1091.28 0.540102 -1.57074 0
M  V30 11488 O 1092.46 0.464997 -1.85047 0
M  V30 11489 C 1089.6 0.38635 -3.42931 0
M  V30 11490 C 1088.71 -0.563496 -4.28309 0
M  V30 11491 C 1087.85 0.218731 -5.30749 0
M  V30 11492 C 1086.89 -0.725536 -6.07785 0
M  V30 11493 N 1086.03 0.0223854 -7.02096 0
M  V30 11494 H 1090.87 -1.22277 -2.71758 0
M  V30 11495 H 1088.4 -0.614302 -1.33659 0
M  V30 11496 H 1090.36 0.845967 -4.08533 0
M  V30 11497 H 1088.99 1.1949 -2.9987 0
M  V30 11498 H 1088.04 -1.14163 -3.62865 0
M  V30 11499 H 1089.35 -1.28623 -4.81931 0
M  V30 11500 H 1088.51 0.739473 -6.02177 0
M  V30 11501 H 1087.25 0.97459 -4.77863 0
M  V30 11502 H 1086.25 -1.25776 -5.3522 0
M  V30 11503 H 1087.48 -1.48075 -6.6276 0
M  V30 11504 H 1085.42 0.760482 -6.51577 0
M  V30 11505 H 1085.34 -0.640408 -7.53283 0
M  V30 11506 H 1086.61 0.523339 -7.77741 0
M  V30 11507 N 1090.84 1.42931 -0.663954 0
M  V30 11508 C 1092.08 2.03557 -0.185479 0
M  V30 11509 C 1092.44 1.51309 1.18193 0
M  V30 11510 O 1093.64 2.03649 1.75444 0
M  V30 11511 C 1091.91 3.56802 -0.206705 0
M  V30 11512 S 1093.47 4.38333 0.202356 0
M  V30 11513 H 1090.29 0.706791 -0.0772523 0
M  V30 11514 H 1092.89 1.74841 -0.874688 0
M  V30 11515 H 1091.6 3.92328 -1.20445 0
M  V30 11516 H 1091.13 3.90175 0.502693 0
M  V30 11517 H 1093.14 4.7489 1.43853 0
M  V30 11518 N 1092.32 0.406567 1.52266 0
M  V30 11519 C 1093.56 -0.1627 2.02748 0
M  V30 11520 C 1093.92 -1.43022 1.28695 0
M  V30 11521 O 1093.21 -1.87715 0.383881 0
M  V30 11522 C 1093.4 -0.467124 3.54334 0
M  V30 11523 C 1093.23 0.76934 4.4307 0
M  V30 11524 C 1092 1.29377 4.88456 0
M  V30 11525 C 1094.2 1.64671 4.87225 0
M  V30 11526 N 1092.18 2.48599 5.61313 0
M  V30 11527 C 1093.55 2.68519 5.58836 0
M  V30 11528 C 1095.61 1.66477 4.69244 0
M  V30 11529 C 1094.31 3.74081 6.14374 0
M  V30 11530 C 1096.34 2.70956 5.25677 0
M  V30 11531 C 1095.7 3.73525 5.97209 0
M  V30 11532 H 1091.8 -0.0211706 0.781713 0
M  V30 11533 H 1094.38 0.560338 1.86463 0
M  V30 11534 H 1092.55 -1.15921 3.70698 0
M  V30 11535 H 1094.29 -1.02505 3.91503 0
M  V30 11536 H 1091.04 0.85219 4.6587 0
M  V30 11537 H 1091.46 3.0897 6.02384 0
M  V30 11538 H 1096.11 0.88519 4.1343 0
M  V30 11539 H 1093.82 4.52896 6.69261 0
M  V30 11540 H 1097.41 2.73258 5.13635 0
M  V30 11541 H 1096.29 4.53043 6.40095 0
M  V30 11542 N 1093.79 -1.57004 0.136909 0
M  V30 11543 C 1095.02 -2.00156 -0.523936 0
M  V30 11544 C 1095.44 -1.01688 -1.59075 0
M  V30 11545 O 1094.79 -0.0123678 -1.82496 0
M  V30 11546 C 1094.85 -3.4326 -1.13379 0
M  V30 11547 O 1094.57 -4.37963 -0.109598 0
M  V30 11548 C 1096.07 -4.01637 -1.87623 0
M  V30 11549 H 1093.29 -0.65681 -0.137263 0
M  V30 11550 H 1095.83 -2.03219 0.228522 0
M  V30 11551 H 1093.99 -3.4108 -1.83693 0
M  V30 11552 H 1094.4 -5.21555 -0.55503 0
M  V30 11553 H 1095.87 -5.03795 -2.25597 0
M  V30 11554 H 1096.35 -3.41781 -2.75831 0
M  V30 11555 H 1096.96 -4.07417 -1.22031 0
M  V30 11556 N 1095.27 0.136881 -1.57004 0
M  V30 11557 C 1096.52 0.8461 -1.83536 0
M  V30 11558 C 1096.84 1.81246 -0.71937 0
M  V30 11559 O 1096.11 1.94191 0.258161 0
M  V30 11560 H 1094.69 0.315446 -0.677128 0
M  V30 11561 H 1097.35 0.128469 -1.94476 0
M  V30 11562 H 1096.45 1.40221 -2.78827 0
M  V30 11563 N 1096.75 1.52266 0.40654 0
M  V30 11564 C 1098.17 1.41127 0.745348 0
M  V30 11565 C 1098.37 0.517802 1.94733 0
M  V30 11566 O 1097.42 -0.0154286 2.52495 0
M  V30 11567 C 1098.74 2.83696 0.996859 0
M  V30 11568 C 1100.28 2.93056 1.09942 0
M  V30 11569 C 1100.76 4.36599 1.38367 0
M  V30 11570 N 1102.25 4.39845 1.45226 0
M  V30 11571 C 1102.98 5.47975 1.68852 0
M  V30 11572 N 1102.48 6.66219 1.90065 0
M  V30 11573 N 1104.27 5.35494 1.70888 0
M  V30 11574 H 1096.42 2.08888 -0.384632 0
M  V30 11575 H 1098.69 0.941619 -0.109809 0
M  V30 11576 H 1098.39 3.51208 0.185986 0
M  V30 11577 H 1098.27 3.24895 1.91632 0
M  V30 11578 H 1100.65 2.25723 1.90088 0
M  V30 11579 H 1100.74 2.5531 0.158256 0
M  V30 11580 H 1100.38 5.04492 0.587373 0
M  V30 11581 H 1100.31 4.71883 2.33739 0
M  V30 11582 H 1102.8 3.54611 1.30612 0
M  V30 11583 H 1103.11 7.44408 2.0755 0
M  V30 11584 H 1101.46 6.69279 1.87325 0
M  V30 11585 H 1104.65 4.42093 1.53856 0
M  V30 11586 H 1104.82 6.19837 1.88962 0
M  V30 11587 N 1098.23 -0.663929 1.42933 0
M  V30 11588 C 1099.48 -1.42393 1.43981 0
M  V30 11589 C 1099.8 -1.94407 0.0601802 0
M  V30 11590 O 1099.06 -1.72019 -0.933172 0
M  V30 11591 C 1099.36 -2.62976 2.4203 0
M  V30 11592 C 1099.02 -2.29441 3.88159 0
M  V30 11593 C 1097.69 -2.20007 4.27961 0
M  V30 11594 C 1100.04 -2.02413 4.8029 0
M  V30 11595 C 1097.37 -1.81686 5.57859 0
M  V30 11596 C 1099.72 -1.65592 6.10542 0
M  V30 11597 C 1098.38 -1.54676 6.49332 0
M  V30 11598 H 1097.65 -0.521051 0.526865 0
M  V30 11599 H 1100.3 -0.756042 1.75944 0
M  V30 11600 H 1098.6 -3.34847 2.03433 0
M  V30 11601 H 1100.3 -3.21174 2.40101 0
M  V30 11602 H 1096.89 -2.3769 3.56653 0
M  V30 11603 H 1101.07 -2.08628 4.5032 0
M  V30 11604 H 1096.33 -1.71812 5.86763 0
M  V30 11605 H 1100.5 -1.43707 6.81411 0
M  V30 11606 H 1098.13 -1.24752 7.49894 0
M  V30 11607 N 1099.71 -1.29285 -0.901281 0
M  V30 11608 C 1100.64 -1.16832 -2.0217 0
M  V30 11609 C 1101.62 -0.0629265 -1.69984 0
M  V30 11610 O 1102.8 -0.242123 -1.92685 0
M  V30 11611 C 1099.93 -0.842406 -3.36929 0
M  V30 11612 C 1098.89 -1.90394 -3.8332 0
M  V30 11613 C 1098.21 -1.43138 -5.15185 0
M  V30 11614 C 1099.51 -3.31254 -4.03817 0
M  V30 11615 H 1101.21 -2.10562 -2.12847 0
M  V30 11616 H 1098.75 -1.01375 -1.0227 0
M  V30 11617 H 1100.71 -0.741999 -4.14816 0
M  V30 11618 H 1099.43 0.130598 -3.26339 0
M  V30 11619 H 1098.09 -1.99371 -3.07647 0
M  V30 11620 H 1097.74 -0.447091 -5.01009 0
M  V30 11621 H 1097.44 -2.14129 -5.47195 0
M  V30 11622 H 1098.96 -1.34444 -5.95615 0
M  V30 11623 H 1100.37 -3.25129 -4.72191 0
M  V30 11624 H 1098.77 -4.00189 -4.47178 0
M  V30 11625 H 1099.84 -3.74349 -3.08206 0
M  V30 11626 N 1101.18 1.11143 -1.11736 0
M  V30 11627 C 1102.12 2.16467 -0.722299 0
M  V30 11628 C 1103.1 1.60118 0.283006 0
M  V30 11629 O 1104.28 1.87651 0.178696 0
M  V30 11630 C 1101.41 3.38632 -0.0679339 0
M  V30 11631 C 1100.45 4.13654 -1.03888 0
M  V30 11632 S 1101.29 4.70187 -2.5629 0
M  V30 11633 C 1102.44 5.95671 -1.92163 0
M  V30 11634 H 1102.67 2.49644 -1.61447 0
M  V30 11635 H 1100.21 1.22816 -0.935708 0
M  V30 11636 H 1102.17 4.09378 0.303253 0
M  V30 11637 H 1100.83 3.03709 0.80124 0
M  V30 11638 H 1100.02 5.01221 -0.528522 0
M  V30 11639 H 1099.62 3.48683 -1.35265 0
M  V30 11640 H 1101.91 6.65681 -1.25994 0
M  V30 11641 H 1102.86 6.51357 -2.77741 0
M  V30 11642 H 1103.26 5.47359 -1.3805 0
M  V30 11643 N 1102.66 0.908147 1.28804 0
M  V30 11644 C 1103.61 0.382315 2.29437 0
M  V30 11645 C 1104.6 -0.523033 1.61123 0
M  V30 11646 O 1105.81 -0.404898 1.75387 0
M  V30 11647 H 1102.19 0.105022 0.74463 0
M  V30 11648 H 1104.16 1.24425 2.71221 0
M  V30 11649 C 1102.91 -0.367475 3.45753 0
M  V30 11650 H 1102.23 0.319957 3.98518 0
M  V30 11651 H 1103.67 -0.700131 4.1818 0
M  V30 11652 C 1102.13 -1.57329 2.97908 0
M  V30 11653 O 1102.66 -2.67248 2.99902 0
M  V30 11654 N 1100.86 -1.41835 2.53636 0
M  V30 11655 H 1100.41 -0.524099 2.52212 0
M  V30 11656 H 1100.37 -2.22645 2.21984 0
M  V30 11657 N 1104.14 -1.42577 0.671525 0
M  V30 11658 C 1105.07 -2.33499 0.00506984 0
M  V30 11659 C 1106.05 -1.50497 -0.792763 0
M  V30 11660 O 1107.24 -1.79109 -0.750574 0
M  V30 11661 C 1104.37 -3.34077 -0.949194 0
M  V30 11662 C 1103.32 -4.27208 -0.260187 0
M  V30 11663 C 1102.65 -5.17968 -1.32716 0
M  V30 11664 C 1103.95 -5.15192 0.858772 0
M  V30 11665 H 1105.64 -2.89477 0.764407 0
M  V30 11666 H 1103.19 -1.39191 0.369043 0
M  V30 11667 H 1105.14 -3.96594 -1.42448 0
M  V30 11668 H 1103.86 -2.76396 -1.73991 0
M  V30 11669 H 1102.52 -3.66082 0.194834 0
M  V30 11670 H 1102.17 -4.56615 -2.10979 0
M  V30 11671 H 1101.87 -5.81104 -0.871293 0
M  V30 11672 H 1103.39 -5.83359 -1.80345 0
M  V30 11673 H 1104.81 -5.71412 0.464844 0
M  V30 11674 H 1103.21 -5.87144 1.24023 0
M  V30 11675 H 1104.28 -4.53787 1.70895 0
M  V30 11676 N 1105.62 -0.414636 -1.52048 0
M  V30 11677 C 1106.86 0.151945 -2.02832 0
M  V30 11678 C 1107.22 1.42337 -1.29452 0
M  V30 11679 O 1106.51 1.87509 -0.39383 0
M  V30 11680 C 1106.71 0.448327 -3.54577 0
M  V30 11681 C 1106.54 -0.792827 -4.42656 0
M  V30 11682 C 1105.31 -1.31966 -4.87763 0
M  V30 11683 C 1107.5 -1.67252 -4.86345 0
M  V30 11684 N 1105.49 -2.51572 -5.59986 0
M  V30 11685 C 1106.86 -2.71479 -5.57404 0
M  V30 11686 C 1108.91 -1.68963 -4.68354 0
M  V30 11687 C 1107.61 -3.77334 -6.12382 0
M  V30 11688 C 1109.64 -2.7374 -5.24233 0
M  V30 11689 C 1109 -3.76687 -5.95219 0
M  V30 11690 H 1105.1 0.0170247 -0.781815 0
M  V30 11691 H 1107.69 -0.570219 -1.86163 0
M  V30 11692 H 1105.86 1.13953 -3.71307 0
M  V30 11693 H 1107.59 1.00427 -3.92041 0
M  V30 11694 H 1104.34 -0.876885 -4.65411 0
M  V30 11695 H 1104.77 -3.12161 -6.00737 0
M  V30 11696 H 1109.41 -0.907103 -4.12955 0
M  V30 11697 H 1107.13 -4.56439 -6.6685 0
M  V30 11698 H 1110.71 -2.75978 -5.12179 0
M  V30 11699 H 1109.59 -4.56431 -6.37684 0
M  V30 11700 N 1107.1 1.56929 -0.145233 0
M  V30 11701 C 1108.06 2.15483 0.781002 0
M  V30 11702 C 1109.06 1.09617 1.17647 0
M  V30 11703 O 1110.25 1.35265 1.09768 0
M  V30 11704 C 1107.38 2.7165 2.05959 0
M  V30 11705 H 1108.57 2.98667 0.271685 0
M  V30 11706 H 1106.13 1.55952 0.1042 0
M  V30 11707 H 1106.86 1.92127 2.61262 0
M  V30 11708 H 1106.65 3.491 1.78526 0
M  V30 11709 H 1108.14 3.16769 2.72116 0
M  V30 11710 N 1108.58 -0.128553 1.57075 0
M  V30 11711 C 1109.82 -0.836536 1.83535 0
M  V30 11712 C 1110.14 -1.81491 0.7294 0
M  V30 11713 O 1111.34 -2.56838 0.880128 0
M  V30 11714 C 1109.8 -1.53836 3.25365 0
M  V30 11715 C 1109.41 -0.601454 4.43944 0
M  V30 11716 C 1111.15 -2.23204 3.61082 0
M  V30 11717 C 1109.06 -1.30596 5.768 0
M  V30 11718 H 1107.99 -0.316142 0.684522 0
M  V30 11719 H 1110.64 -0.0892555 1.83283 0
M  V30 11720 H 1109.02 -2.33192 3.20058 0
M  V30 11721 H 1110.2 0.158209 4.60528 0
M  V30 11722 H 1108.51 -0.0152393 4.16397 0
M  V30 11723 H 1111.11 -2.76585 4.57608 0
M  V30 11724 H 1111.45 -3.0056 2.88044 0
M  V30 11725 H 1111.98 -1.50746 3.68131 0
M  V30 11726 H 1108.72 -0.573874 6.52983 0
M  V30 11727 H 1108.24 -2.03787 5.6412 0
M  V30 11728 H 1109.92 -1.8418 6.20231 0
M  V30 11729 N 1110.05 -1.5248 -0.398459 0
M  V30 11730 C 1111.3 -1.67061 -1.14441 0
M  V30 11731 C 1111.63 -0.405821 -1.90219 0
M  V30 11732 O 1110.88 0.611532 -1.859 0
M  V30 11733 C 1111.18 -2.85038 -2.15611 0
M  V30 11734 C 1110.85 -4.22847 -1.56561 0
M  V30 11735 C 1109.51 -4.60329 -1.40182 0
M  V30 11736 C 1111.86 -5.08683 -1.1354 0
M  V30 11737 C 1109.19 -5.81314 -0.793149 0
M  V30 11738 C 1111.54 -6.30284 -0.540866 0
M  V30 11739 C 1110.21 -6.66505 -0.364297 0
M  V30 11740 H 1109.48 -0.611321 -0.418769 0
M  V30 11741 H 1112.12 -1.86604 -0.430241 0
M  V30 11742 H 1110.43 -2.59873 -2.93212 0
M  V30 11743 H 1112.13 -2.93516 -2.73221 0
M  V30 11744 H 1108.72 -3.93316 -1.70295 0
M  V30 11745 H 1112.9 -4.80301 -1.24999 0
M  V30 11746 H 1108.16 -6.07994 -0.64446 0
M  V30 11747 H 1112.33 -6.96115 -0.199167 0
M  V30 11748 H 1109.96 -7.60121 0.109439 0
M  V30 11749 N 1111.53 0.65634 -1.43283 0
M  V30 11750 C 1112.77 1.4281 -1.46235 0
M  V30 11751 C 1113.14 1.9182 -0.0830126 0
M  V30 11752 O 1114.34 2.68797 0.0127701 0
M  V30 11753 C 1112.61 2.58008 -2.47319 0
M  V30 11754 S 1114.17 3.46582 -2.69122 0
M  V30 11755 H 1110.98 0.487523 -0.517534 0
M  V30 11756 H 1113.59 0.762298 -1.80026 0
M  V30 11757 H 1112.29 2.20271 -3.46279 0
M  V30 11758 H 1111.82 3.29441 -2.15016 0
M  V30 11759 H 1113.84 4.54629 -1.98813 0
M  V30 11760 N 1113.01 1.29761 0.894412 0
M  V30 11761 C 1113.94 1.09666 2.00121 0
M  V30 11762 C 1114.92 0.00700077 1.62598 0
M  V30 11763 O 1116.1 0.158728 1.87831 0
M  V30 11764 C 1113.23 0.670588 3.31995 0
M  V30 11765 C 1112.28 1.75974 3.88504 0
M  V30 11766 S 1113.11 3.36013 4.1696 0
M  V30 11767 C 1114.27 2.95285 5.51867 0
M  V30 11768 H 1114.5 2.03369 2.1686 0
M  V30 11769 H 1112.03 1.13968 1.04166 0
M  V30 11770 H 1113.99 0.431481 4.08226 0
M  V30 11771 H 1112.65 -0.246924 3.13128 0
M  V30 11772 H 1111.84 1.41367 4.83768 0
M  V30 11773 H 1111.45 1.95264 3.1898 0
M  V30 11774 H 1113.74 2.42659 6.32553 0
M  V30 11775 H 1114.68 3.8942 5.91403 0
M  V30 11776 H 1115.09 2.33426 5.13977 0
M  V30 11777 N 1114.49 -1.10549 1.12324 0
M  V30 11778 C 1115.73 -1.82485 0.877817 0
M  V30 11779 C 1116.06 -1.85131 -0.596373 0
M  V30 11780 O 1115.32 -1.30675 -1.45679 0
M  V30 11781 C 1115.62 -3.28997 1.39626 0
M  V30 11782 C 1115.28 -3.465 2.88529 0
M  V30 11783 C 1113.94 -3.50984 3.29186 0
M  V30 11784 C 1116.3 -3.51991 3.84385 0
M  V30 11785 C 1113.62 -3.58525 4.6441 0
M  V30 11786 C 1115.98 -3.61065 5.19437 0
M  V30 11787 C 1114.64 -3.63813 5.5964 0
M  V30 11788 H 1113.91 -0.667758 0.321216 0
M  V30 11789 H 1116.56 -1.30314 1.40323 0
M  V30 11790 H 1114.86 -3.83726 0.791291 0
M  V30 11791 H 1116.56 -3.83165 1.18259 0
M  V30 11792 H 1113.15 -3.43686 2.56082 0
M  V30 11793 H 1117.33 -3.47777 3.54069 0
M  V30 11794 H 1112.59 -3.58934 4.94951 0
M  V30 11795 H 1116.76 -3.64257 5.9354 0
M  V30 11796 H 1114.39 -3.69409 6.6441 0
M  V30 11797 N 1115.97 -0.914965 -1.28321 0
M  V30 11798 C 1117.21 -0.555865 -1.96696 0
M  V30 11799 C 1117.57 0.8842 -1.70429 0
M  V30 11800 O 1118.77 1.35094 -2.32386 0
M  V30 11801 C 1117.04 -0.857942 -3.4695 0
M  V30 11802 S 1118.6 -0.605441 -4.34603 0
M  V30 11803 H 1115.42 -0.20564 -0.680612 0
M  V30 11804 H 1118.02 -1.18068 -1.55821 0
M  V30 11805 H 1116.72 -1.90394 -3.63563 0
M  V30 11806 H 1116.26 -0.221831 -3.92774 0
M  V30 11807 H 1118.27 0.542657 -4.93224 0
M  V30 11808 N 1117.44 1.42219 -0.679077 0
M  V30 11809 C 1118.37 2.33493 -0.0174528 0
M  V30 11810 C 1119.35 1.50915 0.78477 0
M  V30 11811 O 1120.54 1.79504 0.741065 0
M  V30 11812 C 1117.67 3.34576 0.931463 0
M  V30 11813 C 1116.62 4.2734 0.237527 0
M  V30 11814 C 1115.95 5.18664 1.29967 0
M  V30 11815 C 1117.25 5.14729 -0.886082 0
M  V30 11816 H 1118.94 2.89068 -0.779748 0
M  V30 11817 H 1116.49 1.38993 -0.376419 0
M  V30 11818 H 1118.44 3.97343 1.40343 0
M  V30 11819 H 1117.17 2.77315 1.72523 0
M  V30 11820 H 1115.83 3.65973 -0.214245 0
M  V30 11821 H 1115.47 4.57727 2.08554 0
M  V30 11822 H 1115.17 5.81558 0.840463 0
M  V30 11823 H 1116.7 5.84308 1.77249 0
M  V30 11824 H 1118.11 5.71158 -0.495141 0
M  V30 11825 H 1116.51 5.86478 -1.27135 0
M  V30 11826 H 1117.58 4.52874 -1.733 0
M  V30 11827 N 1118.92 0.422693 1.51826 0
M  V30 11828 C 1120.15 -0.15017 2.06856 0
M  V30 11829 C 1120.57 -1.36946 1.28948 0
M  V30 11830 O 1119.93 -1.78393 0.32338 0
M  V30 11831 C 1119.98 -0.465563 3.57582 0
M  V30 11832 O 1119.08 -1.55442 3.81984 0
M  V30 11833 H 1118.42 -0.00827931 0.663948 0
M  V30 11834 H 1120.95 0.599806 1.95611 0
M  V30 11835 H 1120.96 -0.720279 4.01592 0
M  V30 11836 H 1119.64 0.425679 4.13716 0
M  V30 11837 H 1118.21 -1.29081 3.49846 0
M  V30 11838 N 1120.4 -1.5685 0.153553 0
M  V30 11839 C 1121.63 -2.00701 -0.502678 0
M  V30 11840 C 1122.04 -1.0337 -1.57988 0
M  V30 11841 O 1121.4 -0.0317233 -1.82472 0
M  V30 11842 C 1121.45 -3.44443 -1.09732 0
M  V30 11843 O 1121.17 -4.38054 -0.0631405 0
M  V30 11844 C 1122.67 -4.03605 -1.83352 0
M  V30 11845 H 1119.89 -0.658229 -0.130289 0
M  V30 11846 H 1122.44 -2.02965 0.250063 0
M  V30 11847 H 1120.59 -3.43009 -1.80065 0
M  V30 11848 H 1121.01 -5.22114 -0.499681 0
M  V30 11849 H 1122.48 -5.0616 -2.20241 0
M  V30 11850 H 1122.96 -3.44687 -2.7219 0
M  V30 11851 H 1123.56 -4.08688 -1.17703 0
M  V30 11852 N 1121.88 0.120221 -1.57141 0
M  V30 11853 C 1123.11 0.841219 -1.88698 0
M  V30 11854 C 1123.52 1.7401 -0.74277 0
M  V30 11855 O 1122.86 1.81308 0.295497 0
M  V30 11856 C 1122.92 1.72781 -3.15257 0
M  V30 11857 C 1122.58 1.00336 -4.45849 0
M  V30 11858 C 1123.58 0.344734 -5.18756 0
M  V30 11859 C 1121.27 0.984899 -4.9255 0
M  V30 11860 C 1123.26 -0.322664 -6.36583 0
M  V30 11861 C 1120.95 0.313702 -6.10294 0
M  V30 11862 C 1121.95 -0.338926 -6.82159 0
M  V30 11863 O 1121.63 -0.999416 -7.97663 0
M  V30 11864 H 1121.37 0.247195 -0.629182 0
M  V30 11865 H 1123.92 0.109542 -2.05108 0
M  V30 11866 H 1122.15 2.5011 -2.94927 0
M  V30 11867 H 1123.84 2.32313 -3.32845 0
M  V30 11868 H 1124.6 0.350623 -4.83731 0
M  V30 11869 H 1120.48 1.4823 -4.36519 0
M  V30 11870 H 1124.03 -0.832643 -6.92613 0
M  V30 11871 H 1119.92 0.305572 -6.44776 0
M  V30 11872 H 1120.69 -0.90377 -8.13495 0
M  V30 11873 N 1123.36 1.52689 0.390367 0
M  V30 11874 C 1124.58 1.71541 1.15678 0
M  V30 11875 C 1125 0.433171 1.83764 0
M  V30 11876 O 1124.36 -0.592248 1.72623 0
M  V30 11877 C 1124.41 2.864 2.20584 0
M  V30 11878 O 1124.13 4.0966 1.55274 0
M  V30 11879 C 1125.63 3.1692 3.09962 0
M  V30 11880 H 1122.85 0.574381 0.346883 0
M  V30 11881 H 1125.39 1.99332 0.456851 0
M  V30 11882 H 1123.55 2.61075 2.86214 0
M  V30 11883 H 1123.96 4.73802 2.2497 0
M  V30 11884 H 1125.44 4.00755 3.79604 0
M  V30 11885 H 1125.91 2.31245 3.73393 0
M  V30 11886 H 1126.52 3.4408 2.49979 0
M  V30 11887 N 1124.83 -0.648732 1.43629 0
M  V30 11888 C 1125.8 -1.74331 1.488 0
M  V30 11889 C 1126.8 -1.56434 0.372147 0
M  V30 11890 O 1127.99 -1.6225 0.634078 0
M  V30 11891 C 1125.12 -3.13248 1.34494 0
M  V30 11892 H 1126.31 -1.71125 2.46285 0
M  V30 11893 H 1123.87 -0.860798 1.30461 0
M  V30 11894 H 1124.6 -3.22062 0.380345 0
M  V30 11895 H 1124.39 -3.27643 2.15389 0
M  V30 11896 H 1125.88 -3.93056 1.41055 0
M  V30 11897 N 1126.31 -1.30234 -0.887518 0
M  V30 11898 C 1127.26 -1.16302 -2.01436 0
M  V30 11899 C 1128.25 -0.0755422 -1.69231 0
M  V30 11900 O 1129.46 -0.236213 -1.78443 0
M  V30 11901 H 1125.84 -0.35961 -0.660443 0
M  V30 11902 H 1127.81 -2.11677 -2.10322 0
M  V30 11903 C 1126.56 -0.869009 -3.36665 0
M  V30 11904 H 1125.88 -1.69787 -3.61956 0
M  V30 11905 H 1127.32 -0.811621 -4.16159 0
M  V30 11906 C 1125.78 0.428021 -3.3417 0
M  V30 11907 O 1126.31 1.45033 -3.74604 0
M  V30 11908 N 1124.51 0.438264 -2.87276 0
M  V30 11909 H 1124.06 -0.394142 -2.54567 0
M  V30 11910 H 1124.02 1.30604 -2.85989 0
M  V30 11911 N 1127.79 1.09952 -1.12909 0
M  V30 11912 C 1128.72 2.18477 -0.824014 0
M  V30 11913 C 1129.7 1.68744 0.214324 0
M  V30 11914 O 1130.89 1.94057 0.0744281 0
M  V30 11915 C 1128.02 3.46143 -0.283308 0
M  V30 11916 C 1126.97 4.09178 -1.25528 0
M  V30 11917 C 1126.3 5.31604 -0.574574 0
M  V30 11918 C 1127.6 4.52308 -2.6118 0
M  V30 11919 H 1129.29 2.44254 -1.73148 0
M  V30 11920 H 1126.84 1.17394 -0.833952 0
M  V30 11921 H 1128.79 4.21361 -0.057583 0
M  V30 11922 H 1127.51 3.19872 0.659525 0
M  V30 11923 H 1126.17 3.35973 -1.4669 0
M  V30 11924 H 1125.82 5.01611 0.37356 0
M  V30 11925 H 1125.52 5.74732 -1.22299 0
M  V30 11926 H 1127.04 6.0955 -0.358004 0
M  V30 11927 H 1128.46 5.18776 -2.44017 0
M  V30 11928 H 1126.86 5.06302 -3.22147 0
M  V30 11929 H 1127.93 3.64977 -3.19249 0
M  V30 11930 N 1129.27 0.921757 1.27833 0
M  V30 11931 C 1130.23 0.420978 2.25301 0
M  V30 11932 C 1131.23 -0.457158 1.54165 0
M  V30 11933 O 1132.42 -0.259079 1.72263 0
M  V30 11934 C 1129.55 -0.395501 3.38598 0
M  V30 11935 H 1130.75 1.28206 2.71115 0
M  V30 11936 H 1128.3 0.701893 1.39654 0
M  V30 11937 H 1129.03 -1.27565 2.98157 0
M  V30 11938 H 1128.82 0.234029 3.91401 0
M  V30 11939 H 1130.31 -0.736444 4.11055 0
M  V30 11940 N 1130.75 -1.41857 0.686609 0
M  V30 11941 C 1131.71 -2.29187 0.0247022 0
M  V30 11942 C 1132.71 -1.43926 -0.717069 0
M  V30 11943 O 1133.9 -1.65179 -0.5533 0
M  V30 11944 C 1131.03 -3.26644 -0.975537 0
M  V30 11945 H 1132.22 -2.89212 0.793503 0
M  V30 11946 H 1129.78 -1.49694 0.449605 0
M  V30 11947 H 1130.51 -2.7158 -1.77242 0
M  V30 11948 H 1130.3 -3.89545 -0.446892 0
M  V30 11949 H 1131.79 -3.92107 -1.43673 0
M  V30 11950 N 1132.22 -0.430739 -1.51599 0
M  V30 11951 C 1133.47 0.138133 -2.02329 0
M  V30 11952 C 1133.8 1.42934 -1.31466 0
M  V30 11953 O 1133.08 1.89743 -0.427551 0
M  V30 11954 C 1133.36 0.363677 -3.58259 0
M  V30 11955 C 1133.21 -0.94572 -4.39746 0
M  V30 11956 C 1134.53 1.13637 -4.25176 0
M  V30 11957 H 1131.65 0.0487287 -0.735387 0
M  V30 11958 H 1134.29 -0.568444 -1.81297 0
M  V30 11959 H 1132.44 0.965552 -3.7631 0
M  V30 11960 H 1134.12 -1.58107 -4.33359 0
M  V30 11961 H 1132.36 -1.55183 -4.05094 0
M  V30 11962 H 1133.03 -0.742031 -5.4699 0
M  V30 11963 H 1135.51 0.626608 -4.11355 0
M  V30 11964 H 1134.38 1.26294 -5.34173 0
M  V30 11965 H 1134.64 2.16273 -3.85588 0
M  V30 11966 N 1133.7 1.56767 -0.161869 0
M  V30 11967 C 1134.64 2.13321 0.810527 0
M  V30 11968 C 1135.61 1.06073 1.23237 0
M  V30 11969 O 1136.8 1.33993 1.32583 0
M  V30 11970 C 1133.92 2.66506 2.09027 0
M  V30 11971 C 1132.97 3.86038 1.8132 0
M  V30 11972 S 1133.8 5.26253 0.990873 0
M  V30 11973 C 1134.96 5.82837 2.28149 0
M  V30 11974 H 1135.19 2.95467 0.32965 0
M  V30 11975 H 1132.73 1.5431 0.052655 0
M  V30 11976 H 1134.68 2.97797 2.82537 0
M  V30 11977 H 1133.34 1.84463 2.54229 0
M  V30 11978 H 1132.54 4.21547 2.7625 0
M  V30 11979 H 1132.14 3.55585 1.1591 0
M  V30 11980 H 1134.43 5.95175 3.23686 0
M  V30 11981 H 1135.37 6.80109 1.97123 0
M  V30 11982 H 1135.78 5.11186 2.39477 0
M  V30 11983 N 1135.18 -0.111886 1.57202 0
M  V30 11984 C 1136.43 -0.819623 1.85499 0
M  V30 11985 C 1136.76 -1.7919 0.748629 0
M  V30 11986 O 1136.03 -1.92952 -0.244918 0
M  V30 11987 C 1136.32 -1.56324 3.24399 0
M  V30 11988 C 1136.17 -0.610081 4.45643 0
M  V30 11989 C 1137.49 -2.51777 3.60966 0
M  V30 11990 H 1134.61 -0.296512 0.674722 0
M  V30 11991 H 1137.25 -0.0836741 1.89816 0
M  V30 11992 H 1135.4 -2.1906 3.2085 0
M  V30 11993 H 1137.07 0.00898038 4.61299 0
M  V30 11994 H 1135.32 0.0778488 4.3373 0
M  V30 11995 H 1135.99 -1.16718 5.39519 0
M  V30 11996 H 1138.46 -1.99143 3.65351 0
M  V30 11997 H 1137.34 -3.00835 4.59118 0
M  V30 11998 H 1137.6 -3.34769 2.8876 0
M  V30 11999 N 1136.66 -1.52894 -0.382264 0
M  V30 12000 C 1137.91 -1.67933 -1.1244 0
M  V30 12001 C 1138.23 -0.425166 -1.90309 0
M  V30 12002 O 1137.5 0.560557 -1.87709 0
M  V30 12003 H 1136.08 -0.619047 -0.418079 0
M  V30 12004 H 1138.74 -1.90031 -0.432928 0
M  V30 12005 H 1137.84 -2.53285 -1.82355 0
M  V30 12006 N 1138.14 0.641106 -1.43971 0
M  V30 12007 C 1139.05 1.78239 -1.52538 0
M  V30 12008 C 1140.06 1.6906 -0.411668 0
M  V30 12009 O 1141.24 1.90014 -0.66757 0
M  V30 12010 C 1138.3 3.14579 -1.45743 0
M  V30 12011 C 1137.37 3.35464 -2.67885 0
M  V30 12012 C 1136.6 4.65299 -2.61404 0
M  V30 12013 O 1136.82 5.45451 -1.66851 0
M  V30 12014 O 1135.76 4.8817 -3.521 0
M  V30 12015 H 1139.58 1.73965 -2.48937 0
M  V30 12016 H 1137.17 0.801098 -1.26106 0
M  V30 12017 H 1139.05 3.95873 -1.4444 0
M  V30 12018 H 1137.72 3.19417 -0.524837 0
M  V30 12019 H 1136.63 2.53888 -2.74758 0
M  V30 12020 H 1137.96 3.35481 -3.60157 0
M  V30 12021 N 1139.62 1.30703 0.880598 0
M  V30 12022 C 1140.56 1.17455 1.98678 0
M  V30 12023 C 1141.53 0.0629569 1.65981 0
M  V30 12024 O 1142.72 0.233926 1.89361 0
M  V30 12025 C 1139.86 0.876882 3.33774 0
M  V30 12026 C 1138.97 2.07078 3.79134 0
M  V30 12027 C 1138.11 1.71082 5.02896 0
M  V30 12028 C 1137.14 2.86942 5.40676 0
M  V30 12029 N 1136.28 2.51212 6.55619 0
M  V30 12030 H 1141.12 2.12086 2.09341 0
M  V30 12031 H 1138.66 1.05514 1.02495 0
M  V30 12032 H 1140.62 0.684899 4.1154 0
M  V30 12033 H 1139.25 -0.0325633 3.22784 0
M  V30 12034 H 1138.3 2.37388 2.97239 0
M  V30 12035 H 1139.61 2.9383 4.0307 0
M  V30 12036 H 1138.76 1.48284 5.883 0
M  V30 12037 H 1137.5 0.815064 4.80841 0
M  V30 12038 H 1136.51 3.10401 4.53797 0
M  V30 12039 H 1137.73 3.77211 5.64703 0
M  V30 12040 H 1135.68 1.64147 6.35131 0
M  V30 12041 H 1135.6 3.31495 6.79446 0
M  V30 12042 H 1136.86 2.31781 7.44243 0
M  V30 12043 N 1141.09 -1.09351 1.1349 0
M  V30 12044 C 1142.34 -1.80915 0.89177 0
M  V30 12045 C 1142.66 -1.86688 -0.5837 0
M  V30 12046 O 1143.86 -2.54568 -0.943788 0
M  V30 12047 C 1142.32 -3.25009 1.54587 0
M  V30 12048 C 1141.93 -3.27501 3.05691 0
M  V30 12049 C 1143.67 -4.01323 1.38346 0
M  V30 12050 C 1141.58 -4.66123 3.63983 0
M  V30 12051 H 1140.51 -0.677961 0.329978 0
M  V30 12052 H 1143.16 -1.22893 1.3627 0
M  V30 12053 H 1141.54 -3.83098 1.0026 0
M  V30 12054 H 1142.71 -2.79174 3.66604 0
M  V30 12055 H 1141.03 -2.64677 3.21457 0
M  V30 12056 H 1143.63 -5.03739 1.79307 0
M  V30 12057 H 1143.97 -4.15003 0.328404 0
M  V30 12058 H 1144.5 -3.49679 1.89656 0
M  V30 12059 H 1141.24 -4.57646 4.69298 0
M  V30 12060 H 1140.76 -5.14772 3.07848 0
M  V30 12061 H 1142.44 -5.35097 3.63703 0
M  V30 12062 N 1142.57 -0.928524 -1.27343 0
M  V30 12063 C 1143.8 -0.584884 -1.98148 0
M  V30 12064 C 1144.21 0.841603 -1.69451 0
M  V30 12065 O 1143.55 1.57104 -0.952053 0
M  V30 12066 C 1143.61 -0.731911 -3.51971 0
M  V30 12067 C 1143.28 -2.13067 -4.04291 0
M  V30 12068 C 1144.28 -3.10492 -4.17002 0
M  V30 12069 C 1141.96 -2.44784 -4.38619 0
M  V30 12070 C 1143.95 -4.37742 -4.63315 0
M  V30 12071 C 1141.64 -3.72269 -4.84622 0
M  V30 12072 C 1142.64 -4.68562 -4.9693 0
M  V30 12073 O 1142.33 -5.93779 -5.41924 0
M  V30 12074 H 1142.06 -0.220347 -0.63908 0
M  V30 12075 H 1144.61 -1.24799 -1.63139 0
M  V30 12076 H 1142.84 -0.0116966 -3.86698 0
M  V30 12077 H 1144.53 -0.393206 -4.03991 0
M  V30 12078 H 1145.3 -2.8731 -3.9074 0
M  V30 12079 H 1141.18 -1.70577 -4.28281 0
M  V30 12080 H 1144.72 -5.12905 -4.72836 0
M  V30 12081 H 1140.62 -3.95269 -5.10326 0
M  V30 12082 H 1141.39 -5.96779 -5.60176 0
M  V30 12083 N 1144.05 1.41491 -0.694123 0
M  V30 12084 C 1144.96 2.34583 -0.0283414 0
M  V30 12085 C 1145.98 1.5615 0.767662 0
M  V30 12086 O 1147.15 1.88637 0.705556 0
M  V30 12087 C 1144.22 3.34876 0.897726 0
M  V30 12088 C 1143.28 4.29197 0.0940905 0
M  V30 12089 C 1142.51 5.24699 0.976051 0
M  V30 12090 O 1142.73 5.25613 2.21556 0
M  V30 12091 O 1141.67 6.00387 0.426503 0
M  V30 12092 H 1145.49 2.93092 -0.795656 0
M  V30 12093 H 1143.08 1.4232 -0.45445 0
M  V30 12094 H 1144.96 3.96438 1.4288 0
M  V30 12095 H 1143.64 2.78812 1.64456 0
M  V30 12096 H 1142.54 3.70988 -0.481552 0
M  V30 12097 H 1143.88 4.88355 -0.614045 0
M  V30 12098 N 1145.53 0.438773 1.51369 0
M  V30 12099 C 1146.44 -0.378074 2.31534 0
M  V30 12100 C 1147.45 -1.02632 1.40508 0
M  V30 12101 O 1148.63 -1.02138 1.73579 0
M  V30 12102 C 1145.69 -1.46374 3.14286 0
M  V30 12103 C 1144.76 -0.835473 4.21092 0
M  V30 12104 C 1143.99 -1.86941 4.99889 0
M  V30 12105 O 1144.21 -3.0918 4.79337 0
M  V30 12106 O 1143.15 -1.45914 5.83946 0
M  V30 12107 H 1146.97 0.276401 3.0244 0
M  V30 12108 H 1144.56 0.201281 1.48038 0
M  V30 12109 H 1146.44 -2.09335 3.65728 0
M  V30 12110 H 1145.11 -2.10227 2.46143 0
M  V30 12111 H 1144.02 -0.167775 3.73724 0
M  V30 12112 H 1145.35 -0.240406 4.91613 0
M  V30 12113 N 1147.01 -1.56678 0.170181 0
M  V30 12114 C 1147.94 -2.20916 -0.756213 0
M  V30 12115 C 1148.92 -1.16442 -1.23997 0
M  V30 12116 O 1150.1 -1.44867 -1.29333 0
M  V30 12117 C 1147.23 -2.84901 -1.98617 0
M  V30 12118 C 1146.19 -3.95403 -1.63831 0
M  V30 12119 C 1145.51 -4.46432 -2.94282 0
M  V30 12120 C 1146.81 -5.15051 -0.867195 0
M  V30 12121 H 1148.51 -2.98585 -0.220776 0
M  V30 12122 H 1146.05 -1.43619 -0.104748 0
M  V30 12123 H 1148 -3.28514 -2.63926 0
M  V30 12124 H 1146.73 -2.04598 -2.54572 0
M  V30 12125 H 1145.39 -3.52444 -1.00891 0
M  V30 12126 H 1145.04 -3.62923 -3.48276 0
M  V30 12127 H 1144.74 -5.20979 -2.71762 0
M  V30 12128 H 1146.26 -4.92731 -3.60622 0
M  V30 12129 H 1147.67 -5.55363 -1.42285 0
M  V30 12130 H 1146.07 -5.95507 -0.741065 0
M  V30 12131 H 1147.14 -4.84707 0.136693 0
M  V30 12132 N 1148.48 0.103547 -1.57259 0
M  V30 12133 C 1149.71 0.82624 -1.90232 0
M  V30 12134 C 1150.13 1.71902 -0.763641 0
M  V30 12135 O 1149.49 1.79043 0.285181 0
M  V30 12136 C 1149.54 1.62265 -3.22029 0
M  V30 12137 O 1148.64 2.73091 -3.09023 0
M  V30 12138 H 1147.98 0.227528 -0.6238 0
M  V30 12139 H 1150.51 0.081307 -2.04438 0
M  V30 12140 H 1150.52 2.00865 -3.5513 0
M  V30 12141 H 1149.2 0.967383 -4.04493 0
M  V30 12142 H 1147.78 2.3758 -2.8742 0
M  V30 12143 N 1149.96 1.53094 0.37415 0
M  V30 12144 C 1151.21 1.68527 1.11548 0
M  V30 12145 C 1151.53 0.435253 1.9008 0
M  V30 12146 O 1150.8 -0.550594 1.88003 0
M  V30 12147 H 1149.38 0.621255 0.41479 0
M  V30 12148 H 1152.04 1.90258 0.422844 0
M  V30 12149 H 1151.14 2.54248 1.81009 0
M  V30 12150 N 1151.44 -0.633461 1.44309 0
M  V30 12151 C 1152.69 -1.38902 1.4625 0
M  V30 12152 C 1153 -1.95354 0.0980699 0
M  V30 12153 O 1154.21 -2.715 -0.0049983 0
M  V30 12154 C 1152.66 -2.51477 2.57463 0
M  V30 12155 C 1152.27 -2.01549 4.00103 0
M  V30 12156 C 1154.02 -3.28698 2.68622 0
M  V30 12157 C 1151.92 -3.11452 5.02744 0
M  V30 12158 H 1150.85 -0.521976 0.544112 0
M  V30 12159 H 1153.5 -0.681725 1.70367 0
M  V30 12160 H 1151.89 -3.24771 2.26582 0
M  V30 12161 H 1153.06 -1.35135 4.4054 0
M  V30 12162 H 1151.37 -1.3715 3.93165 0
M  V30 12163 H 1153.97 -4.10624 3.42479 0
M  V30 12164 H 1154.31 -3.78027 1.7436 0
M  V30 12165 H 1154.85 -2.62494 2.98901 0
M  V30 12166 H 1151.59 -2.6707 5.98627 0
M  V30 12167 H 1151.11 -3.76514 4.66902 0
M  V30 12168 H 1152.79 -3.76265 5.2634 0
M  V30 12169 N 1152.92 -1.31168 -0.873655 0
M  V30 12170 C 1153.87 -1.15107 -1.9681 0
M  V30 12171 C 1154.85 -0.0630813 -1.60776 0
M  V30 12172 O 1156.04 -0.28761 -1.74648 0
M  V30 12173 C 1153.17 -0.856705 -3.32439 0
M  V30 12174 C 1152.26 -1.9855 -3.74752 0
M  V30 12175 N 1152.65 -3.23213 -3.89059 0
M  V30 12176 C 1150.95 -1.8844 -4.04235 0
M  V30 12177 C 1151.65 -3.97026 -4.25141 0
M  V30 12178 N 1150.63 -3.25165 -4.35624 0
M  V30 12179 H 1154.43 -2.09643 -2.05978 0
M  V30 12180 H 1151.94 -1.22672 -1.06421 0
M  V30 12181 H 1153.94 -0.722635 -4.10589 0
M  V30 12182 H 1152.6 0.0804676 -3.246 0
M  V30 12183 H 1153.61 -3.58372 -3.73885 0
M  V30 12184 H 1150.29 -1.02164 -4.04807 0
M  V30 12185 H 1151.68 -5.04437 -4.43839 0
M  V30 12186 N 1154.4 1.08748 -1.14068 0
M  V30 12187 C 1155.67 1.7769 -0.81766 0
M  V30 12188 C 1156.05 1.99522 0.689501 0
M  V30 12189 O 1155.4 1.60222 1.62914 0
M  V30 12190 C 1155.61 3.09517 -1.61245 0
M  V30 12191 C 1156.96 3.84108 -1.80958 0
M  V30 12192 O 1157.98 3.19289 -1.57902 0
M  V30 12193 O 1156.84 5.00491 -2.19479 0
M  V30 12194 H 1153.94 0.770953 -0.299265 0
M  V30 12195 H 1156.48 1.15242 -1.24569 0
M  V30 12196 H 1155.25 2.89155 -2.63638 0
M  V30 12197 H 1154.88 3.79692 -1.17982 0
M  V30 12198 N 1155.87 0.935264 1.26849 0
M  V30 12199 C 1157.29 0.623198 1.75992 0
M  V30 12200 C 1157.64 -0.861647 1.76267 0
M  V30 12201 O 1156.76 -1.6743 1.37099 0
M  V30 12202 C 1157.36 1.12451 3.19594 0
M  V30 12203 C 1155.92 0.862974 3.66374 0
M  V30 12204 C 1155.06 1.27886 2.4605 0
M  V30 12205 H 1158.01 1.11422 1.13008 0
M  V30 12206 H 1158.03 0.475626 3.77516 0
M  V30 12207 H 1157.55 2.20522 3.19361 0
M  V30 12208 H 1155.65 -0.203606 3.72043 0
M  V30 12209 H 1155.76 1.48582 4.55478 0
M  V30 12210 H 1154.12 0.697335 2.44968 0
M  V30 12211 H 1154.91 2.36837 2.48522 0
M  V30 12212 N 1157.35 -1.41121 0.701616 0
M  V30 12213 C 1158.3 -2.30765 0.040121 0
M  V30 12214 C 1159.27 -1.47436 -0.764975 0
M  V30 12215 O 1160.45 -1.76209 -0.731775 0
M  V30 12216 C 1157.59 -3.33535 -0.885903 0
M  V30 12217 C 1156.71 -4.3194 -0.0717765 0
M  V30 12218 C 1155.84 -5.21779 -0.995996 0
M  V30 12219 C 1154.88 -6.11849 -0.175133 0
M  V30 12220 N 1154.02 -6.94151 -1.05348 0
M  V30 12221 H 1158.86 -2.86772 0.810312 0
M  V30 12222 H 1156.4 -1.41233 0.411301 0
M  V30 12223 H 1158.35 -3.91675 -1.4369 0
M  V30 12224 H 1156.98 -2.79065 -1.62243 0
M  V30 12225 H 1156.04 -3.75698 0.596221 0
M  V30 12226 H 1157.35 -4.95597 0.56435 0
M  V30 12227 H 1156.5 -5.84782 -1.61601 0
M  V30 12228 H 1155.24 -4.58363 -1.66597 0
M  V30 12229 H 1154.25 -5.4789 0.457916 0
M  V30 12230 H 1155.47 -6.77322 0.491133 0
M  V30 12231 H 1153.42 -6.33338 -1.70936 0
M  V30 12232 H 1153.33 -7.54518 -0.473065 0
M  V30 12233 H 1154.6 -7.61617 -1.66012 0
M  V30 12234 N 1158.83 -0.446794 -1.51134 0
M  V30 12235 C 1159.76 0.350229 -2.30858 0
M  V30 12236 C 1160.74 1.0125 -1.36684 0
M  V30 12237 O 1161.93 1.01433 -1.65605 0
M  V30 12238 C 1159.06 1.4464 -3.15748 0
M  V30 12239 C 1158.01 0.907102 -4.18277 0
M  V30 12240 C 1157.34 2.09974 -4.91747 0
M  V30 12241 C 1158.64 -0.0649758 -5.2226 0
M  V30 12242 H 1160.33 -0.315105 -2.97737 0
M  V30 12243 H 1157.88 -0.152985 -1.43185 0
M  V30 12244 H 1159.83 2.01127 -3.70305 0
M  V30 12245 H 1158.55 2.14016 -2.46708 0
M  V30 12246 H 1157.21 0.364382 -3.64785 0
M  V30 12247 H 1156.86 2.77991 -4.19202 0
M  V30 12248 H 1156.56 1.74523 -5.61084 0
M  V30 12249 H 1158.08 2.66996 -5.49131 0
M  V30 12250 H 1159.5 0.4099 -5.71833 0
M  V30 12251 H 1157.9 -0.332529 -5.99178 0
M  V30 12252 H 1158.97 -0.998681 -4.74504 0
M  V30 12253 N 1160.31 1.56586 -0.178487 0
M  V30 12254 C 1161.26 2.1491 0.761432 0
M  V30 12255 C 1162.24 1.08528 1.18788 0
M  V30 12256 O 1163.43 1.34633 1.14904 0
M  V30 12257 C 1160.56 2.79902 1.98771 0
M  V30 12258 C 1159.65 3.93452 1.58293 0
M  V30 12259 N 1160.04 4.97942 0.888124 0
M  V30 12260 C 1158.34 4.04745 1.87343 0
M  V30 12261 C 1159.04 5.7762 0.68772 0
M  V30 12262 N 1158.02 5.2947 1.23136 0
M  V30 12263 H 1161.82 2.93063 0.221693 0
M  V30 12264 H 1159.33 1.62385 0.0219283 0
M  V30 12265 H 1161.33 3.20067 2.67138 0
M  V30 12266 H 1159.99 2.03232 2.53233 0
M  V30 12267 H 1161 5.1502 0.545387 0
M  V30 12268 H 1157.68 3.39186 2.43432 0
M  V30 12269 H 1159.07 6.71759 0.13775 0
M  V30 12270 N 1161.79 -0.095206 1.57312 0
M  V30 12271 C 1162.74 -1.12188 1.98489 0
M  V30 12272 C 1163.72 -1.35778 0.863317 0
M  V30 12273 O 1164.91 -1.36471 1.12715 0
M  V30 12274 C 1162.04 -2.44214 2.41277 0
M  V30 12275 C 1161.13 -2.23998 3.60119 0
M  V30 12276 N 1161.52 -1.7365 4.75057 0
M  V30 12277 C 1159.82 -2.54565 3.66214 0
M  V30 12278 C 1160.52 -1.67702 5.57002 0
M  V30 12279 N 1159.49 -2.12912 5.00169 0
M  V30 12280 H 1163.3 -0.725545 2.84804 0
M  V30 12281 H 1160.81 -0.302634 1.59555 0
M  V30 12282 H 1162.81 -3.185 2.69004 0
M  V30 12283 H 1161.47 -2.84585 1.56339 0
M  V30 12284 H 1162.48 -1.42849 4.9781 0
M  V30 12285 H 1159.15 -2.98461 2.91937 0
M  V30 12286 H 1160.54 -1.29827 6.59238 0
M  V30 12287 N 1163.26 -1.53291 -0.366026 0
M  V30 12288 C 1164.68 -1.61144 -0.942849 0
M  V30 12289 C 1165.03 -0.478571 -1.90274 0
M  V30 12290 O 1164.15 0.395069 -2.12763 0
M  V30 12291 C 1164.75 -2.92081 -1.71681 0
M  V30 12292 C 1163.31 -3.0227 -2.24298 0
M  V30 12293 C 1162.45 -2.56436 -1.05526 0
M  V30 12294 H 1165.4 -1.58038 -0.144835 0
M  V30 12295 H 1165.42 -2.79858 -2.57798 0
M  V30 12296 H 1164.94 -3.74513 -1.01793 0
M  V30 12297 H 1163.04 -2.24425 -2.97429 0
M  V30 12298 H 1163.15 -4.07341 -2.5221 0
M  V30 12299 H 1161.51 -2.11301 -1.42211 0
M  V30 12300 H 1162.3 -3.41285 -0.371376 0
M  V30 12301 N 1164.74 0.6258 -1.44643 0
M  V30 12302 C 1165.97 1.41726 -1.51422 0
M  V30 12303 C 1166.39 1.87565 -0.14181 0
M  V30 12304 O 1165.75 1.59059 0.870054 0
M  V30 12305 C 1165.8 2.61012 -2.48807 0
M  V30 12306 O 1164.9 3.61029 -1.99328 0
M  V30 12307 H 1164.24 0.423855 -0.511119 0
M  V30 12308 H 1166.77 0.763336 -1.89827 0
M  V30 12309 H 1166.78 3.08489 -2.67018 0
M  V30 12310 H 1165.46 2.26995 -3.48491 0
M  V30 12311 H 1164.04 3.20325 -1.90909 0
M  V30 12312 N 1166.22 1.31629 0.866686 0
M  V30 12313 C 1167.15 1.15377 1.98042 0
M  V30 12314 C 1168.17 0.0919633 1.6254 0
M  V30 12315 O 1169.35 0.339775 1.75236 0
M  V30 12316 C 1166.45 0.741295 3.30693 0
M  V30 12317 C 1165.63 1.88882 3.94516 0
M  V30 12318 C 1164.69 1.46186 5.05486 0
M  V30 12319 O 1163.71 2.17202 5.26129 0
M  V30 12320 N 1164.91 0.351096 5.79437 0
M  V30 12321 H 1167.68 2.11309 2.12529 0
M  V30 12322 H 1165.24 1.24007 1.04085 0
M  V30 12323 H 1167.23 0.438313 4.02319 0
M  V30 12324 H 1165.8 -0.12651 3.12344 0
M  V30 12325 H 1165.02 2.35894 3.15828 0
M  V30 12326 H 1166.31 2.65734 4.33892 0
M  V30 12327 H 1165.71 -0.240245 5.6519 0
M  V30 12328 H 1164.27 0.107663 6.51711 0
M  V30 12329 N 1167.7 -1.08142 1.14644 0
M  V30 12330 C 1168.95 -1.80225 0.914517 0
M  V30 12331 C 1169.27 -1.86778 -0.560269 0
M  V30 12332 O 1168.54 -1.36284 -1.40724 0
M  V30 12333 H 1167.12 -0.667492 0.335356 0
M  V30 12334 H 1169.78 -1.30729 1.44554 0
M  V30 12335 H 1168.88 -2.82958 1.31685 0
M  V30 12336 N 1169.18 -0.941978 -1.26351 0
M  V30 12337 C 1170.42 -0.589971 -1.93715 0
M  V30 12338 C 1170.75 0.871085 -1.73903 0
M  V30 12339 O 1170.01 1.63864 -1.06991 0
M  V30 12340 C 1170.31 -0.879481 -3.4641 0
M  V30 12341 C 1169.97 -2.32454 -3.86362 0
M  V30 12342 C 1168.63 -2.71957 -3.9698 0
M  V30 12343 C 1170.99 -3.2636 -4.06373 0
M  V30 12344 C 1168.31 -4.04459 -4.25006 0
M  V30 12345 C 1170.67 -4.58459 -4.35887 0
M  V30 12346 C 1169.33 -4.97775 -4.4472 0
M  V30 12347 H 1168.6 -0.215886 -0.708854 0
M  V30 12348 H 1171.25 -1.18863 -1.50146 0
M  V30 12349 H 1169.55 -0.198289 -3.91298 0
M  V30 12350 H 1171.25 -0.585887 -3.96697 0
M  V30 12351 H 1167.84 -2.00814 -3.78645 0
M  V30 12352 H 1172.02 -2.97037 -3.97596 0
M  V30 12353 H 1167.28 -4.34582 -4.30057 0
M  V30 12354 H 1171.45 -5.31213 -4.50317 0
M  V30 12355 H 1169.08 -6.00475 -4.66191 0
M  V30 12356 N 1170.66 1.40747 -0.709091 0
M  V30 12357 C 1172.07 1.54961 -0.381989 0
M  V30 12358 C 1172.27 1.68181 1.10985 0
M  V30 12359 O 1171.33 1.66776 1.89584 0
M  V30 12360 C 1172.64 2.78156 -1.14236 0
M  V30 12361 C 1174.19 2.91967 -1.12803 0
M  V30 12362 C 1174.66 4.18066 -1.87042 0
M  V30 12363 N 1176.15 4.25052 -1.84078 0
M  V30 12364 C 1176.89 5.21514 -2.38349 0
M  V30 12365 N 1176.39 6.23924 -3.01149 0
M  V30 12366 N 1178.18 5.13548 -2.28528 0
M  V30 12367 H 1170.33 1.30412 -1.6765 0
M  V30 12368 H 1172.59 0.630147 -0.70825 0
M  V30 12369 H 1172.3 2.74643 -2.19691 0
M  V30 12370 H 1172.17 3.70074 -0.729731 0
M  V30 12371 H 1174.56 2.94987 -0.0816956 0
M  V30 12372 H 1174.64 2.01185 -1.57982 0
M  V30 12373 H 1174.28 4.15808 -2.91662 0
M  V30 12374 H 1174.21 5.07845 -1.39287 0
M  V30 12375 H 1176.71 3.51682 -1.38305 0
M  V30 12376 H 1177.02 6.93942 -3.40094 0
M  V30 12377 H 1175.36 6.24387 -3.05231 0
M  V30 12378 H 1178.55 4.3247 -1.79129 0
M  V30 12379 H 1178.73 5.88553 -2.71126 0
M  V30 12380 N 1172.13 0.454803 1.50895 0
M  V30 12381 C 1173.38 -0.10577 2.02224 0
M  V30 12382 C 1173.71 -1.41176 1.33789 0
M  V30 12383 O 1172.96 -1.90522 0.447181 0
M  V30 12384 C 1173.26 -0.354159 3.55641 0
M  V30 12385 C 1172.93 0.868136 4.42464 0
M  V30 12386 C 1171.59 1.2033 4.65912 0
M  V30 12387 C 1173.94 1.68272 4.93289 0
M  V30 12388 C 1171.27 2.3534 5.37431 0
M  V30 12389 C 1173.62 2.82396 5.6607 0
M  V30 12390 C 1172.29 3.16346 5.87777 0
M  V30 12391 H 1171.56 -0.0387041 0.739989 0
M  V30 12392 H 1174.2 0.605564 1.81673 0
M  V30 12393 H 1172.51 -1.14757 3.74617 0
M  V30 12394 H 1174.21 -0.8016 3.92906 0
M  V30 12395 H 1170.8 0.596995 4.24422 0
M  V30 12396 H 1174.98 1.43698 4.75042 0
M  V30 12397 H 1170.24 2.61936 5.52449 0
M  V30 12398 H 1174.41 3.45873 6.04438 0
M  V30 12399 H 1172.04 4.05574 6.42973 0
M  V30 12400 N 1173.61 -1.56489 0.186789 0
M  V30 12401 C 1174.86 -1.96952 -0.453261 0
M  V30 12402 C 1175.18 -1.07451 -1.62725 0
M  V30 12403 O 1174.45 -0.144046 -1.9537 0
M  V30 12404 H 1173.03 -0.727295 -0.170445 0
M  V30 12405 H 1175.69 -1.92999 0.271584 0
M  V30 12406 H 1174.79 -3.01594 -0.802951 0
M  V30 12407 N 1175.09 0.086862 -1.5736 0
M  V30 12408 C 1176.32 0.802167 -1.90717 0
M  V30 12409 C 1176.73 1.71875 -0.781304 0
M  V30 12410 O 1176.09 1.80831 0.246255 0
M  V30 12411 C 1176.14 1.60858 -3.23739 0
M  V30 12412 O 1175.86 0.728851 -4.31995 0
M  V30 12413 C 1177.36 2.42621 -3.71012 0
M  V30 12414 H 1174.58 0.228914 -0.630745 0
M  V30 12415 H 1177.13 0.061634 -2.04407 0
M  V30 12416 H 1175.28 2.30153 -3.11622 0
M  V30 12417 H 1175.7 1.2882 -5.08435 0
M  V30 12418 H 1177.17 2.94683 -4.66761 0
M  V30 12419 H 1177.65 3.21462 -2.99264 0
M  V30 12420 H 1178.25 1.78509 -3.86024 0
M  V30 12421 N 1176.57 1.53483 0.357892 0
M  V30 12422 C 1177.81 1.70289 1.10134 0
M  V30 12423 C 1178.15 0.457296 1.88739 0
M  V30 12424 O 1177.42 -0.545527 1.86693 0
M  V30 12425 C 1177.7 2.95755 2.05429 0
M  V30 12426 C 1177.56 4.30489 1.30382 0
M  V30 12427 C 1178.88 3.16844 3.05447 0
M  V30 12428 H 1176 0.61965 0.399003 0
M  V30 12429 H 1178.64 1.86133 0.381357 0
M  V30 12430 H 1176.79 2.82377 2.66825 0
M  V30 12431 H 1178.46 4.55692 0.71711 0
M  V30 12432 H 1176.7 4.2955 0.605712 0
M  V30 12433 H 1177.37 5.14427 2.00171 0
M  V30 12434 H 1179.85 3.29458 2.54159 0
M  V30 12435 H 1178.73 4.06053 3.69341 0
M  V30 12436 H 1178.99 2.32476 3.76041 0
M  V30 12437 N 1178.05 -0.61812 1.44973 0
M  V30 12438 C 1179.46 -0.937734 1.29146 0
M  V30 12439 C 1179.66 -2.00104 0.236749 0
M  V30 12440 O 1178.72 -2.49731 -0.372923 0
M  V30 12441 C 1180.03 -1.38865 2.66715 0
M  V30 12442 C 1181.58 -1.50343 2.74529 0
M  V30 12443 C 1182.05 -1.98814 4.12598 0
M  V30 12444 N 1183.54 -2.06064 4.14839 0
M  V30 12445 C 1184.28 -2.44768 5.18533 0
M  V30 12446 N 1183.78 -2.82516 6.32579 0
M  V30 12447 N 1185.57 -2.45016 5.05889 0
M  V30 12448 H 1177.72 0.084872 2.1223 0
M  V30 12449 H 1179.98 -0.0246744 0.947679 0
M  V30 12450 H 1179.69 -0.681583 3.45032 0
M  V30 12451 H 1179.56 -2.3572 2.94475 0
M  V30 12452 H 1181.95 -2.20144 1.96522 0
M  V30 12453 H 1182.03 -0.518297 2.50494 0
M  V30 12454 H 1181.67 -1.29604 4.91086 0
M  V30 12455 H 1181.6 -2.98223 4.34017 0
M  V30 12456 H 1184.1 -1.79525 3.32535 0
M  V30 12457 H 1184.41 -3.109 7.07504 0
M  V30 12458 H 1182.75 -2.80237 6.35997 0
M  V30 12459 H 1185.94 -2.14925 4.15842 0
M  V30 12460 H 1186.12 -2.74854 5.86821 0
M  V30 12461 N 1179.52 -1.32087 -0.859693 0
M  V30 12462 C 1180.43 -1.22587 -2.00024 0
M  V30 12463 C 1181.45 -0.140477 -1.73432 0
M  V30 12464 O 1182.63 -0.360213 -1.98153 0
M  V30 12465 C 1179.69 -0.944195 -3.33595 0
M  V30 12466 C 1178.75 -2.11752 -3.73443 0
M  V30 12467 C 1177.98 -1.84919 -5.0064 0
M  V30 12468 O 1178.21 -0.789299 -5.64913 0
M  V30 12469 O 1177.14 -2.70885 -5.37499 0
M  V30 12470 H 1180.97 -2.18457 -2.10974 0
M  V30 12471 H 1178.55 -1.11927 -0.989577 0
M  V30 12472 H 1180.43 -0.803389 -4.13671 0
M  V30 12473 H 1179.11 -0.0156083 -3.23696 0
M  V30 12474 H 1178.02 -2.31378 -2.93965 0
M  V30 12475 H 1179.35 -3.02872 -3.87981 0
M  V30 12476 N 1181 1.07532 -1.15215 0
M  V30 12477 C 1182.23 1.84356 -0.950139 0
M  V30 12478 C 1182.65 1.81429 0.496502 0
M  V30 12479 O 1182.01 1.20589 1.35381 0
M  V30 12480 C 1182.06 3.29425 -1.46669 0
M  V30 12481 O 1181.16 4.07008 -0.664674 0
M  V30 12482 H 1180.5 0.570921 -0.339036 0
M  V30 12483 H 1183.03 1.35665 -1.53154 0
M  V30 12484 H 1183.04 3.8026 -1.47873 0
M  V30 12485 H 1181.72 3.3087 -2.51988 0
M  V30 12486 H 1180.29 3.65841 -0.72211 0
M  V30 12487 N 1182.48 0.948665 1.2585 0
M  V30 12488 C 1183.71 0.616741 1.98018 0
M  V30 12489 C 1184.13 -0.803005 1.70098 0
M  V30 12490 O 1183.49 -1.54208 0.953392 0
M  V30 12491 C 1183.54 0.874429 3.49837 0
M  V30 12492 O 1182.64 -0.0497568 4.1237 0
M  V30 12493 H 1181.98 0.235112 0.620982 0
M  V30 12494 H 1184.51 1.27364 1.60124 0
M  V30 12495 H 1184.52 0.798309 4.00114 0
M  V30 12496 H 1183.2 1.90922 3.69488 0
M  V30 12497 H 1181.77 0.0780591 3.72818 0
M  V30 12498 N 1183.96 -1.40369 0.716545 0
M  V30 12499 C 1184.92 -2.29083 0.0733105 0
M  V30 12500 C 1185.92 -1.45415 -0.686378 0
M  V30 12501 O 1187.11 -1.66316 -0.518139 0
M  V30 12502 C 1184.24 -3.28639 -0.906032 0
M  V30 12503 H 1185.44 -2.87464 0.85467 0
M  V30 12504 H 1182.99 -1.48706 0.481256 0
M  V30 12505 H 1183.72 -2.75279 -1.71441 0
M  V30 12506 H 1183.51 -3.90405 -0.364163 0
M  V30 12507 H 1185 -3.95066 -1.35324 0
M  V30 12508 N 1185.44 -0.462799 -1.50652 0
M  V30 12509 C 1186.35 0.341191 -2.32106 0
M  V30 12510 C 1187.36 1.00384 -1.42123 0
M  V30 12511 O 1188.54 0.993635 -1.75182 0
M  V30 12512 C 1185.6 1.41356 -3.16575 0
M  V30 12513 C 1184.66 0.768375 -4.22368 0
M  V30 12514 C 1183.9 1.78964 -5.028 0
M  V30 12515 O 1184.12 3.01515 -4.84195 0
M  V30 12516 O 1183.05 1.36606 -5.86193 0
M  V30 12517 H 1186.88 -0.324482 -3.01962 0
M  V30 12518 H 1184.47 -0.224807 -1.47699 0
M  V30 12519 H 1186.35 2.0349 -3.69012 0
M  V30 12520 H 1185.02 2.06285 -2.49456 0
M  V30 12521 H 1183.93 0.108297 -3.73943 0
M  V30 12522 H 1185.26 0.162164 -4.91933 0
M  V30 12523 N 1186.91 1.56388 -0.195085 0
M  V30 12524 C 1188.19 1.89329 0.491303 0
M  V30 12525 C 1188.57 1.10861 1.79647 0
M  V30 12526 O 1187.92 0.209696 2.27536 0
M  V30 12527 C 1188.13 3.417 0.710096 0
M  V30 12528 C 1189.48 4.11931 1.02947 0
M  V30 12529 O 1190.5 3.4715 0.797817 0
M  V30 12530 O 1189.36 5.26423 1.46767 0
M  V30 12531 H 1186.45 0.786335 0.256137 0
M  V30 12532 H 1189 1.68061 -0.235298 0
M  V30 12533 H 1187.77 3.90727 -0.211604 0
M  V30 12534 H 1187.4 3.6866 1.48916 0
M  V30 12535 N 1188.39 -0.0785156 1.57404 0
M  V30 12536 C 1189.62 -0.790893 1.90862 0
M  V30 12537 C 1190.03 -1.7198 0.788644 0
M  V30 12538 O 1189.37 -1.82027 -0.247322 0
M  V30 12539 C 1189.44 -1.64362 3.19727 0
M  V30 12540 C 1189.1 -0.884796 4.48353 0
M  V30 12541 C 1190.1 -0.207074 5.19487 0
M  V30 12542 C 1187.78 -0.853962 4.94988 0
M  V30 12543 C 1189.78 0.491329 6.35504 0
M  V30 12544 C 1187.46 -0.151783 6.10911 0
M  V30 12545 C 1188.46 0.519669 6.8102 0
M  V30 12546 O 1188.15 1.21055 7.94733 0
M  V30 12547 H 1187.88 -0.230427 0.635515 0
M  V30 12548 H 1190.43 -0.0551231 2.05326 0
M  V30 12549 H 1188.66 -2.42203 3.01454 0
M  V30 12550 H 1190.35 -2.23406 3.38887 0
M  V30 12551 H 1191.12 -0.222247 4.84491 0
M  V30 12552 H 1187 -1.36605 4.40296 0
M  V30 12553 H 1190.54 1.01598 6.90162 0
M  V30 12554 H 1186.44 -0.134514 6.4536 0
M  V30 12555 H 1187.21 1.11914 8.10813 0
M  V30 12556 N 1189.87 -1.5367 -0.349747 0
M  V30 12557 C 1191.12 -1.7087 -1.0923 0
M  V30 12558 C 1191.45 -0.467299 -1.88494 0
M  V30 12559 O 1190.72 0.535619 -1.8698 0
M  V30 12560 C 1191.01 -2.9684 -2.03858 0
M  V30 12561 C 1190.86 -4.31174 -1.28097 0
M  V30 12562 C 1192.18 -3.18459 -3.03763 0
M  V30 12563 H 1189.3 -0.621757 -0.395711 0
M  V30 12564 H 1191.94 -1.86333 -0.371481 0
M  V30 12565 H 1190.09 -2.83788 -2.65323 0
M  V30 12566 H 1191.76 -4.56066 -0.692933 0
M  V30 12567 H 1190.01 -4.29866 -0.582924 0
M  V30 12568 H 1190.68 -5.15482 -1.9744 0
M  V30 12569 H 1193.15 -3.30801 -2.52409 0
M  V30 12570 H 1192.03 -4.08006 -3.67182 0
M  V30 12571 H 1192.29 -2.34467 -3.74803 0
M  V30 12572 N 1191.35 0.610423 -1.45298 0
M  V30 12573 C 1192.76 0.930872 -1.29642 0
M  V30 12574 C 1192.96 1.99976 -0.247358 0
M  V30 12575 O 1192.02 2.49925 0.359674 0
M  V30 12576 C 1193.33 1.37449 -2.67448 0
M  V30 12577 C 1194.88 1.48885 -2.75322 0
M  V30 12578 C 1195.36 1.96624 -4.13646 0
M  V30 12579 N 1196.85 2.03862 -4.15926 0
M  V30 12580 C 1197.58 2.42015 -5.19823 0
M  V30 12581 N 1197.08 2.79157 -6.34069 0
M  V30 12582 N 1198.87 2.42329 -5.07181 0
M  V30 12583 H 1191.02 -0.0961259 -2.12182 0
M  V30 12584 H 1193.29 0.0196483 -0.947796 0
M  V30 12585 H 1192.99 0.663276 -3.45389 0
M  V30 12586 H 1192.87 2.34155 -2.95721 0
M  V30 12587 H 1195.25 2.19098 -1.97686 0
M  V30 12588 H 1195.33 0.505006 -2.50765 0
M  V30 12589 H 1194.98 1.26998 -4.91766 0
M  V30 12590 H 1194.91 2.95917 -4.35592 0
M  V30 12591 H 1197.4 1.77759 -3.33482 0
M  V30 12592 H 1197.71 3.07143 -7.09142 0
M  V30 12593 H 1196.06 2.7686 -6.37474 0
M  V30 12594 H 1199.25 2.12717 -4.16976 0
M  V30 12595 H 1199.42 2.71738 -5.88271 0
M  V30 12596 N 1192.83 1.32541 0.852676 0
M  V30 12597 C 1193.76 1.17471 1.96807 0
M  V30 12598 C 1194.77 0.109198 1.62433 0
M  V30 12599 O 1195.96 0.358342 1.74866 0
M  V30 12600 C 1193.06 0.776328 3.29888 0
M  V30 12601 C 1192.23 1.93055 3.9249 0
M  V30 12602 C 1191.29 1.51539 5.03907 0
M  V30 12603 O 1190.32 2.22771 5.23796 0
M  V30 12604 N 1191.52 0.412533 5.79032 0
M  V30 12605 H 1194.29 2.13551 2.10276 0
M  V30 12606 H 1191.85 1.25104 1.02764 0
M  V30 12607 H 1193.84 0.48096 4.01832 0
M  V30 12608 H 1192.41 -0.0933749 3.12461 0
M  V30 12609 H 1191.63 2.39231 3.13309 0
M  V30 12610 H 1192.92 2.70321 4.3105 0
M  V30 12611 H 1192.31 -0.180286 5.65413 0
M  V30 12612 H 1190.87 0.17678 6.5156 0
M  V30 12613 N 1194.3 -1.0692 1.15784 0
M  V30 12614 C 1195.53 -1.83849 0.959903 0
M  V30 12615 C 1195.95 -1.8169 -0.486873 0
M  V30 12616 O 1195.31 -1.21305 -1.34739 0
M  V30 12617 C 1195.36 -3.28642 1.48414 0
M  V30 12618 O 1194.46 -4.0665 0.686249 0
M  V30 12619 H 1193.81 -0.569115 0.342059 0
M  V30 12620 H 1196.34 -1.34851 1.53871 0
M  V30 12621 H 1196.35 -3.7947 1.49888 0
M  V30 12622 H 1195.02 -3.29529 2.53739 0
M  V30 12623 H 1193.6 -3.65453 0.741501 0
M  V30 12624 N 1195.78 -0.955326 -1.25345 0
M  V30 12625 C 1197.03 -0.610484 -1.93079 0
M  V30 12626 C 1197.36 0.852591 -1.74817 0
M  V30 12627 O 1196.61 1.6272 -1.08723 0
M  V30 12628 C 1196.91 -0.916173 -3.45458 0
M  V30 12629 C 1196.58 -2.36539 -3.83875 0
M  V30 12630 C 1195.24 -2.76152 -3.94073 0
M  V30 12631 C 1197.59 -3.30652 -4.02888 0
M  V30 12632 C 1194.92 -4.08944 -4.20692 0
M  V30 12633 C 1197.27 -4.63057 -4.31 0
M  V30 12634 C 1195.94 -5.02464 -4.39415 0
M  V30 12635 H 1195.21 -0.223392 -0.706525 0
M  V30 12636 H 1197.85 -1.20449 -1.48877 0
M  V30 12637 H 1196.16 -0.23978 -3.91066 0
M  V30 12638 H 1197.85 -0.627929 -3.96053 0
M  V30 12639 H 1194.44 -2.04819 -3.76493 0
M  V30 12640 H 1198.63 -3.01237 -3.94423 0
M  V30 12641 H 1193.88 -4.39118 -4.25423 0
M  V30 12642 H 1198.06 -5.3596 -4.44657 0
M  V30 12643 H 1195.69 -6.05386 -4.59795 0
M  V30 12644 N 1197.26 1.39987 -0.723979 0
M  V30 12645 C 1198.67 1.83606 -0.338461 0
M  V30 12646 C 1199.02 1.6051 1.12831 0
M  V30 12647 O 1198.15 1.09041 1.8692 0
M  V30 12648 C 1198.74 3.33308 -0.607533 0
M  V30 12649 C 1197.3 3.75389 -0.275632 0
M  V30 12650 C 1196.45 2.6311 -0.875699 0
M  V30 12651 H 1199.4 1.29135 -0.922483 0
M  V30 12652 H 1199.42 3.80297 0.124424 0
M  V30 12653 H 1198.93 3.50087 -1.67514 0
M  V30 12654 H 1197.03 3.64203 0.786579 0
M  V30 12655 H 1197.15 4.73185 -0.750492 0
M  V30 12656 H 1195.51 2.5289 -0.303122 0
M  V30 12657 H 1196.29 2.82698 -1.94774 0
M  V30 12658 N 1198.74 0.470782 1.50404 0
M  V30 12659 C 1199.65 -0.328877 2.32283 0
M  V30 12660 C 1200.67 -0.99629 1.42654 0
M  V30 12661 O 1201.84 -0.984331 1.75707 0
M  V30 12662 C 1198.91 -1.39675 3.1732 0
M  V30 12663 C 1197.97 -0.745965 4.22769 0
M  V30 12664 C 1197.2 -1.76295 5.03742 0
M  V30 12665 O 1197.42 -2.98943 4.85788 0
M  V30 12666 O 1196.36 -1.33495 5.86909 0
M  V30 12667 H 1200.18 0.340491 3.01785 0
M  V30 12668 H 1197.77 0.232637 1.47578 0
M  V30 12669 H 1199.65 -2.0153 3.70086 0
M  V30 12670 H 1198.33 -2.04959 2.50546 0
M  V30 12671 H 1197.23 -0.0884647 3.73995 0
M  V30 12672 H 1198.57 -0.136074 4.92012 0
M  V30 12673 N 1200.22 -1.56282 0.203376 0
M  V30 12674 C 1201.15 -2.15395 -0.753684 0
M  V30 12675 C 1202.13 -1.09303 -1.20381 0
M  V30 12676 O 1203.31 -1.37461 -1.28984 0
M  V30 12677 C 1200.44 -2.71954 -2.01888 0
M  V30 12678 C 1199.49 -3.9071 -1.71021 0
M  V30 12679 S 1200.32 -5.28695 -0.850999 0
M  V30 12680 C 1201.47 -5.88681 -2.12615 0
M  V30 12681 H 1201.71 -2.96237 -0.251196 0
M  V30 12682 H 1199.24 -1.54396 -0.0117238 0
M  V30 12683 H 1201.2 -3.05183 -2.74542 0
M  V30 12684 H 1199.86 -1.91138 -2.49249 0
M  V30 12685 H 1199.05 -4.28723 -2.64977 0
M  V30 12686 H 1198.65 -3.58533 -1.06442 0
M  V30 12687 H 1200.95 -6.03548 -3.07792 0
M  V30 12688 H 1201.89 -6.85096 -1.79021 0
M  V30 12689 H 1202.3 -5.17356 -2.2584 0
M  V30 12690 N 1201.7 0.070167 -1.57444 0
M  V30 12691 C 1202.65 1.09016 -2.00249 0
M  V30 12692 C 1203.63 1.34387 -0.884809 0
M  V30 12693 O 1204.82 1.34661 -1.14872 0
M  V30 12694 C 1201.95 2.40344 -2.45132 0
M  V30 12695 C 1201.04 2.1824 -3.63637 0
M  V30 12696 N 1201.43 1.6607 -4.7776 0
M  V30 12697 C 1199.73 2.48706 -3.70218 0
M  V30 12698 C 1200.43 1.58819 -5.59599 0
M  V30 12699 N 1199.4 2.04928 -5.03493 0
M  V30 12700 H 1203.2 0.680143 -2.85922 0
M  V30 12701 H 1200.72 0.277212 -1.60017 0
M  V30 12702 H 1202.72 3.1418 -2.74037 0
M  V30 12703 H 1201.38 2.82061 -1.60846 0
M  V30 12704 H 1202.39 1.34911 -5.00019 0
M  V30 12705 H 1199.06 2.93778 -2.96649 0
M  V30 12706 H 1200.45 1.19323 -6.6122 0
M  V30 12707 N 1203.17 1.53854 0.341593 0
M  V30 12708 C 1204.08 1.84975 1.44297 0
M  V30 12709 C 1205.1 0.740057 1.57477 0
M  V30 12710 O 1206.28 1.03256 1.72917 0
M  V30 12711 C 1203.34 2.05464 2.79259 0
M  V30 12712 C 1202.4 3.29318 2.75405 0
M  V30 12713 C 1201.63 3.4882 4.03931 0
M  V30 12714 O 1201.86 2.7212 5.01305 0
M  V30 12715 O 1200.79 4.42253 4.08284 0
M  V30 12716 H 1204.62 2.78592 1.20913 0
M  V30 12717 H 1202.2 1.39532 0.533953 0
M  V30 12718 H 1204.08 2.20374 3.59184 0
M  V30 12719 H 1202.76 1.15035 3.0257 0
M  V30 12720 H 1201.67 3.1981 1.94094 0
M  V30 12721 H 1203 4.19746 2.57049 0
M  V30 12722 N 1204.65 -0.602709 1.4562 0
M  V30 12723 C 1205.88 -1.38608 1.53203 0
M  V30 12724 C 1206.29 -1.88478 0.165098 0
M  V30 12725 O 1205.63 -1.63142 -0.844421 0
M  V30 12726 C 1205.69 -2.62214 2.45935 0
M  V30 12727 C 1205.36 -2.3395 3.92577 0
M  V30 12728 C 1206.36 -1.94011 4.82344 0
M  V30 12729 C 1204.04 -2.46711 4.37537 0
M  V30 12730 C 1206.03 -1.67202 6.15079 0
M  V30 12731 C 1203.72 -2.19515 5.70313 0
M  V30 12732 C 1204.72 -1.79823 6.58903 0
M  V30 12733 O 1204.41 -1.52948 7.89216 0
M  V30 12734 H 1204.14 -0.43052 0.52118 0
M  V30 12735 H 1206.69 -0.741655 1.91543 0
M  V30 12736 H 1204.92 -3.29394 2.02575 0
M  V30 12737 H 1206.61 -3.24264 2.44147 0
M  V30 12738 H 1207.38 -1.83684 4.48871 0
M  V30 12739 H 1203.26 -2.76572 3.68821 0
M  V30 12740 H 1206.8 -1.36146 6.84186 0
M  V30 12741 H 1202.7 -2.2946 6.03339 0
M  V30 12742 H 1203.47 -1.6696 8.01291 0
M  V30 12743 N 1206.13 -1.32992 -0.845635 0
M  V30 12744 C 1207.06 -1.17018 -1.95913 0
M  V30 12745 C 1208.04 -0.0673433 -1.6246 0
M  V30 12746 O 1209.22 -0.22833 -1.87112 0
M  V30 12747 C 1206.35 -0.793343 -3.29278 0
M  V30 12748 C 1205.4 -1.90271 -3.81705 0
M  V30 12749 S 1206.23 -3.51256 -4.04202 0
M  V30 12750 C 1207.39 -3.15564 -5.40528 0
M  V30 12751 H 1207.62 -2.11278 -2.09163 0
M  V30 12752 H 1205.15 -1.17756 -0.998644 0
M  V30 12753 H 1207.11 -0.582694 -4.06343 0
M  V30 12754 H 1205.77 0.130539 -3.13829 0
M  V30 12755 H 1204.96 -1.59225 -4.78188 0
M  V30 12756 H 1204.57 -2.06968 -3.11513 0
M  V30 12757 H 1206.86 -2.65969 -6.23111 0
M  V30 12758 H 1207.8 -4.11102 -5.76542 0
M  V30 12759 H 1208.21 -2.52341 -5.04959 0
M  V30 12760 N 1207.61 1.06304 -1.1635 0
M  V30 12761 C 1209.02 1.31227 -0.90838 0
M  V30 12762 C 1209.22 1.96665 0.438779 0
M  V30 12763 O 1208.28 2.2332 1.17833 0
M  V30 12764 C 1209.59 2.19303 -2.05734 0
M  V30 12765 C 1211.14 2.3272 -2.09309 0
M  V30 12766 C 1211.62 3.24151 -3.23559 0
M  V30 12767 N 1213.11 3.31734 -3.23275 0
M  V30 12768 C 1213.84 4.02572 -4.08318 0
M  V30 12769 N 1213.34 4.75933 -5.03448 0
M  V30 12770 N 1215.13 3.98621 -3.96305 0
M  V30 12771 H 1207.28 0.622228 -2.03081 0
M  V30 12772 H 1209.54 0.336892 -0.886119 0
M  V30 12773 H 1209.25 1.78497 -3.03037 0
M  V30 12774 H 1209.12 3.19888 -1.99879 0
M  V30 12775 H 1211.51 2.72774 -1.12599 0
M  V30 12776 H 1211.59 1.31804 -2.19229 0
M  V30 12777 H 1211.24 2.84813 -4.20528 0
M  V30 12778 H 1211.17 4.25046 -3.10875 0
M  V30 12779 H 1213.66 2.79453 -2.5439 0
M  V30 12780 H 1213.97 5.27512 -5.64758 0
M  V30 12781 H 1212.32 4.74913 -5.07427 0
M  V30 12782 H 1215.51 3.40427 -3.21289 0
M  V30 12783 H 1215.68 4.5356 -4.62804 0
M  V30 12784 N 1209.09 0.96196 1.24836 0
M  V30 12785 C 1210.5 0.667561 1.44968 0
M  V30 12786 C 1210.7 -0.772521 1.86103 0
M  V30 12787 O 1209.76 -1.54704 1.99557 0
M  V30 12788 C 1211.07 1.64675 2.516 0
M  V30 12789 C 1212.62 1.65874 2.65433 0
M  V30 12790 C 1213.09 2.62576 3.75257 0
M  V30 12791 N 1214.58 2.60984 3.82677 0
M  V30 12792 C 1215.32 3.32484 4.67163 0
M  V30 12793 N 1214.82 4.13482 5.55882 0
M  V30 12794 N 1216.61 3.21336 4.61193 0
M  V30 12795 H 1208.76 1.89248 0.964307 0
M  V30 12796 H 1211.02 0.814443 0.485167 0
M  V30 12797 H 1210.73 2.67572 2.2825 0
M  V30 12798 H 1210.6 1.415 3.49653 0
M  V30 12799 H 1212.99 0.636912 2.88145 0
M  V30 12800 H 1213.07 1.9311 1.67756 0
M  V30 12801 H 1212.71 3.6489 3.53295 0
M  V30 12802 H 1212.64 2.32622 4.72435 0
M  V30 12803 H 1215.14 2.02187 3.19263 0
M  V30 12804 H 1215.45 4.6494 6.17293 0
M  V30 12805 H 1213.79 4.17578 5.55566 0
M  V30 12806 H 1216.98 2.57524 3.90895 0
M  V30 12807 H 1217.16 3.77323 5.26812 0
M  V30 12808 N 1210.56 -1.39601 0.731392 0
M  V30 12809 C 1211.79 -2.0459 0.287472 0
M  V30 12810 C 1212.2 -1.5525 -1.08139 0
M  V30 12811 O 1211.54 -0.710949 -1.69385 0
M  V30 12812 C 1211.61 -3.58904 0.206948 0
M  V30 12813 C 1211.27 -4.31204 1.51368 0
M  V30 12814 C 1212.27 -4.58088 2.45869 0
M  V30 12815 C 1209.95 -4.69818 1.77698 0
M  V30 12816 C 1211.95 -5.22591 3.64935 0
M  V30 12817 C 1209.63 -5.34049 2.97043 0
M  V30 12818 C 1210.63 -5.60368 3.90483 0
M  V30 12819 O 1210.32 -6.23268 5.07732 0
M  V30 12820 H 1210.05 -0.664515 0.12408 0
M  V30 12821 H 1212.61 -1.79701 0.994814 0
M  V30 12822 H 1210.84 -3.82675 -0.556466 0
M  V30 12823 H 1212.52 -4.05385 -0.204498 0
M  V30 12824 H 1213.29 -4.28706 2.26796 0
M  V30 12825 H 1209.17 -4.48692 1.05815 0
M  V30 12826 H 1212.71 -5.43049 4.37885 0
M  V30 12827 H 1208.61 -5.62852 3.16018 0
M  V30 12828 H 1209.38 -6.41763 5.08019 0
M  V30 12829 N 1212.04 -0.478751 -1.50152 0
M  V30 12830 C 1212.99 0.325375 -2.30313 0
M  V30 12831 C 1213.98 0.983372 -1.37935 0
M  V30 12832 O 1215.19 0.913601 -1.55091 0
M  V30 12833 H 1211.57 0.123775 -0.741744 0
M  V30 12834 H 1213.54 -0.371004 -2.96085 0
M  V30 12835 C 1212.29 1.39026 -3.18696 0
M  V30 12836 H 1211.61 0.893329 -3.89692 0
M  V30 12837 H 1213.05 1.92533 -3.77766 0
M  V30 12838 C 1211.51 2.39637 -2.36803 0
M  V30 12839 O 1212.04 3.45067 -2.05649 0
M  V30 12840 N 1210.24 2.11546 -1.9924 0
M  V30 12841 H 1209.79 1.25832 -2.24775 0
M  V30 12842 H 1209.75 2.79096 -1.44751 0
M  V30 12843 N 1213.52 1.56172 -0.211661 0
M  V30 12844 C 1214.77 1.98332 0.423332 0
M  V30 12845 C 1215.1 1.09895 1.60115 0
M  V30 12846 O 1214.37 0.154477 1.93886 0
M  V30 12847 C 1214.66 3.49495 0.86747 0
M  V30 12848 C 1214.51 4.48708 -0.313302 0
M  V30 12849 C 1215.83 4.04793 1.72716 0
M  V30 12850 H 1212.95 0.72107 0.152402 0
M  V30 12851 H 1215.59 1.87521 -0.305912 0
M  V30 12852 H 1213.74 3.58839 1.48885 0
M  V30 12853 H 1215.41 4.51385 -0.951291 0
M  V30 12854 H 1213.66 4.2299 -0.96238 0
M  V30 12855 H 1214.33 5.51985 0.0402402 0
M  V30 12856 H 1216.8 3.98332 1.20296 0
M  V30 12857 H 1215.68 5.10898 2.00684 0
M  V30 12858 H 1215.94 3.51067 2.68709 0
M  V30 12859 N 1215 -0.0618163 1.57479 0
M  V30 12860 C 1216.41 -0.612461 1.76368 0
M  V30 12861 C 1216.76 -1.77381 0.838466 0
M  V30 12862 O 1215.89 -2.16386 0.0250211 0
M  V30 12863 C 1216.48 -1.11782 3.19829 0
M  V30 12864 C 1215.04 -1.61424 3.40028 0
M  V30 12865 C 1214.19 -0.53795 2.72032 0
M  V30 12866 H 1217.14 0.164382 1.57846 0
M  V30 12867 H 1217.16 -1.98634 3.24538 0
M  V30 12868 H 1216.67 -0.272353 3.87143 0
M  V30 12869 H 1214.77 -2.48263 2.77842 0
M  V30 12870 H 1214.88 -1.68431 4.48517 0
M  V30 12871 H 1213.25 -0.985355 2.34868 0
M  V30 12872 H 1214.03 0.297495 3.42009 0
M  V30 12873 N 1216.48 -1.54033 -0.333429 0
M  V30 12874 C 1217.44 -1.82021 -1.39288 0
M  V30 12875 C 1218.44 -0.691623 -1.45166 0
M  V30 12876 O 1219.63 -0.959925 -1.45365 0
M  V30 12877 C 1216.76 -1.97136 -2.78119 0
M  V30 12878 H 1217.95 -2.76671 -1.1573 0
M  V30 12879 H 1215.51 -1.45599 -0.568376 0
M  V30 12880 H 1216.24 -1.04663 -3.06946 0
M  V30 12881 H 1216.03 -2.79251 -2.75247 0
M  V30 12882 H 1217.52 -2.20271 -3.54782 0
M  V30 12883 N 1217.95 0.594978 -1.45938 0
M  V30 12884 C 1219.18 1.37994 -1.5416 0
M  V30 12885 C 1219.6 1.87954 -0.17848 0
M  V30 12886 O 1218.95 1.62932 0.822161 0
M  V30 12887 C 1219.01 2.57586 -2.53637 0
M  V30 12888 O 1218.73 2.09698 -3.84653 0
M  V30 12889 C 1220.23 3.50292 -2.71681 0
M  V30 12890 H 1217.45 0.421983 -0.5217 0
M  V30 12891 H 1219.99 0.724459 -1.91238 0
M  V30 12892 H 1218.15 3.19149 -2.19597 0
M  V30 12893 H 1218.56 2.87492 -4.3869 0
M  V30 12894 H 1220.03 4.30717 -3.45234 0
M  V30 12895 H 1220.51 4.01444 -1.78156 0
M  V30 12896 H 1221.12 2.94573 -3.06768 0
M  V30 12897 N 1219.43 1.33438 0.838571 0
M  V30 12898 C 1220.84 1.22366 1.41009 0
M  V30 12899 C 1221.19 -0.157317 1.95568 0
M  V30 12900 O 1220.32 -1.05692 1.88834 0
M  V30 12901 C 1220.91 2.21542 2.56329 0
M  V30 12902 C 1219.47 2.14309 3.09433 0
M  V30 12903 C 1218.62 2.09012 1.82235 0
M  V30 12904 H 1221.57 1.45032 0.64431 0
M  V30 12905 H 1221.59 1.82332 3.33969 0
M  V30 12906 H 1221.1 3.22042 2.16589 0
M  V30 12907 H 1219.21 1.17113 3.53717 0
M  V30 12908 H 1219.32 3.04866 3.69586 0
M  V30 12909 H 1217.68 1.54492 2.02495 0
M  V30 12910 H 1218.47 3.11319 1.4469 0
M  V30 12911 N 1220.91 -1.05686 1.16912 0
M  V30 12912 C 1222.19 -1.7546 0.864483 0
M  V30 12913 C 1222.57 -2.0128 -0.636359 0
M  V30 12914 O 1221.92 -1.64485 -1.58609 0
M  V30 12915 C 1222.13 -3.05134 1.69395 0
M  V30 12916 C 1223.47 -3.79176 1.91079 0
M  V30 12917 O 1224.5 -3.1499 1.66312 0
M  V30 12918 O 1223.36 -4.94496 2.32671 0
M  V30 12919 H 1220.45 -0.762748 0.319601 0
M  V30 12920 H 1223 -1.11899 1.27581 0
M  V30 12921 H 1221.77 -2.82063 2.71212 0
M  V30 12922 H 1221.39 -3.76431 1.28007 0
M  V30 12923 N 1222.39 -0.968567 -1.24324 0
M  V30 12924 C 1223.64 -0.629682 -1.9204 0
M  V30 12925 C 1223.96 0.837906 -1.7608 0
M  V30 12926 O 1223.23 1.5982 -1.13289 0
M  V30 12927 H 1221.81 -0.229901 -0.710742 0
M  V30 12928 H 1224.47 -1.22982 -1.512 0
M  V30 12929 H 1223.57 -0.871034 -2.99699 0
M  V30 12930 N 1223.87 1.39211 -0.738786 0
M  V30 12931 C 1225.11 2.00733 -0.288817 0
M  V30 12932 C 1225.45 1.58494 1.1222 0
M  V30 12933 O 1224.72 0.815579 1.76575 0
M  V30 12934 C 1225 3.57928 -0.394956 0
M  V30 12935 C 1224.86 4.10174 -1.84601 0
M  V30 12936 C 1226.18 4.39548 0.220395 0
M  V30 12937 H 1223.29 0.729276 -0.106418 0
M  V30 12938 H 1225.94 1.65365 -0.935652 0
M  V30 12939 H 1224.09 3.88188 0.155744 0
M  V30 12940 H 1225.76 3.90618 -2.45388 0
M  V30 12941 H 1224 3.63593 -2.36607 0
M  V30 12942 H 1224.67 5.19305 -1.87152 0
M  V30 12943 H 1227.15 4.15354 -0.249098 0
M  V30 12944 H 1226.02 5.48778 0.115806 0
M  V30 12945 H 1226.29 4.22341 1.30691 0
M  V30 12946 N 1225.34 0.486708 1.49896 0
M  V30 12947 C 1226.25 -0.304222 2.32619 0
M  V30 12948 C 1227.27 -0.981103 1.43702 0
M  V30 12949 O 1228.45 -0.965639 1.76741 0
M  V30 12950 C 1225.51 -1.36301 3.18783 0
M  V30 12951 C 1224.57 -0.701082 4.23537 0
M  V30 12952 C 1223.81 -1.70943 5.05583 0
M  V30 12953 O 1224.03 -2.93773 4.88931 0
M  V30 12954 O 1222.96 -1.27263 5.88292 0
M  V30 12955 H 1226.79 0.37248 3.01407 0
M  V30 12956 H 1224.37 0.248277 1.47323 0
M  V30 12957 H 1226.26 -1.97594 3.72202 0
M  V30 12958 H 1224.93 -2.0229 2.52706 0
M  V30 12959 H 1223.84 -0.0487926 3.74068 0
M  V30 12960 H 1225.17 -0.0838817 4.92129 0
M  V30 12961 N 1226.82 -1.56058 0.219941 0
M  V30 12962 C 1228.05 -2.02358 -0.416497 0
M  V30 12963 C 1228.46 -1.09903 -1.54007 0
M  V30 12964 O 1227.8 -0.100635 -1.83424 0
M  V30 12965 C 1227.87 -3.45 -1.01072 0
M  V30 12966 C 1227.53 -4.56994 -0.0227891 0
M  V30 12967 C 1228.53 -5.14061 0.776997 0
M  V30 12968 C 1226.21 -5.02209 0.0954981 0
M  V30 12969 C 1228.21 -6.14813 1.68179 0
M  V30 12970 C 1225.89 -6.02799 1.00383 0
M  V30 12971 C 1226.89 -6.58977 1.79552 0
M  V30 12972 O 1226.58 -7.57608 2.68858 0
M  V30 12973 H 1226.31 -0.667581 -0.106355 0
M  V30 12974 H 1228.87 -2.02677 0.333348 0
M  V30 12975 H 1227.1 -3.41745 -1.80962 0
M  V30 12976 H 1228.78 -3.74958 -1.55439 0
M  V30 12977 H 1229.55 -4.79979 0.696053 0
M  V30 12978 H 1225.43 -4.58164 -0.510599 0
M  V30 12979 H 1228.97 -6.58588 2.30017 0
M  V30 12980 H 1224.87 -6.36302 1.08579 0
M  V30 12981 H 1225.64 -7.75124 2.62915 0
M  V30 12982 N 1228.3 0.053464 -1.57509 0
M  V30 12983 C 1229.23 1.06151 -2.07977 0
M  V30 12984 C 1230.21 1.3924 -0.977047 0
M  V30 12985 O 1231.4 1.48549 -1.25087 0
M  V30 12986 C 1228.53 2.36969 -2.53895 0
M  V30 12987 C 1227.48 2.18186 -3.6821 0
M  V30 12988 C 1226.81 3.54551 -4.00247 0
M  V30 12989 C 1228.11 1.588 -4.97574 0
M  V30 12990 H 1229.8 0.641483 -2.92447 0
M  V30 12991 H 1227.35 0.307122 -1.40687 0
M  V30 12992 H 1229.3 3.07797 -2.87817 0
M  V30 12993 H 1228.02 2.80986 -1.66476 0
M  V30 12994 H 1226.68 1.49796 -3.34599 0
M  V30 12995 H 1226.33 3.96171 -3.09932 0
M  V30 12996 H 1226.03 3.42816 -4.77232 0
M  V30 12997 H 1227.56 4.2678 -4.36682 0
M  V30 12998 H 1228.97 2.19515 -5.29609 0
M  V30 12999 H 1227.37 1.57711 -5.79006 0
M  V30 13000 H 1228.44 0.551254 -4.81756 0
M  V30 13001 N 1229.78 1.54207 0.325255 0
M  V30 13002 C 1230.73 1.83474 1.40021 0
M  V30 13003 C 1231.7 0.681719 1.51466 0
M  V30 13004 O 1232.88 0.92798 1.66713 0
M  V30 13005 C 1230.02 2.06624 2.76407 0
M  V30 13006 C 1229.13 3.3431 2.73607 0
M  V30 13007 C 1228.27 3.4743 4.01828 0
M  V30 13008 C 1227.31 4.68997 3.93329 0
M  V30 13009 N 1226.45 4.79052 5.13277 0
M  V30 13010 H 1231.29 2.75182 1.14363 0
M  V30 13011 H 1228.82 1.36284 0.553639 0
M  V30 13012 H 1230.78 2.18037 3.5569 0
M  V30 13013 H 1229.41 1.18209 3.00377 0
M  V30 13014 H 1228.46 3.31643 1.86324 0
M  V30 13015 H 1229.77 4.237 2.6321 0
M  V30 13016 H 1228.93 3.58376 4.89542 0
M  V30 13017 H 1227.67 2.56128 4.1503 0
M  V30 13018 H 1226.67 4.58109 3.04 0
M  V30 13019 H 1227.9 5.61681 3.81695 0
M  V30 13020 H 1225.84 3.90666 5.26988 0
M  V30 13021 H 1225.76 5.62406 5.05208 0
M  V30 13022 H 1227.03 4.94328 6.02711 0
M  V30 13023 N 1231.26 -0.58723 1.46251 0
M  V30 13024 C 1232.21 -1.71771 1.56836 0
M  V30 13025 C 1233.2 -1.63664 0.437096 0
M  V30 13026 O 1234.41 -1.69212 0.613797 0
M  V30 13027 H 1230.78 -0.567841 0.493012 0
M  V30 13028 H 1232.75 -1.59974 2.51895 0
M  V30 13029 C 1231.5 -3.10159 1.57152 0
M  V30 13030 H 1230.82 -3.17066 2.43535 0
M  V30 13031 H 1232.26 -3.89032 1.68613 0
M  V30 13032 C 1230.72 -3.35567 0.299374 0
M  V30 13033 O 1231.25 -3.97006 -0.612291 0
M  V30 13034 N 1229.46 -2.89987 0.188695 0
M  V30 13035 H 1229.01 -2.4017 0.93147 0
M  V30 13036 H 1228.96 -3.0736 -0.661612 0
M  V30 13037 N 1232.74 -1.33881 -0.831482 0
M  V30 13038 C 1234.01 -1.16346 -1.57236 0
M  V30 13039 C 1234.39 0.267304 -2.09401 0
M  V30 13040 O 1233.74 1.26742 -1.90128 0
M  V30 13041 C 1233.95 -2.21082 -2.70044 0
M  V30 13042 C 1235.3 -2.5562 -3.39033 0
M  V30 13043 O 1236.32 -2.19806 -2.80292 0
M  V30 13044 O 1235.18 -3.17106 -4.45091 0
M  V30 13045 H 1232.28 -0.450469 -0.693546 0
M  V30 13046 H 1234.82 -1.45487 -0.873597 0
M  V30 13047 H 1233.59 -3.17155 -2.2919 0
M  V30 13048 H 1233.22 -1.9307 -3.47577 0
M  V30 13049 N 1234.21 1.05064 -1.1747 0
M  V30 13050 C 1235.62 1.59547 -0.969628 0
M  V30 13051 C 1235.98 1.90153 0.483332 0
M  V30 13052 O 1235.1 1.68415 1.35887 0
M  V30 13053 C 1235.7 2.89877 -1.75377 0
M  V30 13054 C 1234.25 3.41013 -1.59332 0
M  V30 13055 C 1233.4 2.1473 -1.7546 0
M  V30 13056 H 1236.35 0.878595 -1.3216 0
M  V30 13057 H 1236.37 3.59834 -1.23691 0
M  V30 13058 H 1235.89 2.67569 -2.8112 0
M  V30 13059 H 1233.99 3.68355 -0.560827 0
M  V30 13060 H 1234.1 4.15512 -2.38509 0
M  V30 13061 H 1232.46 2.25553 -1.18313 0
M  V30 13062 H 1233.25 1.9489 -2.82618 0
M  V30 13063 N 1235.69 0.975146 1.23809 0
M  V30 13064 C 1236.6 0.51917 2.28783 0
M  V30 13065 C 1237.62 -0.423487 1.68768 0
M  V30 13066 O 1238.79 -0.294699 1.99232 0
M  V30 13067 C 1235.86 -0.176229 3.46252 0
M  V30 13068 C 1234.92 0.807177 4.21643 0
M  V30 13069 C 1234.15 0.144869 5.33503 0
M  V30 13070 O 1234.38 -1.06522 5.60365 0
M  V30 13071 O 1233.31 0.84079 5.95999 0
M  V30 13072 H 1237.14 1.39204 2.69919 0
M  V30 13073 H 1234.72 0.74253 1.29641 0
M  V30 13074 H 1236.6 -0.566547 4.17574 0
M  V30 13075 H 1235.28 -1.02394 3.07078 0
M  V30 13076 H 1234.18 1.2481 3.52666 0
M  V30 13077 H 1235.52 1.62354 4.64653 0
M  V30 13078 N 1237.17 -1.38817 0.746158 0
M  V30 13079 C 1238.12 -2.30521 0.113517 0
M  V30 13080 C 1239.09 -1.49795 -0.717682 0
M  V30 13081 O 1240.27 -1.78448 -0.675345 0
M  V30 13082 C 1237.41 -3.36185 -0.779343 0
M  V30 13083 C 1236.52 -4.3195 0.0656784 0
M  V30 13084 C 1235.66 -5.24684 -0.829492 0
M  V30 13085 C 1234.7 -6.12097 0.0196112 0
M  V30 13086 N 1233.84 -6.97152 -0.832107 0
M  V30 13087 H 1238.68 -2.84048 0.901136 0
M  V30 13088 H 1236.21 -1.39853 0.456025 0
M  V30 13089 H 1238.17 -3.96048 -1.31156 0
M  V30 13090 H 1236.8 -2.84085 -1.53282 0
M  V30 13091 H 1235.85 -3.73611 0.715445 0
M  V30 13092 H 1237.16 -4.93551 0.721735 0
M  V30 13093 H 1236.32 -5.89627 -1.42915 0
M  V30 13094 H 1235.06 -4.63431 -1.5193 0
M  V30 13095 H 1234.06 -5.46156 0.631991 0
M  V30 13096 H 1235.29 -6.75416 0.706369 0
M  V30 13097 H 1233.23 -6.38456 -1.507 0
M  V30 13098 H 1233.15 -7.55642 -0.232782 0
M  V30 13099 H 1234.42 -7.66513 -1.41697 0
M  V30 13100 N 1238.65 -0.49465 -1.49636 0
M  V30 13101 C 1239.58 0.276606 -2.31856 0
M  V30 13102 C 1240.56 0.968499 -1.39836 0
M  V30 13103 O 1241.74 0.96113 -1.68748 0
M  V30 13104 C 1238.87 1.34522 -3.20189 0
M  V30 13105 C 1237.83 0.773571 -4.20951 0
M  V30 13106 C 1237.15 1.94223 -4.98178 0
M  V30 13107 C 1238.45 -0.231096 -5.21788 0
M  V30 13108 H 1240.15 -0.409668 -2.96584 0
M  V30 13109 H 1237.69 -0.198461 -1.42626 0
M  V30 13110 H 1239.65 1.89244 -3.76517 0
M  V30 13111 H 1238.37 2.06059 -2.53392 0
M  V30 13112 H 1237.03 0.248144 -3.65759 0
M  V30 13113 H 1236.68 2.64514 -4.27834 0
M  V30 13114 H 1236.38 1.56584 -5.66353 0
M  V30 13115 H 1237.9 2.49391 -5.57348 0
M  V30 13116 H 1239.32 0.227768 -5.72847 0
M  V30 13117 H 1237.71 -0.522984 -5.97817 0
M  V30 13118 H 1238.78 -1.14914 -4.71087 0
M  V30 13119 N 1240.13 1.55939 -0.228214 0
M  V30 13120 C 1241.4 1.90329 0.451033 0
M  V30 13121 C 1241.78 1.14646 1.77255 0
M  V30 13122 O 1241.13 0.257912 2.2704 0
M  V30 13123 C 1241.34 3.43129 0.637456 0
M  V30 13124 C 1242.69 4.14022 0.94186 0
M  V30 13125 O 1243.71 3.48764 0.724002 0
M  V30 13126 O 1242.57 5.29418 1.35568 0
M  V30 13127 H 1239.67 0.791591 0.2394 0
M  V30 13128 H 1242.21 1.67524 -0.270893 0
M  V30 13129 H 1240.98 3.90191 -0.294435 0
M  V30 13130 H 1240.61 3.71735 1.41062 0
M  V30 13131 N 1241.6 -0.0451101 1.57535 0
M  V30 13132 C 1242.57 -1.03521 2.0449 0
M  V30 13133 C 1243.57 -1.30009 0.946265 0
M  V30 13134 O 1244.76 -1.25282 1.21038 0
M  V30 13135 C 1241.89 -2.37221 2.44824 0
M  V30 13136 H 1243.08 -0.629943 2.93209 0
M  V30 13137 H 1240.64 -0.291544 1.53557 0
M  V30 13138 H 1241.37 -2.82528 1.59212 0
M  V30 13139 H 1241.16 -2.19329 3.25018 0
M  V30 13140 H 1242.65 -3.08337 2.81635 0
M  V30 13141 N 1243.08 -1.54377 -0.317073 0
M  V30 13142 C 1244.33 -1.72893 -1.05424 0
M  V30 13143 C 1244.66 -0.506082 -1.87801 0
M  V30 13144 O 1243.91 0.51213 -1.8888 0
M  V30 13145 C 1244.21 -2.96066 -2.00199 0
M  V30 13146 C 1243.88 -4.30551 -1.33927 0
M  V30 13147 C 1242.54 -4.67112 -1.15584 0
M  V30 13148 C 1244.89 -5.13986 -0.864158 0
M  V30 13149 C 1242.22 -5.84701 -0.483892 0
M  V30 13150 C 1244.57 -6.32264 -0.206006 0
M  V30 13151 C 1243.24 -6.67499 -0.0104849 0
M  V30 13152 H 1242.51 -0.63266 -0.385776 0
M  V30 13153 H 1245.15 -1.88623 -0.330722 0
M  V30 13154 H 1243.46 -2.7505 -2.79024 0
M  V30 13155 H 1245.15 -3.07586 -2.57278 0
M  V30 13156 H 1241.74 -4.0179 -1.49207 0
M  V30 13157 H 1245.93 -4.86252 -0.993635 0
M  V30 13158 H 1241.18 -6.10555 -0.32127 0
M  V30 13159 H 1245.36 -6.96192 0.170108 0
M  V30 13160 H 1242.99 -7.58472 0.512209 0
M  V30 13161 N 1244.56 0.579466 -1.4656 0
M  V30 13162 C 1245.81 1.33379 -1.51304 0
M  V30 13163 C 1246.12 1.94855 -0.170507 0
M  V30 13164 O 1247.33 2.71331 -0.0957704 0
M  V30 13165 C 1245.78 2.41748 -2.66619 0
M  V30 13166 C 1245.39 1.8656 -4.07307 0
M  V30 13167 C 1247.14 3.18502 -2.80636 0
M  V30 13168 C 1245.04 2.92578 -5.13957 0
M  V30 13169 H 1243.97 0.501422 -0.56311 0
M  V30 13170 H 1246.62 0.618025 -1.72779 0
M  V30 13171 H 1245.01 3.16138 -2.3848 0
M  V30 13172 H 1246.18 1.18692 -4.45252 0
M  V30 13173 H 1244.5 1.22464 -3.97984 0
M  V30 13174 H 1247.09 3.9763 -3.57483 0
M  V30 13175 H 1247.44 3.71295 -1.8827 0
M  V30 13176 H 1247.97 2.51219 -3.08437 0
M  V30 13177 H 1244.71 2.44668 -6.08126 0
M  V30 13178 H 1244.23 3.58926 -4.80554 0
M  V30 13179 H 1245.91 3.56471 -5.39942 0
M  V30 13180 N 1246.04 1.3432 0.824371 0
M  V30 13181 C 1246.97 1.2012 1.94027 0
M  V30 13182 C 1247.95 0.0931808 1.62333 0
M  V30 13183 O 1249.13 0.258069 1.86725 0
M  V30 13184 C 1246.26 0.845628 3.27974 0
M  V30 13185 C 1245.31 1.9632 3.7863 0
M  V30 13186 S 1246.14 3.57642 3.98563 0
M  V30 13187 C 1247.3 3.24124 5.35439 0
M  V30 13188 H 1247.53 2.14579 2.05775 0
M  V30 13189 H 1245.06 1.1933 0.979783 0
M  V30 13190 H 1247.02 0.647266 4.05365 0
M  V30 13191 H 1245.68 -0.0805948 3.13997 0
M  V30 13192 H 1244.87 1.66812 4.75594 0
M  V30 13193 H 1244.48 2.11897 3.08181 0
M  V30 13194 H 1246.77 2.75848 6.188 0
M  V30 13195 H 1247.71 4.20222 5.69929 0
M  V30 13196 H 1248.12 2.60343 5.00881 0
M  V30 13197 N 1247.52 -1.0444 1.18026 0
M  V30 13198 C 1248.79 -1.74533 0.883045 0
M  V30 13199 C 1249.17 -2.01944 -0.614975 0
M  V30 13200 O 1248.52 -1.66158 -1.56855 0
M  V30 13201 C 1248.73 -3.0332 1.72621 0
M  V30 13202 C 1250.08 -3.77128 1.9509 0
M  V30 13203 O 1251.1 -3.13209 1.69643 0
M  V30 13204 O 1249.96 -4.92001 2.37903 0
M  V30 13205 H 1247.06 -0.759315 0.327673 0
M  V30 13206 H 1249.6 -1.10539 1.2876 0
M  V30 13207 H 1248.37 -2.79171 2.74188 0
M  V30 13208 H 1248 -3.75052 1.31993 0
M  V30 13209 N 1248.99 -0.981699 -1.2329 0
M  V30 13210 C 1249.94 -0.52269 -2.24803 0
M  V30 13211 C 1250.91 0.439116 -1.6019 0
M  V30 13212 O 1252.1 0.346372 -1.8763 0
M  V30 13213 C 1249.24 0.167477 -3.44693 0
M  V30 13214 C 1248.35 -0.834744 -4.23858 0
M  V30 13215 C 1247.48 -0.119249 -5.31066 0
M  V30 13216 C 1246.52 -1.1106 -6.0194 0
M  V30 13217 N 1245.66 -0.424167 -7.00818 0
M  V30 13218 H 1250.5 -1.39312 -2.63431 0
M  V30 13219 H 1248.04 -0.698061 -1.29482 0
M  V30 13220 H 1250 0.584442 -4.13086 0
M  V30 13221 H 1248.63 1.00177 -3.06862 0
M  V30 13222 H 1247.68 -1.37009 -3.5487 0
M  V30 13223 H 1248.99 -1.59012 -4.72776 0
M  V30 13224 H 1248.14 0.355015 -6.0566 0
M  V30 13225 H 1246.88 0.668714 -4.83094 0
M  V30 13226 H 1245.89 -1.5956 -5.26138 0
M  V30 13227 H 1247.11 -1.89924 -6.52001 0
M  V30 13228 H 1245.06 0.344564 -6.55094 0
M  V30 13229 H 1244.98 -1.11817 -7.47685 0
M  V30 13230 H 1246.24 0.0276655 -7.79495 0
M  V30 13231 N 1250.47 1.3842 -0.753509 0
M  V30 13232 C 1251.44 2.28808 -0.134022 0
M  V30 13233 C 1252.44 1.47184 0.647583 0
M  V30 13234 O 1253.63 1.67631 0.473861 0
M  V30 13235 C 1250.76 3.30926 0.81858 0
M  V30 13236 H 1251.95 2.85097 -0.930586 0
M  V30 13237 H 1249.5 1.47378 -0.520514 0
M  V30 13238 H 1250.24 2.79728 1.64082 0
M  V30 13239 H 1250.02 3.91234 0.260526 0
M  V30 13240 H 1251.51 3.98515 1.24802 0
M  V30 13241 N 1251.95 0.502579 1.49372 0
M  V30 13242 C 1252.88 -0.264307 2.31999 0
M  V30 13243 C 1253.86 -0.96107 1.40348 0
M  V30 13244 O 1255.05 -0.952167 1.69255 0
M  V30 13245 C 1252.18 -1.32822 3.20898 0
M  V30 13246 C 1251.13 -0.751236 4.21355 0
M  V30 13247 C 1250.46 -1.91578 4.99201 0
M  V30 13248 C 1251.76 0.258764 5.21659 0
M  V30 13249 H 1253.45 0.425391 2.96363 0
M  V30 13250 H 1251 0.206022 1.42519 0
M  V30 13251 H 1252.95 -1.87245 3.77515 0
M  V30 13252 H 1251.67 -2.04712 2.54481 0
M  V30 13253 H 1250.33 -0.228743 3.65886 0
M  V30 13254 H 1249.98 -2.62241 4.2923 0
M  V30 13255 H 1249.68 -1.53578 5.67175 0
M  V30 13256 H 1251.2 -2.46432 5.58663 0
M  V30 13257 H 1252.62 -0.197385 5.7296 0
M  V30 13258 H 1251.02 0.554681 5.97531 0
M  V30 13259 H 1252.09 1.1741 4.70471 0
M  V30 13260 N 1253.43 -1.55816 0.23648 0
M  V30 13261 C 1254.36 -2.23924 -0.661834 0
M  V30 13262 C 1255.34 -1.21597 -1.18946 0
M  V30 13263 O 1256.52 -1.50222 -1.23073 0
M  V30 13264 C 1253.65 -2.93069 -1.86355 0
M  V30 13265 C 1252.61 -4.01996 -1.46913 0
M  V30 13266 C 1251.93 -4.58512 -2.75083 0
M  V30 13267 C 1253.23 -5.18265 -0.647964 0
M  V30 13268 H 1254.93 -2.99253 -0.0939368 0
M  V30 13269 H 1252.47 -1.43934 -0.0437407 0
M  V30 13270 H 1254.43 -3.39412 -2.49755 0
M  V30 13271 H 1253.15 -2.15212 -2.45665 0
M  V30 13272 H 1251.81 -3.56406 -0.858522 0
M  V30 13273 H 1251.46 -3.77368 -3.3257 0
M  V30 13274 H 1251.16 -5.32037 -2.49421 0
M  V30 13275 H 1252.68 -5.07583 -3.39399 0
M  V30 13276 H 1254.1 -5.60898 -1.18602 0
M  V30 13277 H 1252.49 -5.98114 -0.487823 0
M  V30 13278 H 1253.56 -4.83691 0.342151 0
M  V30 13279 N 1254.91 0.036755 -1.57557 0
M  V30 13280 C 1256.18 0.764087 -1.80059 0
M  V30 13281 C 1256.56 1.93983 -0.83269 0
M  V30 13282 O 1255.91 2.28148 0.126815 0
M  V30 13283 C 1256.12 1.20433 -3.27562 0
M  V30 13284 C 1257.47 1.6234 -3.9234 0
M  V30 13285 O 1258.49 1.29911 -3.31665 0
M  V30 13286 O 1257.35 2.22504 -4.99154 0
M  V30 13287 H 1254.45 0.368866 -0.74018 0
M  V30 13288 H 1256.99 0.0141254 -1.69694 0
M  V30 13289 H 1255.76 0.364646 -3.89597 0
M  V30 13290 H 1255.39 2.01454 -3.42786 0
M  V30 13291 N 1256.39 1.54543 0.308881 0
M  V30 13292 C 1257.62 1.77174 1.06268 0
M  V30 13293 C 1258.02 0.527461 1.81699 0
M  V30 13294 O 1257.37 -0.512027 1.7642 0
M  V30 13295 C 1257.43 2.92115 2.09545 0
M  V30 13296 C 1257.09 4.30492 1.5338 0
M  V30 13297 C 1258.09 5.1081 0.967923 0
M  V30 13298 C 1255.77 4.77074 1.5718 0
M  V30 13299 C 1257.77 6.35827 0.447517 0
M  V30 13300 C 1255.46 6.02055 1.04753 0
M  V30 13301 C 1256.45 6.81266 0.486345 0
M  V30 13302 O 1256.14 8.03894 -0.0300055 0
M  V30 13303 H 1255.87 0.594773 0.321281 0
M  V30 13304 H 1258.43 2.02289 0.356136 0
M  V30 13305 H 1256.66 2.62606 2.83857 0
M  V30 13306 H 1258.35 3.02394 2.70763 0
M  V30 13307 H 1259.11 4.7597 0.931523 0
M  V30 13308 H 1254.99 4.15453 1.998 0
M  V30 13309 H 1258.54 6.97599 0.00884212 0
M  V30 13310 H 1254.43 6.36383 1.08105 0
M  V30 13311 H 1255.2 8.18457 0.0840381 0
M  V30 13312 N 1257.86 -0.571685 1.46866 0
M  V30 13313 C 1258.77 -1.70758 1.60869 0
M  V30 13314 C 1259.79 -1.66903 0.49186 0
M  V30 13315 O 1260.97 -1.86613 0.757468 0
M  V30 13316 C 1258.03 -3.07267 1.60586 0
M  V30 13317 C 1257.09 -3.22301 2.83585 0
M  V30 13318 C 1256.32 -4.52298 2.83306 0
M  V30 13319 O 1256.55 -5.36869 1.92685 0
M  V30 13320 O 1255.48 -4.70814 3.7499 0
M  V30 13321 H 1259.31 -1.6189 2.56954 0
M  V30 13322 H 1256.89 -0.740018 1.29785 0
M  V30 13323 H 1258.77 -3.8853 1.63163 0
M  V30 13324 H 1257.45 -3.16549 0.676637 0
M  V30 13325 H 1256.36 -2.4049 2.86558 0
M  V30 13326 H 1257.69 -3.17916 3.75753 0
M  V30 13327 N 1259.34 -1.34755 -0.817236 0
M  V30 13328 C 1260.59 -1.2762 -1.5761 0
M  V30 13329 C 1260.92 0.152017 -1.93604 0
M  V30 13330 O 1260.2 1.09881 -1.60488 0
M  V30 13331 C 1260.48 -2.17251 -2.87183 0
M  V30 13332 C 1260.33 -3.68638 -2.57733 0
M  V30 13333 C 1261.65 -2.06206 -3.88802 0
M  V30 13334 H 1258.77 -0.464933 -0.571845 0
M  V30 13335 H 1261.41 -1.6506 -0.941028 0
M  V30 13336 H 1259.56 -1.85452 -3.41379 0
M  V30 13337 H 1261.23 -4.10829 -2.09802 0
M  V30 13338 H 1259.48 -3.89445 -1.91089 0
M  V30 13339 H 1260.15 -4.26726 -3.50156 0
M  V30 13340 H 1262.62 -2.34137 -3.43975 0
M  V30 13341 H 1261.5 -2.71136 -4.77259 0
M  V30 13342 H 1261.76 -1.04075 -4.29675 0
M  V30 13343 N 1260.82 1.03812 -1.18578 0
M  V30 13344 C 1262.04 1.8124 -1.00831 0
M  V30 13345 C 1262.47 1.82917 0.43853 0
M  V30 13346 O 1261.83 1.24835 1.31476 0
M  V30 13347 C 1261.88 3.24592 -1.57075 0
M  V30 13348 O 1260.98 4.04688 -0.793824 0
M  V30 13349 H 1260.32 0.559846 -0.357028 0
M  V30 13350 H 1262.85 1.30724 -1.57393 0
M  V30 13351 H 1262.86 3.75363 -1.59896 0
M  V30 13352 H 1261.54 3.22686 -2.62387 0
M  V30 13353 H 1260.11 3.63359 -0.838134 0
M  V30 13354 N 1262.3 0.988223 1.22768 0
M  V30 13355 C 1263.55 0.656941 1.90702 0
M  V30 13356 C 1263.86 -0.814058 1.77855 0
M  V30 13357 O 1265.07 -1.25673 2.40663 0
M  V30 13358 C 1263.52 1.12445 3.41883 0
M  V30 13359 C 1263.13 2.62034 3.63376 0
M  V30 13360 C 1264.87 0.867277 4.15546 0
M  V30 13361 C 1262.78 3.02412 5.08233 0
M  V30 13362 H 1261.71 0.242012 0.714105 0
M  V30 13363 H 1264.36 1.19716 1.39069 0
M  V30 13364 H 1262.74 0.512386 3.92671 0
M  V30 13365 H 1263.92 3.28546 3.23101 0
M  V30 13366 H 1262.23 2.85583 3.03037 0
M  V30 13367 H 1264.83 1.14471 5.22303 0
M  V30 13368 H 1265.17 -0.196611 4.15835 0
M  V30 13369 H 1265.71 1.4413 3.70771 0
M  V30 13370 H 1262.44 4.07957 5.1308 0
M  V30 13371 H 1261.96 2.406 5.49429 0
M  V30 13372 H 1263.64 2.93452 5.76624 0
M  V30 13373 N 1263.78 -1.38018 0.760839 0
M  V30 13374 C 1265.05 -1.94054 0.245437 0
M  V30 13375 C 1265.43 -1.6955 -1.25761 0
M  V30 13376 O 1264.78 -1.03812 -2.03557 0
M  V30 13377 C 1264.99 -3.43681 0.606986 0
M  V30 13378 C 1266.34 -4.20748 0.570673 0
M  V30 13379 O 1267.36 -3.51995 0.545715 0
M  V30 13380 O 1266.22 -5.43327 0.588043 0
M  V30 13381 H 1263.32 -0.825264 0.0535607 0
M  V30 13382 H 1265.86 -1.47369 0.841453 0
M  V30 13383 H 1264.63 -3.55054 1.64476 0
M  V30 13384 H 1264.26 -3.97597 -0.0166576 0
M  V30 13385 N 1265.25 -0.510493 -1.49103 0
M  V30 13386 C 1266.22 0.251915 -2.27811 0
M  V30 13387 C 1267.22 0.885432 -1.34226 0
M  V30 13388 O 1268.41 0.748494 -1.573 0
M  V30 13389 C 1265.54 1.3624 -3.12492 0
M  V30 13390 H 1266.73 -0.438872 -2.96671 0
M  V30 13391 H 1264.28 -0.265767 -1.54024 0
M  V30 13392 H 1265.02 2.08705 -2.48219 0
M  V30 13393 H 1264.8 0.913485 -3.81311 0
M  V30 13394 H 1266.29 1.89919 -3.71915 0
M  V30 13395 N 1266.73 1.55688 -0.24474 0
M  V30 13396 C 1268.01 1.90796 0.430821 0
M  V30 13397 C 1268.39 1.1652 1.76029 0
M  V30 13398 O 1267.74 0.281978 2.26753 0
M  V30 13399 C 1267.95 3.43786 0.601027 0
M  V30 13400 C 1269.29 4.14998 0.897894 0
M  V30 13401 O 1270.32 3.49513 0.68697 0
M  V30 13402 O 1269.18 5.30826 1.29945 0
M  V30 13403 H 1266.27 0.794086 0.230991 0
M  V30 13404 H 1268.82 1.67227 -0.288646 0
M  V30 13405 H 1267.59 3.89856 -0.335804 0
M  V30 13406 H 1267.21 3.73211 1.37112 0
M  V30 13407 N 1268.21 -0.0283989 1.57574 0
M  V30 13408 C 1269.45 -0.723912 1.91151 0
M  V30 13409 C 1269.81 -1.72485 0.843381 0
M  V30 13410 O 1271.01 -2.46866 1.06351 0
M  V30 13411 C 1269.29 -1.37537 3.29876 0
M  V30 13412 S 1270.84 -2.09995 3.85289 0
M  V30 13413 H 1267.66 -0.239802 0.66934 0
M  V30 13414 H 1270.26 0.0214644 1.95488 0
M  V30 13415 H 1268.97 -0.633659 4.05479 0
M  V30 13416 H 1268.5 -2.15928 3.28844 0
M  V30 13417 H 1270.51 -3.37146 3.6407 0
M  V30 13418 N 1269.69 -1.54705 -0.300681 0
M  V30 13419 C 1270.63 -1.85678 -1.37084 0
M  V30 13420 C 1271.6 -0.70573 -1.50362 0
M  V30 13421 O 1272.79 -0.954385 -1.65215 0
M  V30 13422 C 1269.93 -2.10995 -2.73084 0
M  V30 13423 C 1269.04 -3.38621 -2.68254 0
M  V30 13424 C 1268.18 -3.53779 -3.9625 0
M  V30 13425 C 1267.22 -4.75195 -3.85818 0
M  V30 13426 N 1266.35 -4.87157 -5.05591 0
M  V30 13427 H 1271.19 -2.76967 -1.09971 0
M  V30 13428 H 1268.73 -1.37147 -0.531887 0
M  V30 13429 H 1270.69 -2.23669 -3.52176 0
M  V30 13430 H 1269.32 -1.22973 -2.98458 0
M  V30 13431 H 1268.37 -3.34566 -1.81025 0
M  V30 13432 H 1269.68 -4.27834 -2.56436 0
M  V30 13433 H 1268.84 -3.66119 -4.83779 0
M  V30 13434 H 1267.58 -2.62699 -4.10902 0
M  V30 13435 H 1266.58 -4.62888 -2.96673 0
M  V30 13436 H 1267.81 -5.67683 -3.72711 0
M  V30 13437 H 1265.75 -3.99001 -5.20706 0
M  V30 13438 H 1265.67 -5.70372 -4.96197 0
M  V30 13439 H 1266.94 -5.03854 -5.9477 0
M  V30 13440 N 1271.17 0.563888 -1.47167 0
M  V30 13441 C 1272.1 1.68137 -1.62025 0
M  V30 13442 C 1273.08 1.63481 -0.469899 0
M  V30 13443 O 1274.26 1.81206 -0.698432 0
M  V30 13444 C 1271.39 3.06779 -1.62801 0
M  V30 13445 C 1270.35 3.26278 -2.76996 0
M  V30 13446 C 1269.67 4.65638 -2.62841 0
M  V30 13447 C 1270.97 3.12295 -4.18651 0
M  V30 13448 H 1272.67 1.55958 -2.55573 0
M  V30 13449 H 1270.21 0.74887 -1.22996 0
M  V30 13450 H 1272.17 3.84795 -1.71787 0
M  V30 13451 H 1270.89 3.19901 -0.658097 0
M  V30 13452 H 1269.55 2.50668 -2.67509 0
M  V30 13453 H 1269.2 4.75551 -1.63892 0
M  V30 13454 H 1268.9 4.79635 -3.39447 0
M  V30 13455 H 1270.42 5.45798 -2.73746 0
M  V30 13456 H 1271.83 3.80136 -4.2915 0
M  V30 13457 H 1270.23 3.37805 -4.95992 0
M  V30 13458 H 1271.3 2.09126 -4.37486 0
M  V30 13459 N 1272.64 1.35187 0.810078 0
M  V30 13460 C 1273.57 1.30481 1.93641 0
M  V30 13461 C 1274.56 0.179875 1.69146 0
M  V30 13462 O 1275.74 0.374284 1.90559 0
M  V30 13463 C 1272.87 1.07251 3.30325 0
M  V30 13464 C 1271.82 2.16348 3.69293 0
M  V30 13465 C 1271.15 1.78288 5.04101 0
M  V30 13466 C 1272.45 3.58285 3.80038 0
M  V30 13467 H 1274.14 2.24725 1.97836 0
M  V30 13468 H 1271.69 1.08179 0.950436 0
M  V30 13469 H 1273.64 1.02599 4.08719 0
M  V30 13470 H 1272.37 0.0945203 3.26463 0
M  V30 13471 H 1271.03 2.2009 2.93182 0
M  V30 13472 H 1270.67 0.791163 4.96739 0
M  V30 13473 H 1270.37 2.51315 5.31144 0
M  V30 13474 H 1271.9 1.75155 5.84938 0
M  V30 13475 H 1273.31 3.56884 4.48672 0
M  V30 13476 H 1271.71 4.30044 4.18548 0
M  V30 13477 H 1272.78 3.94691 2.81685 0
M  V30 13478 N 1274.12 -1.03182 1.19127 0
M  V30 13479 C 1275.35 -1.80165 1.01726 0
M  V30 13480 C 1275.77 -1.83742 -0.434095 0
M  V30 13481 O 1275.12 -1.27932 -1.30152 0
M  V30 13482 C 1275.17 -3.25354 1.57566 0
M  V30 13483 O 1274.89 -3.22042 2.9702 0
M  V30 13484 C 1276.4 -4.18948 1.44906 0
M  V30 13485 H 1273.62 -0.567078 0.358698 0
M  V30 13486 H 1276.16 -1.29982 1.57877 0
M  V30 13487 H 1274.31 -3.72738 1.0557 0
M  V30 13488 H 1274.73 -4.13061 3.23235 0
M  V30 13489 H 1276.2 -5.18723 1.88762 0
M  V30 13490 H 1276.68 -4.37383 0.399125 0
M  V30 13491 H 1277.29 -3.77435 1.96018 0
M  V30 13492 N 1275.6 -0.99472 -1.22242 0
M  V30 13493 C 1276.85 -0.672596 -1.91322 0
M  V30 13494 C 1277.18 0.793542 -1.77247 0
M  V30 13495 O 1276.45 1.57407 -1.14251 0
M  V30 13496 C 1276.74 -1.08155 -3.43474 0
M  V30 13497 C 1276.59 -2.60638 -3.6659 0
M  V30 13498 C 1277.91 -0.636161 -4.35478 0
M  V30 13499 H 1275.03 -0.24582 -0.694796 0
M  V30 13500 H 1277.67 -1.23857 -1.44082 0
M  V30 13501 H 1275.82 -0.599987 -3.83839 0
M  V30 13502 H 1277.49 -3.16479 -3.35617 0
M  V30 13503 H 1275.74 -3.02624 -3.10808 0
M  V30 13504 H 1276.41 -2.84304 -4.73155 0
M  V30 13505 H 1278.88 -1.04982 -4.02639 0
M  V30 13506 H 1277.76 -0.950584 -5.40606 0
M  V30 13507 H 1278.02 0.4631 -4.39668 0
M  V30 13508 N 1277.08 1.37613 -0.768148 0
M  V30 13509 C 1278.33 1.99384 -0.330187 0
M  V30 13510 C 1278.65 1.61283 1.09604 0
M  V30 13511 O 1277.92 0.876551 1.75195 0
M  V30 13512 H 1276.5 0.737445 -0.119095 0
M  V30 13513 H 1279.16 1.6815 -0.985476 0
M  V30 13514 H 1278.26 3.09462 -0.40494 0
M  V30 13515 N 1278.56 0.518393 1.4883 0
M  V30 13516 C 1279.5 -0.250684 2.29435 0
M  V30 13517 C 1280.47 -0.944481 1.36634 0
M  V30 13518 O 1281.66 -0.947766 1.65596 0
M  V30 13519 C 1278.8 -1.29871 3.1973 0
M  V30 13520 C 1277.91 -0.61493 4.27601 0
M  V30 13521 C 1277.05 -1.64489 5.05091 0
M  V30 13522 C 1276.09 -0.943932 6.04778 0
M  V30 13523 N 1275.22 -1.91889 6.75369 0
M  V30 13524 H 1280.06 0.44288 2.94691 0
M  V30 13525 H 1277.6 0.230246 1.45287 0
M  V30 13526 H 1279.56 -1.91851 3.70471 0
M  V30 13527 H 1278.19 -1.96081 2.56422 0
M  V30 13528 H 1277.24 0.118552 3.80215 0
M  V30 13529 H 1278.55 -0.063994 4.98759 0
M  V30 13530 H 1277.71 -2.33928 5.59788 0
M  V30 13531 H 1276.44 -2.2297 4.33746 0
M  V30 13532 H 1275.45 -0.235407 5.49296 0
M  V30 13533 H 1276.67 -0.365383 6.78116 0
M  V30 13534 H 1274.62 -2.493 6.06783 0
M  V30 13535 H 1274.54 -1.41909 7.42562 0
M  V30 13536 H 1275.81 -2.60563 7.34661 0
M  V30 13537 N 1280.03 -1.55556 0.252993 0
M  V30 13538 C 1281.45 -1.85032 -0.249011 0
M  V30 13539 C 1281.8 -1.17488 -1.57134 0
M  V30 13540 O 1280.92 -0.455387 -2.11554 0
M  V30 13541 C 1281.52 -3.35682 -0.458589 0
M  V30 13542 C 1280.08 -3.65362 -0.90485 0
M  V30 13543 C 1279.22 -2.77296 0.0144927 0
M  V30 13544 H 1282.17 -1.51412 0.475394 0
M  V30 13545 H 1282.19 -3.57591 -1.30034 0
M  V30 13546 H 1281.71 -3.84814 0.503981 0
M  V30 13547 H 1279.81 -3.21713 -1.87967 0
M  V30 13548 H 1279.92 -4.73074 -0.757492 0
M  V30 13549 H 1278.28 -2.49785 -0.497954 0
M  V30 13550 H 1279.07 -3.29236 0.972546 0
M  V30 13551 N 1281.51 0.0200419 -1.57587 0
M  V30 13552 C 1282.76 0.709027 -1.89681 0
M  V30 13553 C 1283.09 1.74876 -0.851396 0
M  V30 13554 O 1282.34 1.95151 0.146483 0
M  V30 13555 C 1282.64 1.40729 -3.28527 0
M  V30 13556 C 1282.31 0.502686 -4.48089 0
M  V30 13557 C 1280.97 0.253558 -4.80532 0
M  V30 13558 C 1283.32 -0.121338 -5.21059 0
M  V30 13559 C 1280.65 -0.628221 -5.83327 0
M  V30 13560 C 1283 -0.990873 -6.24792 0
M  V30 13561 C 1281.67 -1.24937 -6.55703 0
M  V30 13562 H 1280.94 0.259451 -0.694094 0
M  V30 13563 H 1283.58 -0.03118 -1.91475 0
M  V30 13564 H 1281.89 2.22105 -3.22764 0
M  V30 13565 H 1283.58 1.94609 -3.50611 0
M  V30 13566 H 1280.17 0.707018 -4.22728 0
M  V30 13567 H 1284.36 0.0581516 -4.96266 0
M  V30 13568 H 1279.61 -0.836712 -6.05648 0
M  V30 13569 H 1283.79 -1.48087 -6.80473 0
M  V30 13570 H 1281.42 -1.93436 -7.35178 0
M  V30 13571 N 1282.99 1.54862 0.292472 0
M  V30 13572 C 1283.95 1.8565 1.34413 0
M  V30 13573 C 1284.95 0.729868 1.43281 0
M  V30 13574 O 1286.14 0.998128 1.42769 0
M  V30 13575 C 1283.28 2.0444 2.72795 0
M  V30 13576 H 1284.47 2.79642 1.08354 0
M  V30 13577 H 1282.02 1.47055 0.529574 0
M  V30 13578 H 1282.76 1.12765 3.04063 0
M  V30 13579 H 1282.54 2.86451 2.67747 0
M  V30 13580 H 1284.03 2.296 3.48817 0
M  V30 13581 N 1284.47 -0.556076 1.47464 0
M  V30 13582 C 1285.72 -1.30955 1.53407 0
M  V30 13583 C 1286.03 -1.94559 0.201485 0
M  V30 13584 O 1287.24 -2.71144 0.138925 0
M  V30 13585 C 1285.69 -2.37476 2.70431 0
M  V30 13586 C 1285.3 -1.80057 4.10224 0
M  V30 13587 C 1287.04 -3.13997 2.85668 0
M  V30 13588 C 1284.95 -2.84365 5.18547 0
M  V30 13589 H 1283.88 -0.4924 0.571015 0
M  V30 13590 H 1286.53 -0.590459 1.73741 0
M  V30 13591 H 1284.91 -3.12304 2.43479 0
M  V30 13592 H 1286.09 -1.11593 4.47083 0
M  V30 13593 H 1284.4 -1.16116 3.99882 0
M  V30 13594 H 1287 -3.91892 3.63764 0
M  V30 13595 H 1287.34 -3.68253 1.94153 0
M  V30 13596 H 1287.88 -2.46281 3.12395 0
M  V30 13597 H 1284.62 -2.34963 6.11942 0
M  V30 13598 H 1284.14 -3.51235 4.86203 0
M  V30 13599 H 1285.81 -3.47836 5.45545 0
M  V30 13600 N 1285.95 -1.35615 -0.802897 0
M  V30 13601 C 1286.86 -1.3096 -1.94645 0
M  V30 13602 C 1287.87 -0.213909 -1.7268 0
M  V30 13603 O 1289.05 -0.443932 -1.96446 0
M  V30 13604 C 1286.11 -1.08483 -3.2929 0
M  V30 13605 C 1285.18 -2.27401 -3.64126 0
M  V30 13606 C 1284.41 -2.05987 -4.92347 0
M  V30 13607 O 1284.63 -1.02819 -5.61057 0
M  V30 13608 O 1283.57 -2.93439 -5.25526 0
M  V30 13609 H 1287.39 -2.27209 -2.01519 0
M  V30 13610 H 1284.98 -1.16024 -0.941214 0
M  V30 13611 H 1286.86 -0.978118 -4.09891 0
M  V30 13612 H 1285.53 -0.152885 -3.23339 0
M  V30 13613 H 1284.44 -2.43638 -2.83886 0
M  V30 13614 H 1285.77 -3.19055 -3.74786 0
M  V30 13615 N 1287.43 1.02549 -1.19673 0
M  V30 13616 C 1288.67 1.75656 -0.999463 0
M  V30 13617 C 1288.99 1.89238 0.470517 0
M  V30 13618 O 1288.26 1.42843 1.34062 0
M  V30 13619 H 1286.84 0.650732 -0.366821 0
M  V30 13620 H 1289.51 1.23684 -1.50627 0
M  V30 13621 H 1288.6 2.76353 -1.45035 0
M  V30 13622 N 1288.9 1.00119 1.21713 0
M  V30 13623 C 1290.13 0.699416 1.94401 0
M  V30 13624 C 1290.54 -0.741376 1.7407 0
M  V30 13625 O 1289.88 -1.51286 1.04203 0
M  V30 13626 C 1289.95 0.935875 3.47105 0
M  V30 13627 C 1289.61 2.36276 3.91181 0
M  V30 13628 C 1290.61 3.34276 3.9819 0
M  V30 13629 C 1288.29 2.6994 4.23601 0
M  V30 13630 C 1290.29 4.6401 4.37005 0
M  V30 13631 C 1287.97 3.99891 4.62094 0
M  V30 13632 C 1288.97 4.96737 4.68766 0
M  V30 13633 O 1288.66 6.24364 5.06384 0
M  V30 13634 H 1288.39 0.257233 0.625146 0
M  V30 13635 H 1290.95 1.34098 1.55585 0
M  V30 13636 H 1289.18 0.237133 3.85972 0
M  V30 13637 H 1290.86 0.628075 4.01011 0
M  V30 13638 H 1291.63 3.09603 3.73324 0
M  V30 13639 H 1287.51 1.95257 4.17607 0
M  V30 13640 H 1291.05 5.39601 4.42128 0
M  V30 13641 H 1286.95 4.2435 4.86412 0
M  V30 13642 H 1287.72 6.28424 5.24429 0
M  V30 13643 N 1290.38 -1.37203 0.775435 0
M  V30 13644 C 1291.63 -1.99207 0.340756 0
M  V30 13645 C 1291.95 -1.61861 -1.08747 0
M  V30 13646 O 1291.22 -0.88583 -1.74728 0
M  V30 13647 H 1289.8 -0.736803 0.123004 0
M  V30 13648 H 1292.46 -1.67625 0.994379 0
M  V30 13649 H 1291.56 -3.09243 0.421346 0
M  V30 13650 N 1291.86 -0.526279 -1.48553 0
M  V30 13651 C 1293.11 0.0111473 -2.01697 0
M  V30 13652 C 1293.42 1.35675 -1.40895 0
M  V30 13653 O 1294.63 1.98233 -1.85515 0
M  V30 13654 C 1293.08 0.0702721 -3.59831 0
M  V30 13655 C 1292.69 -1.27022 -4.29616 0
M  V30 13656 C 1294.44 0.556722 -4.20834 0
M  V30 13657 C 1292.34 -1.17188 -5.79673 0
M  V30 13658 H 1291.27 0.00793697 -0.753958 0
M  V30 13659 H 1293.92 -0.669503 -1.70851 0
M  V30 13660 H 1292.31 0.81592 -3.87503 0
M  V30 13661 H 1293.48 -2.03114 -4.1362 0
M  V30 13662 H 1291.79 -1.69211 -3.80469 0
M  V30 13663 H 1294.39 0.648205 -5.30756 0
M  V30 13664 H 1294.73 1.56163 -3.859 0
M  V30 13665 H 1295.27 -0.133132 -3.97577 0
M  V30 13666 H 1292.01 -2.15182 -6.19174 0
M  V30 13667 H 1291.53 -0.452259 -5.98093 0
M  V30 13668 H 1293.21 -0.861011 -6.41245 0
M  V30 13669 N 1293.34 1.5542 -0.261239 0
M  V30 13670 C 1294.59 1.9889 0.358777 0
M  V30 13671 C 1294.91 1.15092 1.57413 0
M  V30 13672 O 1294.18 0.237095 1.9446 0
M  V30 13673 H 1292.76 0.734599 0.13555 0
M  V30 13674 H 1295.42 1.91483 -0.363357 0
M  V30 13675 H 1294.51 3.05082 0.658142 0
M  V30 13676 N 1294.82 -0.0116844 1.57596 0
M  V30 13677 C 1295.75 -1.00599 2.10718 0
M  V30 13678 C 1296.73 -1.36601 1.01362 0
M  V30 13679 O 1297.91 -1.4518 1.28982 0
M  V30 13680 C 1295.04 -2.30155 2.60089 0
M  V30 13681 C 1294 -2.08347 3.73866 0
M  V30 13682 C 1293.32 -3.43814 4.09507 0
M  V30 13683 C 1294.62 -1.45552 5.01609 0
M  V30 13684 H 1296.32 -0.563721 2.94045 0
M  V30 13685 H 1293.86 -0.269714 1.41452 0
M  V30 13686 H 1295.81 -3.00058 2.95877 0
M  V30 13687 H 1294.54 -2.76473 1.73868 0
M  V30 13688 H 1293.2 -1.40872 3.38453 0
M  V30 13689 H 1292.85 -3.87814 3.20326 0
M  V30 13690 H 1292.55 -3.30043 4.86154 0
M  V30 13691 H 1294.07 -4.15052 4.47844 0
M  V30 13692 H 1295.48 -2.05396 5.35243 0
M  V30 13693 H 1293.88 -1.42304 5.82983 0
M  V30 13694 H 1294.95 -0.423331 4.83049 0
M  V30 13695 N 1296.29 -1.55015 -0.284256 0
M  V30 13696 C 1297.7 -1.65915 -0.856104 0
M  V30 13697 C 1298.06 -0.578758 -1.8747 0
M  V30 13698 O 1297.18 0.281733 -2.14558 0
M  V30 13699 C 1297.78 -3.0077 -1.55957 0
M  V30 13700 C 1296.33 -3.13735 -2.0796 0
M  V30 13701 C 1295.48 -2.61669 -0.917849 0
M  V30 13702 H 1298.43 -1.58583 -0.0608587 0
M  V30 13703 H 1298.45 -2.9313 -2.42601 0
M  V30 13704 H 1297.97 -3.79382 -0.81798 0
M  V30 13705 H 1296.07 -2.39875 -2.85115 0
M  V30 13706 H 1296.18 -4.20138 -2.30263 0
M  V30 13707 H 1294.54 -2.18542 -1.3081 0
M  V30 13708 H 1295.33 -3.42774 -0.189946 0
M  V30 13709 N 1297.77 0.548248 -1.47757 0
M  V30 13710 C 1299.18 1.13033 -1.48595 0
M  V30 13711 C 1299.53 1.94657 -0.245575 0
M  V30 13712 O 1298.66 2.06445 0.648813 0
M  V30 13713 C 1299.25 2.05657 -2.69241 0
M  V30 13714 C 1297.81 2.59119 -2.73009 0
M  V30 13715 C 1296.96 1.35686 -2.41836 0
M  V30 13716 H 1299.91 0.334397 -1.55137 0
M  V30 13717 H 1299.93 2.89671 -2.4672 0
M  V30 13718 H 1299.44 1.46222 -3.595 0
M  V30 13719 H 1297.54 3.22327 -1.86912 0
M  V30 13720 H 1297.66 2.99501 -3.73946 0
M  V30 13721 H 1296.02 1.66659 -1.92606 0
M  V30 13722 H 1296.8 0.780311 -3.34314 0
M  V30 13723 N 1299.25 1.36039 0.795694 0
M  V30 13724 C 1300.2 1.29902 1.92946 0
M  V30 13725 C 1301.19 0.191943 1.68309 0
M  V30 13726 O 1302.4 0.358577 1.76392 0
M  V30 13727 H 1298.77 0.404252 0.634101 0
M  V30 13728 H 1300.74 2.25663 1.95241 0
M  V30 13729 C 1299.49 1.09887 3.29879 0
M  V30 13730 H 1298.82 1.94318 3.494 0
M  V30 13731 H 1300.26 1.09638 4.0958 0
M  V30 13732 C 1298.71 -0.196802 3.36325 0
M  V30 13733 O 1299.24 -1.18883 3.83705 0
M  V30 13734 N 1297.45 -0.239325 2.89613 0
M  V30 13735 H 1297 0.568571 2.51247 0
M  V30 13736 H 1296.96 -1.10593 2.94307 0
M  V30 13737 N 1300.73 -1.01913 1.20215 0
M  V30 13738 C 1301.95 -1.79613 1.03702 0
M  V30 13739 C 1302.38 -1.83591 -0.409374 0
M  V30 13740 O 1301.74 -1.26911 -1.29473 0
M  V30 13741 C 1301.78 -3.22052 1.62219 0
M  V30 13742 O 1300.89 -4.03374 0.858106 0
M  V30 13743 H 1300.23 -0.554095 0.365889 0
M  V30 13744 H 1302.76 -1.28203 1.59452 0
M  V30 13745 H 1302.77 -3.72772 1.65847 0
M  V30 13746 H 1301.44 -3.18471 2.67487 0
M  V30 13747 H 1300.02 -3.6198 0.895835 0
M  V30 13748 N 1302.21 -1.00763 -1.2118 0
M  V30 13749 C 1303.62 -0.724746 -1.72059 0
M  V30 13750 C 1303.97 0.757413 -1.80991 0
M  V30 13751 O 1303.09 1.59152 -1.46627 0
M  V30 13752 C 1303.69 -1.30893 -3.12494 0
M  V30 13753 C 1302.25 -1.07511 -3.60719 0
M  V30 13754 C 1301.39 -1.42014 -2.38175 0
M  V30 13755 H 1304.35 -1.17821 -1.0632 0
M  V30 13756 H 1304.37 -0.694919 -3.741 0
M  V30 13757 H 1303.88 -2.38767 -3.05961 0
M  V30 13758 H 1301.98 -0.0136518 -3.72597 0
M  V30 13759 H 1302.09 -1.74885 -4.4604 0
M  V30 13760 H 1300.46 -0.838972 -2.40486 0
M  V30 13761 H 1301.24 -2.50924 -2.34291 0
M  V30 13762 N 1303.68 1.3679 -0.7827 0
M  V30 13763 C 1304.61 2.32721 -0.190604 0
M  V30 13764 C 1305.6 1.56321 0.670663 0
M  V30 13765 O 1306.78 1.84507 0.605871 0
M  V30 13766 C 1303.91 3.40564 0.680717 0
M  V30 13767 C 1302.86 4.27925 -0.080118 0
M  V30 13768 C 1302.19 5.26876 0.911361 0
M  V30 13769 C 1303.49 5.06738 -1.26545 0
M  V30 13770 H 1305.18 2.82488 -0.992023 0
M  V30 13771 H 1302.73 1.35818 -0.478484 0
M  V30 13772 H 1304.68 4.06659 1.10482 0
M  V30 13773 H 1303.41 2.89348 1.51477 0
M  V30 13774 H 1302.07 3.63376 -0.485125 0
M  V30 13775 H 1301.71 4.71936 1.74026 0
M  V30 13776 H 1301.41 5.8619 0.406762 0
M  V30 13777 H 1302.94 5.95846 1.33418 0
M  V30 13778 H 1304.35 5.65911 -0.917448 0
M  V30 13779 H 1302.75 5.75432 -1.70289 0
M  V30 13780 H 1303.82 4.38772 -2.06415 0
M  V30 13781 N 1305.16 0.53415 1.48272 0
M  V30 13782 C 1306.39 0.00574475 2.06899 0
M  V30 13783 C 1306.81 -1.27754 1.39012 0
M  V30 13784 O 1306.16 -1.76102 0.478993 0
M  V30 13785 C 1306.21 -0.217576 3.60845 0
M  V30 13786 O 1305.93 1.01487 4.26183 0
M  V30 13787 C 1307.44 -0.785888 4.36278 0
M  V30 13788 H 1304.66 0.0353967 0.670066 0
M  V30 13789 H 1307.2 0.740984 1.90603 0
M  V30 13790 H 1305.35 -0.902875 3.76732 0
M  V30 13791 H 1305.77 0.7982 5.18391 0
M  V30 13792 H 1307.24 -0.891551 5.44753 0
M  V30 13793 H 1307.72 -1.79178 4.00989 0
M  V30 13794 H 1308.33 -0.137022 4.25079 0
M  V30 13795 N 1306.64 -1.55279 0.269478 0
M  V30 13796 C 1307.6 -2.21008 -0.607299 0
M  V30 13797 C 1308.6 -1.18619 -1.08564 0
M  V30 13798 O 1309.79 -1.4356 -0.986721 0
M  V30 13799 C 1306.93 -2.87157 -1.83721 0
M  V30 13800 H 1308.12 -2.99881 -0.0334894 0
M  V30 13801 H 1305.67 -1.56287 0.0200573 0
M  V30 13802 H 1306.41 -2.12281 -2.45168 0
M  V30 13803 H 1306.19 -3.62183 -1.5022 0
M  V30 13804 H 1307.68 -3.37391 -2.46083 0
M  V30 13805 N 1308.12 0.00332656 -1.576 0
M  V30 13806 C 1309.07 1.01406 -2.09331 0
M  V30 13807 C 1310.06 1.35806 -1.01258 0
M  V30 13808 O 1311.27 1.34409 -1.19726 0
M  V30 13809 H 1307.64 0.344661 -0.668366 0
M  V30 13810 H 1309.61 0.552154 -2.93247 0
M  V30 13811 C 1308.36 2.29819 -2.60918 0
M  V30 13812 H 1307.68 2.04216 -3.43709 0
M  V30 13813 H 1309.12 2.98826 -3.00797 0
M  V30 13814 C 1307.58 3.0057 -1.52182 0
M  V30 13815 O 1308.11 3.91423 -0.902817 0
M  V30 13816 N 1306.32 2.62338 -1.25009 0
M  V30 13817 H 1305.87 1.88538 -1.75531 0
M  V30 13818 H 1305.82 3.0999 -0.524736 0
M  V30 13819 N 1309.6 1.55164 0.276031 0
M  V30 13820 C 1310.85 1.74833 1.0058 0
M  V30 13821 C 1311.16 0.555089 1.87558 0
M  V30 13822 O 1312.36 0.634127 2.63991 0
M  V30 13823 C 1310.82 3.09417 1.83818 0
M  V30 13824 C 1310.43 4.36299 1.01721 0
M  V30 13825 C 1312.17 3.38437 2.56244 0
M  V30 13826 C 1310.08 5.61923 1.8438 0
M  V30 13827 H 1309.01 0.651676 0.379254 0
M  V30 13828 H 1311.66 1.81626 0.26161 0
M  V30 13829 H 1310.04 2.96654 2.62321 0
M  V30 13830 H 1311.22 4.59969 0.276565 0
M  V30 13831 H 1309.53 4.144 0.407645 0
M  V30 13832 H 1312.13 4.29501 3.18485 0
M  V30 13833 H 1312.47 2.58432 3.26372 0
M  V30 13834 H 1313 3.52284 1.84773 0
M  V30 13835 H 1309.74 6.44667 1.18679 0
M  V30 13836 H 1309.26 5.424 2.56051 0
M  V30 13837 H 1310.94 6.0011 2.4182 0
M  V30 13838 N 1311.07 -0.540404 1.48045 0
M  V30 13839 C 1312.3 -1.32656 1.59427 0
M  V30 13840 C 1312.72 -1.86419 0.250924 0
M  V30 13841 O 1312.08 -1.63861 -0.775838 0
M  V30 13842 C 1312.13 -2.46062 2.63602 0
M  V30 13843 O 1311.23 -3.48794 2.20038 0
M  V30 13844 H 1310.58 -0.393334 0.534962 0
M  V30 13845 H 1313.11 -0.651363 1.93955 0
M  V30 13846 H 1313.12 -2.92396 2.84549 0
M  V30 13847 H 1311.79 -2.06291 3.61133 0
M  V30 13848 H 1310.37 -3.0865 2.0926 0
M  V30 13849 N 1312.55 -1.36459 -0.788468 0
M  V30 13850 C 1313.46 -1.33017 -1.93245 0
M  V30 13851 C 1314.48 -0.232212 -1.72444 0
M  V30 13852 O 1315.65 -0.464743 -1.95965 0
M  V30 13853 C 1312.72 -1.1197 -3.28121 0
M  V30 13854 C 1311.78 -2.3125 -3.61693 0
M  V30 13855 C 1311.01 -2.11197 -4.90134 0
M  V30 13856 O 1311.24 -1.08764 -5.59934 0
M  V30 13857 O 1310.17 -2.98996 -5.22384 0
M  V30 13858 H 1314 -2.29333 -1.99098 0
M  V30 13859 H 1311.58 -1.17016 -0.928856 0
M  V30 13860 H 1313.46 -1.02154 -4.08831 0
M  V30 13861 H 1312.14 -0.187171 -3.23158 0
M  V30 13862 H 1311.05 -2.46635 -2.81286 0
M  V30 13863 H 1312.38 -3.23012 -3.71381 0
M  V30 13864 N 1314.03 1.01274 -1.20754 0
M  V30 13865 C 1314.96 2.11763 -0.983805 0
M  V30 13866 C 1315.94 1.69869 0.0885635 0
M  V30 13867 O 1317.13 1.94075 -0.0697239 0
M  V30 13868 C 1314.26 3.43087 -0.539287 0
M  V30 13869 C 1313.21 3.9874 -1.55534 0
M  V30 13870 C 1312.54 5.25877 -0.967322 0
M  V30 13871 C 1313.84 4.31688 -2.94012 0
M  V30 13872 H 1315.53 2.30737 -1.90789 0
M  V30 13873 H 1313.08 1.10884 -0.918734 0
M  V30 13874 H 1315.03 4.19773 -0.369979 0
M  V30 13875 H 1313.75 3.23883 0.420435 0
M  V30 13876 H 1312.41 3.24166 -1.71207 0
M  V30 13877 H 1312.06 5.03 0.000448307 0
M  V30 13878 H 1311.76 5.64077 -1.64594 0
M  V30 13879 H 1313.28 6.05215 -0.809167 0
M  V30 13880 H 1314.7 4.99246 -2.81827 0
M  V30 13881 H 1313.1 4.81011 -3.58815 0
M  V30 13882 H 1314.17 3.4029 -3.45442 0
M  V30 13883 N 1315.51 1.01404 1.20644 0
M  V30 13884 C 1316.76 0.697244 1.89265 0
M  V30 13885 C 1317.07 -0.776149 1.79542 0
M  V30 13886 O 1318.28 -1.2054 2.43274 0
M  V30 13887 C 1316.73 1.19672 3.39421 0
M  V30 13888 C 1316.34 2.69683 3.57736 0
M  V30 13889 C 1318.09 0.955225 4.13613 0
M  V30 13890 C 1315.99 3.13124 5.01704 0
M  V30 13891 H 1314.92 0.257105 0.708811 0
M  V30 13892 H 1317.57 1.22639 1.36499 0
M  V30 13893 H 1315.96 0.595562 3.91496 0
M  V30 13894 H 1317.13 3.35326 3.16059 0
M  V30 13895 H 1315.44 2.91946 2.96911 0
M  V30 13896 H 1318.04 1.25524 5.19757 0
M  V30 13897 H 1318.38 -0.108362 4.16159 0
M  V30 13898 H 1318.92 1.51962 3.67631 0
M  V30 13899 H 1315.66 4.18748 5.04311 0
M  V30 13900 H 1315.18 2.522 5.44201 0
M  V30 13901 H 1316.86 3.05617 5.70269 0
M  V30 13902 N 1316.99 -1.36373 0.789944 0
M  V30 13903 C 1318.21 -2.04011 0.373396 0
M  V30 13904 C 1318.64 -1.59171 -1.00231 0
M  V30 13905 O 1318 -0.760431 -1.64582 0
M  V30 13906 C 1318.04 -3.5783 0.446083 0
M  V30 13907 O 1317.15 -4.08759 -0.54678 0
M  V30 13908 H 1316.49 -0.644807 0.158495 0
M  V30 13909 H 1319.02 -1.74317 1.0712 0
M  V30 13910 H 1319.03 -4.06822 0.309877 0
M  V30 13911 H 1317.7 -3.89819 1.44962 0
M  V30 13912 H 1316.28 -3.71038 -0.372192 0
M  V30 13913 N 1318.47 -0.542005 -1.47987 0
M  V30 13914 C 1319.4 0.25143 -2.27817 0
M  V30 13915 C 1320.41 0.893436 -1.36094 0
M  V30 13916 O 1321.6 0.769849 -1.61045 0
M  V30 13917 C 1318.7 1.37236 -3.0987 0
M  V30 13918 C 1317.87 0.830021 -4.29452 0
M  V30 13919 C 1316.93 1.83356 -4.93221 0
M  V30 13920 O 1315.96 1.38571 -5.52075 0
M  V30 13921 N 1317.16 3.16631 -4.86544 0
M  V30 13922 H 1319.92 -0.433281 -2.96551 0
M  V30 13923 H 1317.49 -0.377099 -1.57447 0
M  V30 13924 H 1319.48 2.04212 -3.49399 0
M  V30 13925 H 1318.05 1.96055 -2.43478 0
M  V30 13926 H 1317.27 -0.0160827 -3.94197 0
M  V30 13927 H 1318.56 0.446762 -5.06835 0
M  V30 13928 H 1317.95 3.55673 -4.39901 0
M  V30 13929 H 1316.51 3.79207 -5.30137 0
M  V30 13930 N 1319.94 1.55134 -0.277709 0
M  V30 13931 C 1321.17 2.03765 0.341106 0
M  V30 13932 C 1321.58 1.15543 1.49822 0
M  V30 13933 O 1320.92 0.168642 1.82924 0
M  V30 13934 C 1320.99 3.48513 0.881974 0
M  V30 13935 C 1320.65 4.56764 -0.146837 0
M  V30 13936 C 1321.65 5.10823 -0.967252 0
M  V30 13937 C 1319.33 5.01509 -0.281824 0
M  V30 13938 C 1321.33 6.08147 -1.90882 0
M  V30 13939 C 1319.01 5.98658 -1.22686 0
M  V30 13940 C 1320.01 6.51859 -2.03886 0
M  V30 13941 O 1319.7 7.47108 -2.96791 0
M  V30 13942 H 1319.43 0.671068 0.0815052 0
M  V30 13943 H 1321.99 2.013 -0.408341 0
M  V30 13944 H 1320.22 3.48226 1.68154 0
M  V30 13945 H 1321.9 3.80469 1.41416 0
M  V30 13946 H 1322.67 4.77065 -0.873714 0
M  V30 13947 H 1318.55 4.59743 0.340203 0
M  V30 13948 H 1322.09 6.49597 -2.54301 0
M  V30 13949 H 1317.99 6.31834 -1.32121 0
M  V30 13950 H 1318.76 7.64832 -2.91502 0
M  V30 13951 N 1321.42 0.00503138 1.57599 0
M  V30 13952 C 1322.37 -0.984754 2.08737 0
M  V30 13953 C 1323.34 -1.33822 0.983915 0
M  V30 13954 O 1324.52 -1.43572 1.25665 0
M  V30 13955 C 1321.66 -2.26984 2.59946 0
M  V30 13956 C 1320.78 -1.97496 3.84212 0
M  V30 13957 C 1319.91 -3.20123 4.23904 0
M  V30 13958 C 1318.95 -2.86344 5.40993 0
M  V30 13959 N 1318.09 -4.01524 5.75954 0
M  V30 13960 H 1322.93 -0.541737 2.93034 0
M  V30 13961 H 1320.46 -0.255834 1.44858 0
M  V30 13962 H 1322.42 -3.02117 2.87717 0
M  V30 13963 H 1321.05 -2.68946 1.78516 0
M  V30 13964 H 1320.1 -1.12709 3.63319 0
M  V30 13965 H 1321.42 -1.68602 4.69441 0
M  V30 13966 H 1320.57 -4.03598 4.52983 0
M  V30 13967 H 1319.31 -3.5216 3.37394 0
M  V30 13968 H 1318.31 -2.01278 5.11632 0
M  V30 13969 H 1319.54 -2.5555 6.29183 0
M  V30 13970 H 1317.49 -4.33447 4.92402 0
M  V30 13971 H 1317.4 -3.76171 6.55768 0
M  V30 13972 H 1318.67 -4.85772 6.09628 0
M  V30 13973 N 1322.9 -1.55308 -0.267798 0
M  V30 13974 C 1324.12 -1.80524 -1.02107 0
M  V30 13975 C 1324.55 -0.579268 -1.78958 0
M  V30 13976 O 1323.91 0.471262 -1.75068 0
M  V30 13977 C 1323.96 -3.03248 -1.95123 0
M  V30 13978 O 1323.06 -2.78699 -3.03975 0
M  V30 13979 H 1322.4 -0.596518 -0.291655 0
M  V30 13980 H 1324.93 -2.0246 -0.295128 0
M  V30 13981 H 1324.94 -3.32121 -2.3698 0
M  V30 13982 H 1323.62 -3.92126 -1.386 0
M  V30 13983 H 1322.19 -2.60936 -2.66396 0
M  V30 13984 N 1324.38 0.532545 -1.4833 0
M  V30 13985 C 1325.33 1.6335 -1.59062 0
M  V30 13986 C 1326.31 1.5454 -0.447905 0
M  V30 13987 O 1327.5 1.62604 -0.699205 0
M  V30 13988 C 1324.63 3.02077 -1.63109 0
M  V30 13989 C 1323.72 3.16 -2.82851 0
M  V30 13990 N 1324.11 2.99905 -4.07297 0
M  V30 13991 C 1322.41 3.47049 -2.8013 0
M  V30 13992 C 1323.11 3.17176 -4.87621 0
M  V30 13993 N 1322.08 3.44634 -4.20391 0
M  V30 13994 H 1325.89 1.49512 -2.53028 0
M  V30 13995 H 1323.4 0.73794 -1.44666 0
M  V30 13996 H 1325.4 3.81158 -1.68891 0
M  V30 13997 H 1324.06 3.17008 -0.702574 0
M  V30 13998 H 1325.07 2.76721 -4.37774 0
M  V30 13999 H 1321.75 3.68354 -1.96524 0
M  V30 14000 H 1323.14 3.09491 -5.96376 0
M  V30 14001 N 1325.86 1.36875 0.78122 0
M  V30 14002 C 1327.1 1.31299 1.53639 0
M  V30 14003 C 1327.42 -0.104942 1.94717 0
M  V30 14004 O 1326.69 -1.04696 1.65576 0
M  V30 14005 H 1325.27 0.483032 0.569815 0
M  V30 14006 H 1327.94 1.71261 0.930359 0
M  V30 14007 H 1327.03 1.94581 2.44018 0
M  V30 14008 N 1327.33 -1.00632 1.21289 0
M  V30 14009 C 1328.58 -1.74388 1.02932 0
M  V30 14010 C 1328.91 -1.8952 -0.437327 0
M  V30 14011 O 1328.16 -1.42551 -1.3408 0
M  V30 14012 C 1328.46 -3.1598 1.67007 0
M  V30 14013 C 1328.13 -3.208 3.16857 0
M  V30 14014 C 1326.79 -3.21823 3.57748 0
M  V30 14015 C 1329.14 -3.18147 4.12834 0
M  V30 14016 C 1326.47 -3.17877 4.93124 0
M  V30 14017 C 1328.82 -3.15743 5.48169 0
M  V30 14018 C 1327.49 -3.15074 5.88459 0
M  V30 14019 H 1326.76 -0.638133 0.376653 0
M  V30 14020 H 1329.4 -1.17953 1.50862 0
M  V30 14021 H 1327.71 -3.75639 1.11365 0
M  V30 14022 H 1329.41 -3.71764 1.50307 0
M  V30 14023 H 1326 -3.20746 2.84289 0
M  V30 14024 H 1330.18 -3.16519 3.82269 0
M  V30 14025 H 1325.44 -3.15696 5.2359 0
M  V30 14026 H 1329.61 -3.12644 6.22275 0
M  V30 14027 H 1327.24 -3.11771 6.93327 0
M  V30 14028 N 1328.81 -1.02043 -1.20104 0
M  V30 14029 C 1329.74 -0.538603 -2.21753 0
M  V30 14030 C 1330.72 0.416016 -1.57188 0
M  V30 14031 O 1331.91 0.335114 -1.85497 0
M  V30 14032 C 1329.03 0.215706 -3.38012 0
M  V30 14033 C 1328.08 -0.68905 -4.20897 0
M  V30 14034 S 1328.91 -2.16041 -4.89986 0
M  V30 14035 C 1330.07 -1.41637 -6.09664 0
M  V30 14036 H 1330.3 -1.39988 -2.6228 0
M  V30 14037 H 1327.83 -0.829641 -1.30216 0
M  V30 14038 H 1329.79 0.644798 -4.05404 0
M  V30 14039 H 1328.45 1.0526 -2.95938 0
M  V30 14040 H 1327.65 -0.107195 -5.03886 0
M  V30 14041 H 1327.25 -1.05609 -3.5878 0
M  V30 14042 H 1329.54 -0.698414 -6.73891 0
M  V30 14043 H 1330.48 -2.22254 -6.72316 0
M  V30 14044 H 1330.89 -0.917572 -5.56993 0
M  V30 14045 N 1330.29 1.35952 -0.797165 0
M  V30 14046 C 1331.57 1.93335 -0.2968 0
M  V30 14047 C 1331.95 1.72825 1.21222 0
M  V30 14048 O 1331.3 1.09172 2.00733 0
M  V30 14049 C 1331.51 3.41951 -0.697894 0
M  V30 14050 C 1332.85 4.19087 -0.682026 0
M  V30 14051 O 1333.88 3.50424 -0.638849 0
M  V30 14052 O 1332.74 5.41577 -0.73189 0
M  V30 14053 H 1329.83 0.823554 -0.0754223 0
M  V30 14054 H 1332.38 1.45086 -0.88023 0
M  V30 14055 H 1331.15 3.50569 -1.73831 0
M  V30 14056 H 1330.77 3.97501 -0.088764 0
M  V30 14057 N 1331.77 0.549846 1.47697 0
M  V30 14058 C 1332.7 -0.249645 2.2683 0
M  V30 14059 C 1333.68 -0.926968 1.33589 0
M  V30 14060 O 1334.86 -0.947423 1.62961 0
M  V30 14061 C 1331.99 -1.35511 3.1041 0
M  V30 14062 C 1331.04 -0.787118 4.19174 0
M  V30 14063 S 1331.87 0.360564 5.34285 0
M  V30 14064 C 1333.03 -0.746898 6.21428 0
M  V30 14065 H 1333.26 0.421876 2.94292 0
M  V30 14066 H 1330.79 0.336017 1.50699 0
M  V30 14067 H 1332.75 -1.98825 3.59137 0
M  V30 14068 H 1331.41 -1.99844 2.42325 0
M  V30 14069 H 1330.6 -1.61704 4.77355 0
M  V30 14070 H 1330.21 -0.230301 3.7329 0
M  V30 14071 H 1332.5 -1.6408 6.57331 0
M  V30 14072 H 1333.44 -0.202608 7.0781 0
M  V30 14073 H 1333.85 -1.03625 5.54907 0
M  V30 14074 N 1333.25 -1.54984 0.285932 0
M  V30 14075 C 1334.18 -2.25916 -0.590259 0
M  V30 14076 C 1335.16 -1.25319 -1.15018 0
M  V30 14077 O 1336.34 -1.54062 -1.18231 0
M  V30 14078 C 1333.47 -2.98849 -1.76936 0
M  V30 14079 C 1332.43 -4.06466 -1.3405 0
M  V30 14080 C 1331.75 -4.67032 -2.60356 0
M  V30 14081 C 1333.05 -5.20064 -0.482754 0
M  V30 14082 H 1334.75 -2.994 0.00131571 0
M  V30 14083 H 1332.29 -1.44 0.00207281 0
M  V30 14084 H 1334.25 -3.47186 -2.3883 0
M  V30 14085 H 1332.97 -2.22918 -2.38694 0
M  V30 14086 H 1331.63 -3.58957 -0.7447 0
M  V30 14087 H 1331.28 -3.87757 -3.20396 0
M  V30 14088 H 1330.98 -5.39703 -2.32368 0
M  V30 14089 H 1332.5 -5.18124 -3.23079 0
M  V30 14090 H 1333.91 -5.64387 -1.00697 0
M  V30 14091 H 1332.31 -5.99363 -0.297291 0
M  V30 14092 H 1333.38 -4.82358 0.495861 0
M  V30 14093 N 1334.72 -0.0133892 -1.57594 0
M  V30 14094 C 1335.67 0.982482 -2.05746 0
M  V30 14095 C 1336.66 1.29508 -0.954801 0
M  V30 14096 O 1337.85 1.28382 -1.21848 0
M  V30 14097 C 1334.98 2.27012 -2.57527 0
M  V30 14098 C 1334.07 1.98658 -3.74694 0
M  V30 14099 N 1334.46 1.40512 -4.85891 0
M  V30 14100 C 1332.75 2.28732 -3.82881 0
M  V30 14101 C 1333.46 1.28933 -5.67231 0
M  V30 14102 N 1332.43 1.77951 -5.13648 0
M  V30 14103 H 1336.23 0.527626 -2.89125 0
M  V30 14104 H 1333.75 0.192001 -1.61261 0
M  V30 14105 H 1335.74 2.99212 -2.90306 0
M  V30 14106 H 1334.4 2.73139 -1.75572 0
M  V30 14107 H 1335.42 1.08217 -5.06468 0
M  V30 14108 H 1332.09 2.77641 -3.11804 0
M  V30 14109 H 1333.48 0.841051 -6.66615 0
M  V30 14110 N 1336.2 1.55448 0.259558 0
M  V30 14111 C 1337.48 1.6742 1.01143 0
M  V30 14112 C 1337.86 0.549525 2.03822 0
M  V30 14113 O 1337.21 -0.448699 2.24051 0
M  V30 14114 C 1337.42 3.07201 1.65616 0
M  V30 14115 C 1338.77 3.6539 2.16277 0
M  V30 14116 O 1339.79 3.0992 1.7558 0
M  V30 14117 O 1338.65 4.62604 2.90963 0
M  V30 14118 H 1335.74 0.680469 0.469991 0
M  V30 14119 H 1338.29 1.67783 0.254348 0
M  V30 14120 H 1337.06 3.80504 0.912819 0
M  V30 14121 H 1336.68 3.10794 2.47977 0
M  V30 14122 N 1337.68 -0.524672 1.4861 0
M  V30 14123 C 1338.63 -1.62872 1.63527 0
M  V30 14124 C 1339.6 -1.59097 0.477202 0
M  V30 14125 O 1340.78 -1.77443 0.701341 0
M  V30 14126 C 1337.92 -3.01116 1.68592 0
M  V30 14127 C 1337.04 -3.15085 2.95542 0
M  V30 14128 C 1336.17 -4.4392 2.91734 0
M  V30 14129 C 1335.21 -4.51436 4.13366 0
M  V30 14130 N 1334.35 -5.71667 4.07605 0
M  V30 14131 H 1339.19 -1.49462 2.57808 0
M  V30 14132 H 1336.72 -0.727578 1.27846 0
M  V30 14133 H 1338.68 -3.81212 1.6951 0
M  V30 14134 H 1337.31 -3.13285 0.777975 0
M  V30 14135 H 1336.36 -2.28207 3.04345 0
M  V30 14136 H 1337.68 -3.165 3.85524 0
M  V30 14137 H 1336.83 -5.32312 2.91083 0
M  V30 14138 H 1335.57 -4.45034 1.9949 0
M  V30 14139 H 1334.57 -3.6145 4.14287 0
M  V30 14140 H 1335.8 -4.52057 5.06776 0
M  V30 14141 H 1333.74 -5.73668 3.18184 0
M  V30 14142 H 1333.66 -5.74599 4.91297 0
M  V30 14143 H 1334.93 -6.62331 4.1102 0
M  V30 14144 N 1339.16 -1.37287 -0.77395 0
M  V30 14145 C 1340.4 -1.33577 -1.53391 0
M  V30 14146 C 1340.76 0.0798979 -1.92234 0
M  V30 14147 O 1340.05 1.03803 -1.61045 0
M  V30 14148 C 1340.25 -2.20667 -2.81142 0
M  V30 14149 C 1340.08 -3.70559 -2.54786 0
M  V30 14150 C 1338.85 -4.39675 -2.49025 0
M  V30 14151 C 1341.04 -4.63472 -2.22932 0
M  V30 14152 N 1339.03 -5.75121 -2.14729 0
M  V30 14153 C 1340.4 -5.87279 -1.98756 0
M  V30 14154 C 1342.45 -4.51879 -2.09068 0
M  V30 14155 C 1341.15 -7.00793 -1.62117 0
M  V30 14156 C 1343.18 -5.65276 -1.7383 0
M  V30 14157 C 1342.54 -6.88132 -1.50513 0
M  V30 14158 H 1338.64 -0.544075 -0.561699 0
M  V30 14159 H 1341.23 -1.72487 -0.903115 0
M  V30 14160 H 1339.4 -1.83976 -3.42063 0
M  V30 14161 H 1341.13 -2.08231 -3.47019 0
M  V30 14162 H 1337.88 -3.92653 -2.64804 0
M  V30 14163 H 1338.31 -6.46696 -2.00284 0
M  V30 14164 H 1342.95 -3.57468 -2.25779 0
M  V30 14165 H 1340.67 -7.9514 -1.44145 0
M  V30 14166 H 1344.25 -5.58276 -1.63765 0
M  V30 14167 H 1343.13 -7.74391 -1.23648 0
M  V30 14168 N 1340.64 0.999871 -1.21821 0
M  V30 14169 C 1341.87 1.77148 -1.06312 0
M  V30 14170 C 1342.27 1.85142 0.389747 0
M  V30 14171 O 1341.62 1.31562 1.28207 0
M  V30 14172 C 1341.68 3.22367 -1.59122 0
M  V30 14173 C 1341.34 3.37937 -3.07649 0
M  V30 14174 C 1342.34 3.25808 -4.05148 0
M  V30 14175 C 1340.03 3.63213 -3.46961 0
M  V30 14176 C 1342.02 3.38729 -5.39946 0
M  V30 14177 C 1339.71 3.75775 -4.81909 0
M  V30 14178 C 1340.7 3.6354 -5.78211 0
M  V30 14179 O 1340.39 3.75694 -7.1071 0
M  V30 14180 H 1340.12 0.563396 -0.373578 0
M  V30 14181 H 1342.68 1.26627 -1.61724 0
M  V30 14182 H 1340.91 3.74047 -0.98111 0
M  V30 14183 H 1342.6 3.81219 -1.39379 0
M  V30 14184 H 1343.36 3.062 -3.76121 0
M  V30 14185 H 1339.24 3.71816 -2.72533 0
M  V30 14186 H 1342.79 3.29096 -6.15095 0
M  V30 14187 H 1338.68 3.94889 -5.1062 0
M  V30 14188 H 1339.45 3.9261 -7.18192 0
M  V30 14189 N 1342.11 1.02678 1.19562 0
M  V30 14190 C 1343.53 0.743467 1.41226 0
M  V30 14191 C 1343.73 -0.672786 1.89936 0
M  V30 14192 O 1342.79 -1.43908 2.07477 0
M  V30 14193 C 1344.1 1.77781 2.42517 0
M  V30 14194 C 1345.65 1.79711 2.56267 0
M  V30 14195 C 1346.12 2.82099 3.60811 0
M  V30 14196 N 1347.61 2.80902 3.68304 0
M  V30 14197 C 1348.35 3.5678 4.48882 0
M  V30 14198 N 1347.84 4.42367 5.33182 0
M  V30 14199 N 1349.64 3.45331 4.43512 0
M  V30 14200 H 1341.79 1.94094 0.862635 0
M  V30 14201 H 1344.05 0.839015 0.441313 0
M  V30 14202 H 1343.76 2.79295 2.13745 0
M  V30 14203 H 1343.63 1.59836 3.41661 0
M  V30 14204 H 1346.02 0.788756 2.84364 0
M  V30 14205 H 1346.1 2.01731 1.57284 0
M  V30 14206 H 1345.74 3.83104 3.33457 0
M  V30 14207 H 1345.67 2.57338 4.5944 0
M  V30 14208 H 1348.16 2.18826 3.08097 0
M  V30 14209 H 1348.48 4.97008 5.9178 0
M  V30 14210 H 1346.82 4.4644 5.3265 0
M  V30 14211 H 1350.01 2.77883 3.76695 0
M  V30 14212 H 1350.19 4.04718 5.06071 0
M  V30 14213 N 1343.59 -1.35528 0.804364 0
M  V30 14214 C 1344.84 -1.99126 0.384261 0
M  V30 14215 C 1345.17 -1.63668 -1.0453 0
M  V30 14216 O 1344.45 -0.898896 -1.72482 0
M  V30 14217 C 1344.73 -3.55636 0.565278 0
M  V30 14218 C 1344.58 -4.00899 2.03961 0
M  V30 14219 C 1345.9 -4.40099 -0.0104301 0
M  V30 14220 H 1343.02 -0.723369 0.141092 0
M  V30 14221 H 1345.66 -1.60712 1.01348 0
M  V30 14222 H 1343.81 -3.88489 0.0296425 0
M  V30 14223 H 1345.48 -3.78465 2.63746 0
M  V30 14224 H 1343.73 -3.5189 2.53685 0
M  V30 14225 H 1344.4 -5.09785 2.11716 0
M  V30 14226 H 1346.87 -4.13692 0.446985 0
M  V30 14227 H 1345.75 -5.48705 0.146155 0
M  V30 14228 H 1346.01 -4.28096 -1.10392 0
M  V30 14229 N 1345.07 -0.557671 -1.47404 0
M  V30 14230 C 1346.32 -0.0338384 -2.02772 0
M  V30 14231 C 1346.65 1.31278 -1.43107 0
M  V30 14232 O 1345.93 1.85436 -0.58682 0
M  V30 14233 C 1346.21 0.0587427 -3.60052 0
M  V30 14234 C 1346.06 -1.315 -4.30148 0
M  V30 14235 C 1347.38 0.771942 -4.33277 0
M  V30 14236 H 1344.5 -0.0137711 -0.736871 0
M  V30 14237 H 1347.14 -0.720049 -1.75827 0
M  V30 14238 H 1345.29 0.643154 -3.83139 0
M  V30 14239 H 1346.96 -1.94265 -4.184 0
M  V30 14240 H 1345.21 -1.88956 -3.90484 0
M  V30 14241 H 1345.88 -1.20294 -5.38733 0
M  V30 14242 H 1348.35 0.275729 -4.15185 0
M  V30 14243 H 1347.23 0.805683 -5.42955 0
M  V30 14244 H 1347.49 1.82816 -4.0253 0
M  V30 14245 N 1346.55 1.54831 -0.294147 0
M  V30 14246 C 1347.96 1.85627 0.199866 0
M  V30 14247 C 1348.31 1.21613 1.53964 0
M  V30 14248 O 1347.44 0.511317 2.10272 0
M  V30 14249 C 1348.03 3.3678 0.369428 0
M  V30 14250 C 1346.59 3.67633 0.807663 0
M  V30 14251 C 1345.74 2.7716 -0.0880078 0
M  V30 14252 H 1348.69 1.50099 -0.515371 0
M  V30 14253 H 1348.71 3.60913 1.20508 0
M  V30 14254 H 1348.22 3.83342 -0.605831 0
M  V30 14255 H 1346.32 3.26583 1.79372 0
M  V30 14256 H 1346.44 4.74916 0.631799 0
M  V30 14257 H 1344.8 2.51017 0.431553 0
M  V30 14258 H 1345.58 3.26542 -1.0595 0
M  V30 14259 N 1348.03 0.0217466 1.57585 0
M  V30 14260 C 1349.27 -0.662733 1.93358 0
M  V30 14261 C 1349.63 -1.69715 0.897829 0
M  V30 14262 O 1350.83 -2.43358 1.14151 0
M  V30 14263 C 1349.1 -1.26973 3.34085 0
M  V30 14264 S 1350.66 -1.97631 3.91775 0
M  V30 14265 H 1347.48 -0.218386 0.67663 0
M  V30 14266 H 1350.08 0.0836466 1.95321 0
M  V30 14267 H 1348.79 -0.504339 4.07289 0
M  V30 14268 H 1348.32 -2.05357 3.35547 0
M  V30 14269 H 1350.33 -3.25393 3.74612 0
M  V30 14270 N 1349.51 -1.55583 -0.251311 0
M  V30 14271 C 1350.75 -1.76859 -0.978031 0
M  V30 14272 C 1351.07 -0.584924 -1.86021 0
M  V30 14273 O 1350.34 0.399456 -1.91784 0
M  V30 14274 H 1348.92 -0.652252 -0.364111 0
M  V30 14275 H 1351.59 -1.93016 -0.270319 0
M  V30 14276 H 1350.68 -2.67828 -1.60233 0
M  V30 14277 N 1350.98 0.516783 -1.48886 0
M  V30 14278 C 1351.93 1.62003 -1.64389 0
M  V30 14279 C 1352.9 1.58842 -0.485633 0
M  V30 14280 O 1354.09 1.77068 -0.710742 0
M  V30 14281 C 1351.23 3.00218 -1.70186 0
M  V30 14282 C 1350.34 3.13513 -2.97209 0
M  V30 14283 C 1349.47 4.42366 -2.94084 0
M  V30 14284 C 1348.51 4.49238 -4.15754 0
M  V30 14285 N 1347.65 5.69497 -4.10631 0
M  V30 14286 H 1352.49 1.48093 -2.58597 0
M  V30 14287 H 1350.03 0.720788 -1.2823 0
M  V30 14288 H 1351.98 3.80307 -1.71529 0
M  V30 14289 H 1350.61 3.12868 -0.794578 0
M  V30 14290 H 1349.67 2.26589 -3.05551 0
M  V30 14291 H 1350.98 3.14451 -3.87197 0
M  V30 14292 H 1350.13 5.3076 -2.93902 0
M  V30 14293 H 1348.87 4.43969 -2.01847 0
M  V30 14294 H 1347.88 3.59248 -4.16198 0
M  V30 14295 H 1349.1 4.49363 -5.09166 0
M  V30 14296 H 1347.05 5.71973 -3.21222 0
M  V30 14297 H 1346.96 5.71985 -4.94337 0
M  V30 14298 H 1348.23 6.60142 -4.14527 0
M  V30 14299 N 1352.46 1.37696 0.766659 0
M  V30 14300 C 1353.88 1.18607 1.06792 0
M  V30 14301 C 1354.08 0.0257195 2.01484 0
M  V30 14302 O 1353.13 -0.632608 2.44447 0
M  V30 14303 C 1354.45 2.50692 1.66054 0
M  V30 14304 C 1355.99 2.57259 1.78288 0
M  V30 14305 C 1356.47 3.89488 2.40963 0
M  V30 14306 N 1357.96 3.90957 2.48408 0
M  V30 14307 C 1358.7 4.90023 2.97767 0
M  V30 14308 N 1358.19 5.99485 3.4726 0
M  V30 14309 N 1359.98 4.77423 2.96688 0
M  V30 14310 H 1352.14 2.11951 0.138031 0
M  V30 14311 H 1354.4 0.939873 0.123863 0
M  V30 14312 H 1354.1 3.35989 1.03945 0
M  V30 14313 H 1353.98 2.68148 2.65286 0
M  V30 14314 H 1356.37 1.72366 2.39528 0
M  V30 14315 H 1356.45 2.43682 0.777981 0
M  V30 14316 H 1356.09 4.74797 1.8036 0
M  V30 14317 H 1356.02 4.0037 3.42069 0
M  V30 14318 H 1358.51 3.11888 2.13388 0
M  V30 14319 H 1358.82 6.71022 3.8334 0
M  V30 14320 H 1357.17 6.03123 3.45351 0
M  V30 14321 H 1360.36 3.91026 2.57325 0
M  V30 14322 H 1360.53 5.54783 3.34844 0
M  V30 14323 N 1353.94 -0.993397 1.22349 0
M  V30 14324 C 1355.16 -1.77373 1.07488 0
M  V30 14325 C 1355.59 -1.84418 -0.37034 0
M  V30 14326 O 1354.95 -1.29629 -1.26752 0
M  V30 14327 C 1355 -3.18538 1.69014 0
M  V30 14328 O 1354.1 -4.01463 0.943474 0
M  V30 14329 H 1353.44 -0.546209 0.37756 0
M  V30 14330 H 1355.97 -1.24792 1.62136 0
M  V30 14331 H 1355.98 -3.6917 1.73717 0
M  V30 14332 H 1354.66 -3.12725 2.74182 0
M  V30 14333 H 1353.23 -3.59998 0.972415 0
M  V30 14334 N 1355.42 -1.03311 -1.19015 0
M  V30 14335 C 1356.66 -0.732039 -1.88805 0
M  V30 14336 C 1356.99 0.739688 -1.79886 0
M  V30 14337 O 1356.25 1.55476 -1.18851 0
M  V30 14338 C 1356.55 -1.13402 -3.38932 0
M  V30 14339 C 1356.21 -2.60473 -3.68055 0
M  V30 14340 C 1354.87 -3.00654 -3.75713 0
M  V30 14341 C 1357.23 -3.55604 -3.81045 0
M  V30 14342 C 1354.55 -4.3487 -3.93833 0
M  V30 14343 C 1356.91 -4.89529 -4.00679 0
M  V30 14344 C 1355.57 -5.29392 -4.06571 0
M  V30 14345 H 1354.84 -0.267872 -0.690888 0
M  V30 14346 H 1357.49 -1.29673 -1.40915 0
M  V30 14347 H 1355.79 -0.487997 -3.88749 0
M  V30 14348 H 1357.49 -0.878532 -3.91258 0
M  V30 14349 H 1354.08 -2.28348 -3.62706 0
M  V30 14350 H 1358.26 -3.25711 -3.74467 0
M  V30 14351 H 1353.52 -4.65285 -3.96636 0
M  V30 14352 H 1357.69 -5.63153 -4.09672 0
M  V30 14353 H 1355.32 -6.33402 -4.20364 0
M  V30 14354 N 1356.9 1.35099 -0.81154 0
M  V30 14355 C 1357.86 2.28033 -0.230947 0
M  V30 14356 C 1358.86 1.49798 0.584575 0
M  V30 14357 O 1360.05 1.6949 0.402336 0
M  V30 14358 C 1357.18 3.341 0.677486 0
M  V30 14359 H 1358.37 2.80893 -1.05067 0
M  V30 14360 H 1355.93 1.45038 -0.582554 0
M  V30 14361 H 1356.66 2.86435 1.5207 0
M  V30 14362 H 1356.45 3.91986 0.0943563 0
M  V30 14363 H 1357.94 4.0345 1.07787 0
M  V30 14364 N 1358.37 0.56548 1.47106 0
M  V30 14365 C 1359.62 0.0445914 2.02751 0
M  V30 14366 C 1359.95 -1.30517 1.43801 0
M  V30 14367 O 1359.23 -1.85123 0.596646 0
M  V30 14368 C 1359.51 -0.0396474 3.60078 0
M  V30 14369 C 1359.36 1.3378 4.29445 0
M  V30 14370 C 1360.68 -0.748954 4.3368 0
M  V30 14371 H 1357.8 0.0176787 0.736788 0
M  V30 14372 H 1360.44 0.729363 1.75443 0
M  V30 14373 H 1358.59 -0.622826 3.83475 0
M  V30 14374 H 1360.27 1.96482 4.17364 0
M  V30 14375 H 1358.51 1.91024 3.89477 0
M  V30 14376 H 1359.18 1.23149 5.38088 0
M  V30 14377 H 1361.66 -0.253707 4.15326 0
M  V30 14378 H 1360.53 -0.776877 5.43374 0
M  V30 14379 H 1360.79 -1.80679 4.03494 0
M  V30 14380 N 1359.85 -1.54672 0.302354 0
M  V30 14381 C 1361.08 -2.04578 -0.309093 0
M  V30 14382 C 1361.5 -1.17957 -1.47416 0
M  V30 14383 O 1360.85 -0.2055 -1.81339 0
M  V30 14384 C 1360.9 -3.53334 -0.764023 0
M  V30 14385 O 1360.62 -4.36662 0.354674 0
M  V30 14386 C 1362.13 -4.19243 -1.44048 0
M  V30 14387 H 1359.35 -0.667651 -0.0669575 0
M  V30 14388 H 1361.89 -1.99658 0.442379 0
M  V30 14389 H 1360.04 -3.5861 -1.46552 0
M  V30 14390 H 1360.46 -5.245 0.000241188 0
M  V30 14391 H 1361.93 -5.24847 -1.70995 0
M  V30 14392 H 1362.41 -3.69061 -2.38098 0
M  V30 14393 H 1363.02 -4.18046 -0.782132 0
M  V30 14394 N 1361.33 -0.0301034 -1.57571 0
M  V30 14395 C 1362.24 0.967086 -2.1374 0
M  V30 14396 C 1363.26 1.35636 -1.0899 0
M  V30 14397 O 1364.43 1.43758 -1.41052 0
M  V30 14398 C 1361.5 2.23058 -2.65417 0
M  V30 14399 C 1360.56 1.90163 -3.84885 0
M  V30 14400 C 1359.79 3.10488 -4.34088 0
M  V30 14401 O 1360.01 4.23179 -3.8246 0
M  V30 14402 O 1358.95 2.92729 -5.25921 0
M  V30 14403 H 1362.77 0.519486 -2.99224 0
M  V30 14404 H 1360.36 0.190559 -1.4818 0
M  V30 14405 H 1362.24 2.97229 -2.98719 0
M  V30 14406 H 1360.92 2.66997 -1.83015 0
M  V30 14407 H 1359.82 1.13373 -3.56507 0
M  V30 14408 H 1361.16 1.51039 -4.68453 0
M  V30 14409 N 1362.81 1.55714 0.243056 0
M  V30 14410 C 1364.04 1.81786 0.98801 0
M  V30 14411 C 1364.45 0.606352 1.78798 0
M  V30 14412 O 1363.81 -0.425018 1.77482 0
M  V30 14413 C 1363.86 3.06121 1.92281 0
M  V30 14414 O 1363.58 4.22595 1.15521 0
M  V30 14415 C 1365.08 3.45021 2.78344 0
M  V30 14416 H 1362.3 0.604829 0.290557 0
M  V30 14417 H 1364.85 2.02779 0.26478 0
M  V30 14418 H 1363 2.87167 2.60027 0
M  V30 14419 H 1363.41 4.93088 1.78786 0
M  V30 14420 H 1364.89 4.35112 3.39678 0
M  V30 14421 H 1365.37 2.65782 3.49652 0
M  V30 14422 H 1365.97 3.66339 2.16045 0
M  V30 14423 N 1364.29 -0.50888 1.49158 0
M  V30 14424 C 1365.22 -1.62008 1.68154 0
M  V30 14425 C 1366.2 -1.61624 0.53025 0
M  V30 14426 O 1367.38 -1.78489 0.765205 0
M  V30 14427 C 1364.51 -3.00525 1.74075 0
M  V30 14428 C 1363.47 -3.15773 2.88915 0
M  V30 14429 C 1362.79 -4.55562 2.79942 0
M  V30 14430 C 1364.09 -2.96542 4.29953 0
M  V30 14431 H 1365.79 -1.46365 2.61185 0
M  V30 14432 H 1363.33 -0.702705 1.2569 0
M  V30 14433 H 1365.29 -3.78154 1.8595 0
M  V30 14434 H 1364.01 -3.17238 0.776373 0
M  V30 14435 H 1362.67 -2.40567 2.76628 0
M  V30 14436 H 1362.32 -4.6914 1.81429 0
M  V30 14437 H 1362.02 -4.66706 3.57015 0
M  V30 14438 H 1363.54 -5.35262 2.93814 0
M  V30 14439 H 1364.95 -3.63947 4.42963 0
M  V30 14440 H 1363.35 -3.19164 5.08187 0
M  V30 14441 H 1364.42 -1.92745 4.44946 0
M  V30 14442 N 1365.76 -1.381 -0.759346 0
M  V30 14443 C 1366.7 -1.3075 -1.88248 0
M  V30 14444 C 1367.71 -0.220835 -1.61295 0
M  V30 14445 O 1368.9 -0.477952 -1.71982 0
M  V30 14446 C 1366 -1.00174 -3.23757 0
M  V30 14447 C 1365.17 -2.19635 -3.78258 0
M  V30 14448 C 1364.23 -1.85892 -4.92271 0
M  V30 14449 O 1363.26 -2.58325 -5.07205 0
M  V30 14450 N 1364.46 -0.810436 -5.74815 0
M  V30 14451 H 1367.22 -2.27529 -1.95065 0
M  V30 14452 H 1364.78 -1.31886 -0.93902 0
M  V30 14453 H 1366.78 -0.756631 -3.97564 0
M  V30 14454 H 1365.35 -0.122094 -3.12361 0
M  V30 14455 H 1364.57 -2.60246 -2.96084 0
M  V30 14456 H 1365.85 -2.99373 -4.11404 0
M  V30 14457 H 1365.25 -0.209644 -5.65311 0
M  V30 14458 H 1363.81 -0.625206 -6.48795 0
M  V30 14459 N 1367.24 0.986894 -1.22875 0
M  V30 14460 C 1368.18 2.07604 -0.947406 0
M  V30 14461 C 1369.15 1.62214 0.111904 0
M  V30 14462 O 1370.34 1.88488 -0.0209682 0
M  V30 14463 C 1367.46 3.3601 -0.42605 0
M  V30 14464 C 1366.51 4.00331 -1.47097 0
M  V30 14465 S 1367.34 4.40412 -3.04627 0
M  V30 14466 C 1368.5 5.7198 -2.54145 0
M  V30 14467 H 1368.73 2.31149 -1.86969 0
M  V30 14468 H 1366.27 1.1222 -1.06047 0
M  V30 14469 H 1368.22 4.10288 -0.131846 0
M  V30 14470 H 1366.88 3.10484 0.475211 0
M  V30 14471 H 1366.08 4.92809 -1.05618 0
M  V30 14472 H 1365.68 3.32403 -1.71418 0
M  V30 14473 H 1367.97 6.48602 -1.9576 0
M  V30 14474 H 1368.91 6.18293 -3.45137 0
M  V30 14475 H 1369.32 5.29669 -1.95221 0
M  V30 14476 N 1368.72 1.0394 1.18466 0
M  V30 14477 C 1369.97 0.740576 1.88042 0
M  V30 14478 C 1370.29 -0.733822 1.80666 0
M  V30 14479 O 1369.56 -1.52943 1.22414 0
M  V30 14480 H 1368.14 0.270949 0.696129 0
M  V30 14481 H 1370.8 1.31588 1.43772 0
M  V30 14482 H 1369.9 1.04429 2.94111 0
M  V30 14483 N 1370.2 -1.34667 0.818693 0
M  V30 14484 C 1371.45 -1.9767 0.401184 0
M  V30 14485 C 1371.76 -1.65644 -1.04027 0
M  V30 14486 O 1372.97 -2.22104 -1.56148 0
M  V30 14487 C 1371.42 -3.53677 0.666398 0
M  V30 14488 C 1371.03 -3.94601 2.12119 0
M  V30 14489 C 1372.77 -4.23331 0.314845 0
M  V30 14490 C 1370.68 -5.43502 2.33151 0
M  V30 14491 H 1369.61 -0.739675 0.146275 0
M  V30 14492 H 1372.26 -1.53568 1.00445 0
M  V30 14493 H 1370.64 -3.95999 -0.00698307 0
M  V30 14494 H 1371.82 -3.63396 2.83338 0
M  V30 14495 H 1370.13 -3.37871 2.43377 0
M  V30 14496 H 1372.73 -5.32804 0.449881 0
M  V30 14497 H 1373.07 -4.09666 -0.740235 0
M  V30 14498 H 1373.61 -3.8647 0.942631 0
M  V30 14499 H 1370.35 -5.62148 3.37149 0
M  V30 14500 H 1369.87 -5.76236 1.66471 0
M  V30 14501 H 1371.54 -6.10127 2.153 0
M  V30 14502 N 1371.68 -0.573274 -1.46804 0
M  V30 14503 C 1372.62 0.165358 -2.30207 0
M  V30 14504 C 1373.59 0.89312 -1.40045 0
M  V30 14505 O 1374.78 0.885653 -1.68999 0
M  V30 14506 C 1371.92 1.17915 -3.2433 0
M  V30 14507 C 1371.03 0.455805 -4.29589 0
M  V30 14508 C 1370.17 1.45629 -5.10848 0
M  V30 14509 C 1369.21 0.718822 -6.07865 0
M  V30 14510 N 1368.34 1.66691 -6.82025 0
M  V30 14511 H 1373.18 -0.551947 -2.92844 0
M  V30 14512 H 1370.72 -0.28401 -1.44332 0
M  V30 14513 H 1372.68 1.77969 -3.77337 0
M  V30 14514 H 1371.31 1.86429 -2.63523 0
M  V30 14515 H 1370.36 -0.259584 -3.79513 0
M  V30 14516 H 1371.67 -0.121161 -4.98653 0
M  V30 14517 H 1370.83 2.1299 -5.68084 0
M  V30 14518 H 1369.56 2.06718 -4.41723 0
M  V30 14519 H 1368.57 0.0313773 -5.49791 0
M  V30 14520 H 1369.79 0.113452 -6.79005 0
M  V30 14521 H 1367.74 2.26608 -6.15617 0
M  V30 14522 H 1367.66 1.14251 -7.47317 0
M  V30 14523 H 1368.93 2.33117 -7.43826 0
M  V30 14524 N 1373.15 1.5451 -0.310553 0
M  V30 14525 C 1374.1 2.2059 0.576555 0
M  V30 14526 C 1375.09 1.18205 1.09163 0
M  V30 14527 O 1376.28 1.43887 1.03081 0
M  V30 14528 C 1373.41 2.95741 1.74334 0
M  V30 14529 C 1372.5 4.05452 1.24378 0
M  V30 14530 N 1372.89 5.03677 0.462921 0
M  V30 14531 C 1371.18 4.19166 1.52367 0
M  V30 14532 C 1371.89 5.81371 0.195709 0
M  V30 14533 N 1370.86 5.38001 0.778203 0
M  V30 14534 H 1374.66 2.93887 -0.0274771 0
M  V30 14535 H 1372.18 1.61987 -0.115773 0
M  V30 14536 H 1374.17 3.41556 2.39051 0
M  V30 14537 H 1372.83 2.23962 2.35098 0
M  V30 14538 H 1373.85 5.1779 0.106943 0
M  V30 14539 H 1370.52 3.58597 2.1381 0
M  V30 14540 H 1371.91 6.70509 -0.432064 0
M  V30 14541 N 1374.63 0.0384594 1.57553 0
M  V30 14542 C 1375.88 -0.63814 1.92182 0
M  V30 14543 C 1376.21 -1.71595 0.915714 0
M  V30 14544 O 1375.46 -1.9556 -0.0739533 0
M  V30 14545 C 1375.76 -1.28439 3.33524 0
M  V30 14546 C 1375.43 -0.336034 4.49646 0
M  V30 14547 C 1374.09 -0.0750373 4.81141 0
M  V30 14548 C 1376.44 0.314642 5.20249 0
M  V30 14549 C 1373.77 0.844286 5.80593 0
M  V30 14550 C 1376.12 1.22208 6.20684 0
M  V30 14551 C 1374.79 1.49187 6.50615 0
M  V30 14552 H 1374.06 -0.233512 0.703245 0
M  V30 14553 H 1376.7 0.102223 1.91227 0
M  V30 14554 H 1375.01 -2.09973 3.30785 0
M  V30 14555 H 1376.71 -1.81462 3.57593 0
M  V30 14556 H 1373.3 -0.549638 4.25061 0
M  V30 14557 H 1377.48 0.126074 4.9614 0
M  V30 14558 H 1372.74 1.06092 6.02125 0
M  V30 14559 H 1376.91 1.7324 6.74508 0
M  V30 14560 H 1374.54 2.20588 7.27492 0
M  V30 14561 N 1376.11 -1.55841 -0.234795 0
M  V30 14562 C 1377.34 -1.82649 -0.982547 0
M  V30 14563 C 1377.76 -0.617097 -1.77689 0
M  V30 14564 O 1377.12 0.434022 -1.76028 0
M  V30 14565 C 1377.17 -3.07319 -1.88646 0
M  V30 14566 O 1376.27 -2.85084 -2.97995 0
M  V30 14567 H 1375.61 -0.60257 -0.278936 0
M  V30 14568 H 1378.14 -2.03041 -0.252117 0
M  V30 14569 H 1378.15 -3.37073 -2.29882 0
M  V30 14570 H 1376.83 -3.94978 -1.30251 0
M  V30 14571 H 1375.4 -2.66528 -2.60801 0
M  V30 14572 N 1377.59 0.500963 -1.49426 0
M  V30 14573 C 1378.84 1.25261 -1.58601 0
M  V30 14574 C 1379.16 1.93056 -0.274647 0
M  V30 14575 O 1378.43 1.82736 0.706003 0
M  V30 14576 H 1377.01 0.465328 -0.584362 0
M  V30 14577 H 1379.67 0.580588 -1.86052 0
M  V30 14578 H 1378.77 2.01652 -2.38208 0
M  V30 14579 N 1379.07 1.38501 0.752011 0
M  V30 14580 C 1380 1.38577 1.87933 0
M  V30 14581 C 1380.98 0.251454 1.68231 0
M  V30 14582 O 1382.16 0.45477 1.888 0
M  V30 14583 C 1379.29 1.21164 3.25479 0
M  V30 14584 C 1378.25 2.31816 3.59785 0
M  V30 14585 C 1377.57 1.99508 4.96085 0
M  V30 14586 C 1378.87 3.74082 3.645 0
M  V30 14587 H 1380.57 2.32913 1.88127 0
M  V30 14588 H 1378.11 1.12113 0.903698 0
M  V30 14589 H 1380.07 1.19842 4.04 0
M  V30 14590 H 1378.79 0.232899 3.25769 0
M  V30 14591 H 1377.45 2.32327 2.83584 0
M  V30 14592 H 1377.1 1.00114 4.92936 0
M  V30 14593 H 1376.8 2.73617 5.20007 0
M  V30 14594 H 1378.32 1.99807 5.76983 0
M  V30 14595 H 1379.74 3.75593 4.33131 0
M  V30 14596 H 1378.13 4.47409 3.99931 0
M  V30 14597 H 1379.2 4.06284 2.64692 0
M  V30 14598 N 1380.55 -0.980364 1.23396 0
M  V30 14599 C 1381.79 -1.72166 1.06607 0
M  V30 14600 C 1382.12 -1.90405 -0.397029 0
M  V30 14601 O 1381.38 -1.45363 -1.31027 0
M  V30 14602 C 1381.67 -3.12367 1.73671 0
M  V30 14603 C 1381.34 -3.14007 3.2359 0
M  V30 14604 C 1380 -3.14162 3.64494 0
M  V30 14605 C 1382.35 -3.09319 4.19489 0
M  V30 14606 C 1379.68 -3.07345 4.99756 0
M  V30 14607 C 1382.03 -3.04044 5.54743 0
M  V30 14608 C 1380.7 -3.02521 5.9501 0
M  V30 14609 H 1379.97 -0.63 0.390104 0
M  V30 14610 H 1382.62 -1.14727 1.5333 0
M  V30 14611 H 1380.92 -3.73193 1.19308 0
M  V30 14612 H 1382.62 -3.68493 1.58159 0
M  V30 14613 H 1379.21 -3.14644 2.91028 0
M  V30 14614 H 1383.39 -3.08339 3.88897 0
M  V30 14615 H 1378.65 -3.04519 5.30168 0
M  V30 14616 H 1382.82 -2.99374 6.28767 0
M  V30 14617 H 1380.45 -2.96994 6.99785 0
M  V30 14618 N 1382.02 -1.04567 -1.17913 0
M  V30 14619 C 1383.27 -0.753137 -1.88297 0
M  V30 14620 C 1383.6 0.717651 -1.80453 0
M  V30 14621 O 1382.88 1.5242 -1.20824 0
M  V30 14622 C 1383.16 -1.22626 -3.38578 0
M  V30 14623 C 1383.01 -2.75952 -3.55205 0
M  V30 14624 C 1384.33 -0.82029 -4.32388 0
M  V30 14625 H 1381.45 -0.275067 -0.683745 0
M  V30 14626 H 1384.09 -1.29856 -1.38699 0
M  V30 14627 H 1382.24 -0.762246 -3.80949 0
M  V30 14628 H 1383.92 -3.30429 -3.21892 0
M  V30 14629 H 1382.16 -3.15534 -2.97693 0
M  V30 14630 H 1382.83 -3.04116 -4.60671 0
M  V30 14631 H 1385.31 -1.21965 -3.97824 0
M  V30 14632 H 1384.18 -1.17902 -5.36088 0
M  V30 14633 H 1384.44 0.276205 -4.41236 0
M  V30 14634 N 1383.5 1.34231 -0.825823 0
M  V30 14635 C 1384.43 2.31997 -0.264546 0
M  V30 14636 C 1385.41 1.58375 0.620592 0
M  V30 14637 O 1386.6 1.86341 0.546865 0
M  V30 14638 C 1383.73 3.42557 0.572025 0
M  V30 14639 C 1382.68 4.27454 -0.216219 0
M  V30 14640 C 1382.01 5.29509 0.743279 0
M  V30 14641 C 1383.31 5.02456 -1.42603 0
M  V30 14642 H 1385 2.79189 -1.08139 0
M  V30 14643 H 1382.55 1.34227 -0.521451 0
M  V30 14644 H 1384.5 4.09968 0.974889 0
M  V30 14645 H 1383.22 2.94021 1.42195 0
M  V30 14646 H 1381.88 3.61649 -0.600485 0
M  V30 14647 H 1381.53 4.77234 1.58924 0
M  V30 14648 H 1381.23 5.87188 0.220064 0
M  V30 14649 H 1382.76 5.99789 1.14394 0
M  V30 14650 H 1384.17 5.62706 -1.09702 0
M  V30 14651 H 1382.57 5.69723 -1.88509 0
M  V30 14652 H 1383.64 4.31983 -2.2027 0
M  V30 14653 N 1384.98 0.581051 1.46498 0
M  V30 14654 C 1385.91 -0.140957 2.33074 0
M  V30 14655 C 1386.89 -0.885323 1.45245 0
M  V30 14656 O 1388.08 -0.86111 1.74065 0
M  V30 14657 C 1385.21 -1.15625 3.27488 0
M  V30 14658 C 1384.16 -0.526829 4.24745 0
M  V30 14659 C 1383.49 -1.64847 5.08655 0
M  V30 14660 C 1384.79 0.53492 5.19554 0
M  V30 14661 H 1386.48 0.581888 2.93691 0
M  V30 14662 H 1384.03 0.281278 1.41226 0
M  V30 14663 H 1385.98 -1.6697 3.8691 0
M  V30 14664 H 1384.7 -1.90935 2.64974 0
M  V30 14665 H 1383.36 -0.0344738 3.66584 0
M  V30 14666 H 1383.01 -2.3912 4.42528 0
M  V30 14667 H 1382.71 -1.23298 5.74518 0
M  V30 14668 H 1384.23 -2.16472 5.7094 0
M  V30 14669 H 1385.65 0.106606 5.73201 0
M  V30 14670 H 1384.04 0.870639 5.93751 0
M  V30 14671 H 1385.11 1.42184 4.63586 0
M  V30 14672 N 1386.46 -1.54343 0.318742 0
M  V30 14673 C 1387.7 -2.0239 -0.285929 0
M  V30 14674 C 1388.06 -1.20197 -1.49722 0
M  V30 14675 O 1389.26 -1.58025 -2.17443 0
M  V30 14676 C 1387.53 -3.52044 -0.616446 0
M  V30 14677 S 1389.09 -4.22031 -1.20146 0
M  V30 14678 H 1385.91 -0.705685 -0.0867722 0
M  V30 14679 H 1388.51 -1.90233 0.450744 0
M  V30 14680 H 1387.22 -4.09489 0.273339 0
M  V30 14681 H 1386.75 -3.68272 -1.38344 0
M  V30 14682 H 1388.76 -4.29287 -2.48851 0
M  V30 14683 N 1387.94 -0.0468143 -1.5753 0
M  V30 14684 C 1389.18 0.627375 -1.91695 0
M  V30 14685 C 1389.5 1.72261 -0.926588 0
M  V30 14686 O 1390.7 2.45466 -1.16012 0
M  V30 14687 C 1389.16 1.16722 -3.40447 0
M  V30 14688 C 1388.77 0.104335 -4.47878 0
M  V30 14689 C 1390.51 1.81691 -3.83652 0
M  V30 14690 C 1388.42 0.656818 -5.87741 0
M  V30 14691 H 1387.35 0.238107 -0.715417 0
M  V30 14692 H 1390 -0.114995 -1.83139 0
M  V30 14693 H 1388.38 1.96177 -3.43992 0
M  V30 14694 H 1389.56 -0.669053 -4.55917 0
M  V30 14695 H 1387.87 -0.447633 -4.13987 0
M  V30 14696 H 1390.47 2.24014 -4.85512 0
M  V30 14697 H 1390.81 2.66686 -3.19663 0
M  V30 14698 H 1391.34 1.08898 -3.82604 0
M  V30 14699 H 1388.08 -0.155397 -6.55316 0
M  V30 14700 H 1387.6 1.39829 -5.83273 0
M  V30 14701 H 1389.28 1.14107 -6.36858 0
M  V30 14702 N 1389.41 1.55964 0.226527 0
M  V30 14703 C 1390.66 1.78392 0.94977 0
M  V30 14704 C 1390.98 0.614444 1.85066 0
M  V30 14705 O 1390.25 -0.368894 1.92395 0
M  V30 14706 H 1388.83 0.657962 0.353688 0
M  V30 14707 H 1391.5 1.93422 0.239577 0
M  V30 14708 H 1390.59 2.70343 1.55952 0
M  V30 14709 N 1390.89 -0.493031 1.4969 0
M  V30 14710 C 1392.14 -1.24664 1.59578 0
M  V30 14711 C 1392.47 -1.92385 0.286075 0
M  V30 14712 O 1391.72 -1.81712 -0.726586 0
M  V30 14713 C 1392.02 -2.33014 2.70997 0
M  V30 14714 C 1391.69 -1.82697 4.12229 0
M  V30 14715 C 1390.35 -1.68694 4.50662 0
M  V30 14716 C 1392.7 -1.45127 5.00587 0
M  V30 14717 C 1390.03 -1.15512 5.75216 0
M  V30 14718 C 1392.38 -0.933951 6.25668 0
M  V30 14719 C 1391.05 -0.780378 6.62923 0
M  V30 14720 H 1390.32 -0.456178 0.583937 0
M  V30 14721 H 1392.96 -0.546091 1.83549 0
M  V30 14722 H 1391.27 -3.08889 2.41029 0
M  V30 14723 H 1392.96 -2.91041 2.75855 0
M  V30 14724 H 1389.55 -1.94557 3.81897 0
M  V30 14725 H 1393.74 -1.5479 4.71544 0
M  V30 14726 H 1388.99 -1.0234 6.02774 0
M  V30 14727 H 1393.17 -0.634088 6.93507 0
M  V30 14728 H 1390.8 -0.366111 7.59318 0
M  V30 14729 N 1392.37 -1.38898 -0.744656 0
M  V30 14730 C 1393.62 -1.35327 -1.50104 0
M  V30 14731 C 1393.94 0.0532788 -1.94927 0
M  V30 14732 O 1393.21 1.0027 -1.68294 0
M  V30 14733 H 1391.79 -0.49797 -0.556808 0
M  V30 14734 H 1394.45 -1.73667 -0.884625 0
M  V30 14735 H 1393.55 -2.00983 -2.38773 0
M  V30 14736 N 1393.85 0.973806 -1.23914 0
M  V30 14737 C 1394.78 2.08526 -1.05068 0
M  V30 14738 C 1395.76 1.70065 0.0344761 0
M  V30 14739 O 1396.94 1.93755 -0.131432 0
M  V30 14740 C 1394.07 3.41198 -0.648165 0
M  V30 14741 C 1393.03 3.9359 -1.6814 0
M  V30 14742 C 1392.35 5.22534 -1.13414 0
M  V30 14743 C 1393.65 4.22116 -3.07597 0
M  V30 14744 H 1395.35 2.24551 -1.98034 0
M  V30 14745 H 1392.89 1.07905 -0.953546 0
M  V30 14746 H 1394.85 4.18383 -0.50334 0
M  V30 14747 H 1393.57 3.25056 0.317182 0
M  V30 14748 H 1392.23 3.18555 -1.81434 0
M  V30 14749 H 1391.88 5.02747 -0.159578 0
M  V30 14750 H 1391.58 5.58555 -1.82456 0
M  V30 14751 H 1393.1 6.02334 -1.0013 0
M  V30 14752 H 1394.52 4.90027 -2.97567 0
M  V30 14753 H 1392.91 4.69352 -3.73937 0
M  V30 14754 H 1393.98 3.29128 -3.56094 0
M  V30 14755 N 1395.33 1.05191 1.17357 0
M  V30 14756 C 1396.55 0.782343 1.92079 0
M  V30 14757 C 1396.98 -0.655957 1.76292 0
M  V30 14758 O 1396.33 -1.45573 1.08065 0
M  V30 14759 C 1396.38 1.16777 3.41168 0
M  V30 14760 O 1395.49 0.299908 4.11308 0
M  V30 14761 H 1394.83 0.286894 0.598822 0
M  V30 14762 H 1397.36 1.40476 1.48754 0
M  V30 14763 H 1397.37 1.13454 3.91909 0
M  V30 14764 H 1396.04 2.2155 3.51978 0
M  V30 14765 H 1394.62 0.393744 3.70815 0
M  V30 14766 N 1396.8 -1.33791 0.83293 0
M  V30 14767 C 1398.05 -1.97233 0.422127 0
M  V30 14768 C 1398.37 -1.66738 -1.02264 0
M  V30 14769 O 1399.57 -2.23747 -1.53783 0
M  V30 14770 C 1398.03 -3.5295 0.703872 0
M  V30 14771 C 1397.64 -3.92329 2.16292 0
M  V30 14772 C 1399.38 -4.22973 0.359727 0
M  V30 14773 C 1397.29 -5.40999 2.38903 0
M  V30 14774 H 1396.22 -0.738082 0.154112 0
M  V30 14775 H 1398.87 -1.52494 1.02068 0
M  V30 14776 H 1397.25 -3.95985 0.0350184 0
M  V30 14777 H 1398.42 -3.6037 2.87176 0
M  V30 14778 H 1396.74 -3.35271 2.46947 0
M  V30 14779 H 1399.34 -5.32297 0.506366 0
M  V30 14780 H 1399.68 -4.10428 -0.696743 0
M  V30 14781 H 1400.21 -3.85449 0.983568 0
M  V30 14782 H 1396.95 -5.58541 3.43093 0
M  V30 14783 H 1396.47 -5.74438 1.72573 0
M  V30 14784 H 1398.15 -6.07809 2.2176 0
M  V30 14785 N 1398.28 -0.588812 -1.46187 0
M  V30 14786 C 1399.21 0.128595 -2.33146 0
M  V30 14787 C 1400.19 0.877608 -1.45712 0
M  V30 14788 O 1401.38 0.851866 -1.74519 0
M  V30 14789 C 1398.51 1.13886 -3.28096 0
M  V30 14790 C 1397.46 0.504296 -4.25019 0
M  V30 14791 C 1396.79 1.62147 -5.09522 0
M  V30 14792 C 1398.09 -0.562466 -5.19263 0
M  V30 14793 H 1399.78 -0.597455 -2.93378 0
M  V30 14794 H 1397.33 -0.288764 -1.41075 0
M  V30 14795 H 1399.28 1.64916 -3.8779 0
M  V30 14796 H 1398.01 1.89527 -2.65983 0
M  V30 14797 H 1396.66 0.0150325 -3.66597 0
M  V30 14798 H 1396.31 2.36769 -4.4379 0
M  V30 14799 H 1396.01 1.20249 -5.75164 0
M  V30 14800 H 1397.54 2.13441 -5.7208 0
M  V30 14801 H 1398.95 -0.137003 -5.73136 0
M  V30 14802 H 1397.35 -0.902115 -5.93281 0
M  V30 14803 H 1398.42 -1.4464 -4.62825 0
M  V30 14804 N 1399.76 1.54172 -0.326923 0
M  V30 14805 C 1400.99 2.05044 0.276508 0
M  V30 14806 C 1401.4 1.20288 1.45521 0
M  V30 14807 O 1400.76 0.234324 1.80989 0
M  V30 14808 C 1400.81 3.54505 0.707714 0
M  V30 14809 O 1400.53 4.36042 -0.424098 0
M  V30 14810 C 1402.03 4.21482 1.3736 0
M  V30 14811 H 1399.25 0.668632 0.0563273 0
M  V30 14812 H 1401.8 1.98929 -0.474087 0
M  V30 14813 H 1399.95 3.60896 1.40828 0
M  V30 14814 H 1400.37 5.24433 -0.0836846 0
M  V30 14815 H 1401.84 5.27501 1.62623 0
M  V30 14816 H 1402.32 3.72802 2.32196 0
M  V30 14817 H 1402.92 4.19238 0.715526 0
M  V30 14818 N 1401.24 0.0551678 1.57503 0
M  V30 14819 C 1402.47 -0.6272 1.97164 0
M  V30 14820 C 1402.88 -1.64143 0.932876 0
M  V30 14821 O 1402.24 -1.82314 -0.0824465 0
M  V30 14822 C 1402.29 -1.31057 3.36907 0
M  V30 14823 O 1402.01 -0.336951 4.36802 0
M  V30 14824 C 1403.51 -2.08232 3.91349 0
M  V30 14825 H 1400.73 -0.171196 0.648793 0
M  V30 14826 H 1403.28 0.122651 2.04132 0
M  V30 14827 H 1401.43 -2.01162 3.31078 0
M  V30 14828 H 1401.84 -0.825204 5.17968 0
M  V30 14829 H 1403.32 -2.51463 4.91397 0
M  V30 14830 H 1403.8 -2.93212 3.26991 0
M  V30 14831 H 1404.4 -1.43029 4.00528 0
M  V30 14832 N 1402.72 -1.56081 -0.218252 0
M  V30 14833 C 1403.97 -1.78445 -0.94022 0
M  V30 14834 C 1404.28 -0.624317 -1.85369 0
M  V30 14835 O 1405.48 -0.731669 -2.61455 0
M  V30 14836 C 1403.94 -3.16026 -1.72208 0
M  V30 14837 C 1403.55 -4.39774 -0.854584 0
M  V30 14838 C 1405.29 -3.47714 -2.43506 0
M  V30 14839 C 1403.2 -5.68379 -1.63398 0
M  V30 14840 H 1402.13 -0.665303 -0.354806 0
M  V30 14841 H 1404.78 -1.82471 -0.194021 0
M  V30 14842 H 1403.16 -3.06185 -2.5113 0
M  V30 14843 H 1404.34 -4.60679 -0.105659 0
M  V30 14844 H 1402.65 -4.15627 -0.253562 0
M  V30 14845 H 1405.25 -4.41026 -3.02325 0
M  V30 14846 H 1405.59 -2.70367 -3.16555 0
M  V30 14847 H 1406.12 -3.58899 -1.71571 0
M  V30 14848 H 1402.86 -6.48628 -0.946704 0
M  V30 14849 H 1402.38 -5.5153 -2.35743 0
M  V30 14850 H 1404.06 -6.08672 -2.1938 0
M  V30 14851 N 1404.2 0.485086 -1.49949 0
M  V30 14852 C 1405.44 1.23571 -1.5992 0
M  V30 14853 C 1405.76 1.92754 -0.295108 0
M  V30 14854 O 1405.03 1.83474 0.686582 0
M  V30 14855 H 1403.61 0.459104 -0.589264 0
M  V30 14856 H 1406.28 0.560822 -1.86657 0
M  V30 14857 H 1405.37 1.99114 -2.40333 0
M  V30 14858 N 1405.67 1.39291 0.737279 0
M  V30 14859 C 1406.58 1.40098 1.88175 0
M  V30 14860 C 1407.6 0.296053 1.71463 0
M  V30 14861 O 1408.78 0.537153 1.94105 0
M  V30 14862 C 1405.84 1.24071 3.2374 0
M  V30 14863 C 1404.9 2.44515 3.52861 0
M  V30 14864 C 1404.13 2.29243 4.81958 0
M  V30 14865 O 1404.36 1.2947 5.55512 0
M  V30 14866 O 1403.29 3.18178 5.10927 0
M  V30 14867 H 1407.12 2.36565 1.90449 0
M  V30 14868 H 1404.7 1.20382 0.884786 0
M  V30 14869 H 1406.58 1.17257 4.04758 0
M  V30 14870 H 1405.26 0.30698 3.22241 0
M  V30 14871 H 1404.17 2.56905 2.71939 0
M  V30 14872 H 1405.5 3.36573 3.59137 0
M  V30 14873 N 1407.15 -0.967221 1.24429 0
M  V30 14874 C 1408.1 -2.047 1.00409 0
M  V30 14875 C 1409.09 -1.60807 -0.0546412 0
M  V30 14876 O 1410.28 -1.76283 0.159145 0
M  V30 14877 C 1407.41 -3.37813 0.611345 0
M  V30 14878 C 1406.49 -3.88266 1.70618 0
M  V30 14879 N 1406.88 -4.1165 2.93901 0
M  V30 14880 C 1405.18 -4.16931 1.5838 0
M  V30 14881 C 1405.88 -4.53032 3.64879 0
M  V30 14882 N 1404.86 -4.58233 2.92444 0
M  V30 14883 H 1408.66 -2.20755 1.94021 0
M  V30 14884 H 1406.17 -1.15105 1.14562 0
M  V30 14885 H 1408.17 -4.14774 0.420493 0
M  V30 14886 H 1406.83 -3.23143 -0.317588 0
M  V30 14887 H 1407.84 -3.99087 3.30075 0
M  V30 14888 H 1404.52 -4.11193 0.722929 0
M  V30 14889 H 1405.91 -4.79533 4.70635 0
M  V30 14890 N 1408.63 -1.05812 -1.16797 0
M  V30 14891 C 1409.88 -0.767008 -1.86547 0
M  V30 14892 C 1410.19 0.708979 -1.82299 0
M  V30 14893 O 1411.4 1.11428 -2.4758 0
M  V30 14894 C 1409.85 -1.32186 -3.34746 0
M  V30 14895 C 1409.46 -2.82774 -3.4748 0
M  V30 14896 C 1411.21 -1.10808 -4.09783 0
M  V30 14897 C 1409.11 -3.31529 -4.89737 0
M  V30 14898 H 1408.04 -0.283235 -0.698781 0
M  V30 14899 H 1410.69 -1.27621 -1.31853 0
M  V30 14900 H 1409.08 -0.740453 -3.89016 0
M  V30 14901 H 1410.25 -3.46825 -3.03396 0
M  V30 14902 H 1408.56 -3.02765 -2.85871 0
M  V30 14903 H 1411.16 -1.44728 -5.14741 0
M  V30 14904 H 1411.5 -0.046167 -4.16274 0
M  V30 14905 H 1412.04 -1.65502 -3.61737 0
M  V30 14906 H 1408.78 -4.37177 -4.88422 0
M  V30 14907 H 1408.3 -2.72224 -5.34466 0
M  V30 14908 H 1409.98 -3.26572 -5.58534 0
M  V30 14909 N 1410.11 1.33347 -0.840014 0
M  V30 14910 C 1411.35 1.98037 -0.43692 0
M  V30 14911 C 1411.69 1.66382 1.00154 0
M  V30 14912 O 1410.96 0.944311 1.70038 0
M  V30 14913 C 1411.24 3.54012 -0.65937 0
M  V30 14914 C 1411.1 3.9535 -2.14518 0
M  V30 14915 C 1412.42 4.39972 -0.106258 0
M  V30 14916 H 1409.54 0.719373 -0.160221 0
M  V30 14917 H 1412.18 1.57969 -1.05574 0
M  V30 14918 H 1410.33 3.88274 -0.132633 0
M  V30 14919 H 1412 3.7134 -2.73687 0
M  V30 14920 H 1410.24 3.4504 -2.62926 0
M  V30 14921 H 1410.91 5.03992 -2.25158 0
M  V30 14922 H 1413.39 4.12362 -0.556511 0
M  V30 14923 H 1412.27 5.48125 -0.291583 0
M  V30 14924 H 1412.53 4.30872 0.990032 0
M  V30 14925 N 1411.59 0.596556 1.45873 0
M  V30 14926 C 1412.82 0.093357 2.06389 0
M  V30 14927 C 1413.22 -1.2229 1.44367 0
M  V30 14928 O 1412.57 -1.75332 0.548131 0
M  V30 14929 C 1412.63 -0.132256 3.59257 0
M  V30 14930 C 1412.29 1.10051 4.43551 0
M  V30 14931 C 1413.29 2.01598 4.79223 0
M  V30 14932 C 1410.97 1.32625 4.84475 0
M  V30 14933 C 1412.97 3.14054 5.54661 0
M  V30 14934 C 1410.66 2.45384 5.5967 0
M  V30 14935 C 1411.65 3.35927 5.94678 0
M  V30 14936 O 1411.34 4.46726 6.6835 0
M  V30 14937 H 1411.07 0.0608944 0.673252 0
M  V30 14938 H 1413.63 0.821009 1.88278 0
M  V30 14939 H 1411.86 -0.914678 3.75727 0
M  V30 14940 H 1413.55 -0.585681 4.01652 0
M  V30 14941 H 1414.31 1.85379 4.48174 0
M  V30 14942 H 1410.19 0.630522 4.56668 0
M  V30 14943 H 1413.74 3.8475 5.81904 0
M  V30 14944 H 1409.63 2.6156 5.90133 0
M  V30 14945 H 1410.4 4.45268 6.86789 0
M  V30 14946 N 1413.06 -1.53996 0.335095 0
M  V30 14947 C 1414.48 -1.59591 -0.0171422 0
M  V30 14948 C 1414.68 -1.35132 -1.49471 0
M  V30 14949 O 1413.74 -1.14141 -2.25229 0
M  V30 14950 C 1415.05 -2.97872 0.411443 0
M  V30 14951 C 1416.6 -3.10887 0.363072 0
M  V30 14952 C 1417.07 -4.51532 0.766995 0
M  V30 14953 N 1418.56 -4.57557 0.72085 0
M  V30 14954 C 1419.3 -5.64516 1.00544 0
M  V30 14955 N 1418.79 -6.79365 1.35777 0
M  V30 14956 N 1420.59 -5.54349 0.930243 0
M  V30 14957 H 1412.74 -1.68151 1.29766 0
M  V30 14958 H 1415 -0.787067 0.528422 0
M  V30 14959 H 1414.71 -3.20809 1.44134 0
M  V30 14960 H 1414.58 -3.76571 -0.217678 0
M  V30 14961 H 1416.97 -2.87679 -0.657642 0
M  V30 14962 H 1417.05 -2.34266 1.02728 0
M  V30 14963 H 1416.69 -4.75474 1.78568 0
M  V30 14964 H 1416.62 -5.26539 0.0803511 0
M  V30 14965 H 1419.11 -3.75079 0.460867 0
M  V30 14966 H 1419.43 -7.56891 1.55999 0
M  V30 14967 H 1417.77 -6.80833 1.39614 0
M  V30 14968 H 1420.96 -4.63503 0.654402 0
M  V30 14969 H 1421.14 -6.37616 1.15539 0
M  V30 14970 N 1414.54 -0.0635198 -1.57472 0
M  V30 14971 C 1415.47 0.90431 -2.15278 0
M  V30 14972 C 1416.45 1.31609 -1.07764 0
M  V30 14973 O 1417.64 1.38861 -1.35762 0
M  V30 14974 C 1414.77 2.17483 -2.70774 0
M  V30 14975 C 1413.72 1.90272 -3.8338 0
M  V30 14976 C 1413.05 3.23885 -4.25444 0
M  V30 14977 C 1414.35 1.21454 -5.07983 0
M  V30 14978 H 1416.04 0.422786 -2.964 0
M  V30 14979 H 1413.59 0.201918 -1.42577 0
M  V30 14980 H 1415.54 2.856 -3.09856 0
M  V30 14981 H 1414.26 2.67863 -1.86861 0
M  V30 14982 H 1412.92 1.24564 -3.44789 0
M  V30 14983 H 1412.57 3.72089 -3.38465 0
M  V30 14984 H 1412.27 3.06472 -5.01347 0
M  V30 14985 H 1413.8 3.93212 -4.67137 0
M  V30 14986 H 1415.21 1.79625 -5.44433 0
M  V30 14987 H 1413.61 1.14327 -5.89109 0
M  V30 14988 H 1414.68 0.19238 -4.84518 0
M  V30 14989 N 1416.02 1.56195 0.209972 0
M  V30 14990 C 1416.95 1.96378 1.26324 0
M  V30 14991 C 1417.93 0.833606 1.48273 0
M  V30 14992 O 1419.12 1.0968 1.60262 0
M  V30 14993 C 1416.25 2.29048 2.61064 0
M  V30 14994 C 1415.2 3.44665 2.53752 0
M  V30 14995 C 1414.53 3.6297 3.92628 0
M  V30 14996 C 1415.83 4.79297 2.07536 0
M  V30 14997 H 1417.52 2.8461 0.929379 0
M  V30 14998 H 1415.07 1.36931 0.445627 0
M  V30 14999 H 1417.02 2.55752 3.34916 0
M  V30 15000 H 1415.74 1.37682 2.96161 0
M  V30 15001 H 1414.4 3.18028 1.82356 0
M  V30 15002 H 1414.05 2.68961 4.25052 0
M  V30 15003 H 1413.75 4.40741 3.88614 0
M  V30 15004 H 1415.27 3.92035 4.68125 0
M  V30 15005 H 1416.69 5.05131 2.71138 0
M  V30 15006 H 1415.08 5.60433 2.14557 0
M  V30 15007 H 1416.15 4.73877 1.02802 0
M  V30 15008 N 1417.5 -0.477127 1.50204 0
M  V30 15009 C 1418.43 -1.58405 1.71552 0
M  V30 15010 C 1419.41 -1.60463 0.564413 0
M  V30 15011 O 1420.59 -1.76826 0.802893 0
M  V30 15012 C 1417.72 -2.96765 1.8041 0
M  V30 15013 C 1416.68 -3.09573 2.95548 0
M  V30 15014 C 1416 -4.49522 2.89542 0
M  V30 15015 C 1417.3 -2.87356 4.36147 0
M  V30 15016 H 1419 -1.40792 2.64231 0
M  V30 15017 H 1416.54 -0.675886 1.27153 0
M  V30 15018 H 1418.5 -3.74125 1.9393 0
M  V30 15019 H 1417.22 -3.1552 0.843489 0
M  V30 15020 H 1415.88 -2.34645 2.81669 0
M  V30 15021 H 1415.53 -4.65186 1.91339 0
M  V30 15022 H 1415.23 -4.59028 3.66834 0
M  V30 15023 H 1416.75 -5.28909 3.05102 0
M  V30 15024 H 1418.17 -3.54469 4.50583 0
M  V30 15025 H 1416.56 -3.08313 5.14843 0
M  V30 15026 H 1417.63 -1.83264 4.48935 0
M  V30 15027 N 1418.98 -1.3968 -0.729882 0
M  V30 15028 C 1420.39 -1.33184 -1.30839 0
M  V30 15029 C 1420.74 0.00141129 -1.962 0
M  V30 15030 O 1419.86 0.903523 -1.96635 0
M  V30 15031 C 1420.46 -2.41211 -2.37913 0
M  V30 15032 C 1419.02 -2.3822 -2.91424 0
M  V30 15033 C 1418.16 -2.22832 -1.65049 0
M  V30 15034 H 1421.12 -1.49694 -0.527023 0
M  V30 15035 H 1421.14 -2.08294 -3.18424 0
M  V30 15036 H 1420.65 -3.38234 -1.90313 0
M  V30 15037 H 1418.75 -1.4485 -3.43292 0
M  V30 15038 H 1418.86 -3.33271 -3.44191 0
M  V30 15039 H 1417.23 -1.70095 -1.89578 0
M  V30 15040 H 1418.01 -3.21832 -1.19494 0
M  V30 15041 N 1420.45 0.960609 -1.2494 0
M  V30 15042 C 1421.87 1.23057 -1.01633 0
M  V30 15043 C 1422.07 1.99676 0.270527 0
M  V30 15044 O 1421.13 2.32503 0.984823 0
M  V30 15045 C 1422.44 2.01078 -2.2358 0
M  V30 15046 C 1423.99 2.14144 -2.28279 0
M  V30 15047 C 1424.46 2.95563 -3.49867 0
M  V30 15048 N 1425.95 3.03143 -3.50227 0
M  V30 15049 C 1426.69 3.66518 -4.40967 0
M  V30 15050 N 1426.18 4.31553 -5.41972 0
M  V30 15051 N 1427.98 3.636 -4.28663 0
M  V30 15052 H 1420.13 0.447876 -2.07624 0
M  V30 15053 H 1422.39 0.260581 -0.911483 0
M  V30 15054 H 1422.1 1.52172 -3.17075 0
M  V30 15055 H 1421.97 3.01797 -2.2627 0
M  V30 15056 H 1424.36 2.6225 -1.35311 0
M  V30 15057 H 1424.44 1.1275 -2.29611 0
M  V30 15058 H 1424.08 2.48149 -4.43153 0
M  V30 15059 H 1424.01 3.9717 -3.45779 0
M  V30 15060 H 1426.5 2.56888 -2.77159 0
M  V30 15061 H 1426.82 4.7775 -6.07433 0
M  V30 15062 H 1425.16 4.302 -5.45851 0
M  V30 15063 H 1428.35 3.11973 -3.48985 0
M  V30 15064 H 1428.53 4.12706 -4.99578 0
M  V30 15065 N 1421.93 1.0643 1.16234 0
M  V30 15066 C 1423.18 0.77689 1.86138 0
M  V30 15067 C 1423.49 -0.699301 1.82672 0
M  V30 15068 O 1424.7 -1.10113 2.48168 0
M  V30 15069 C 1423.16 1.3396 3.3404 0
M  V30 15070 C 1422.76 2.84613 3.45976 0
M  V30 15071 C 1424.51 1.12979 4.09189 0
M  V30 15072 C 1422.42 3.34122 4.87972 0
M  V30 15073 H 1421.35 0.286936 0.697269 0
M  V30 15074 H 1424 1.28318 1.31174 0
M  V30 15075 H 1422.38 0.761073 3.88618 0
M  V30 15076 H 1423.55 3.48429 3.01552 0
M  V30 15077 H 1421.87 3.04277 2.84262 0
M  V30 15078 H 1424.46 1.47456 5.13966 0
M  V30 15079 H 1424.81 0.0682424 4.16244 0
M  V30 15080 H 1425.34 1.67418 3.60855 0
M  V30 15081 H 1422.08 4.39761 4.86097 0
M  V30 15082 H 1421.6 2.75055 5.33015 0
M  V30 15083 H 1423.28 3.29529 5.56794 0
M  V30 15084 N 1423.41 -1.329 0.847073 0
M  V30 15085 C 1424.36 -2.29044 0.284199 0
M  V30 15086 C 1425.33 -1.54706 -0.604591 0
M  V30 15087 O 1426.51 -1.82966 -0.541116 0
M  V30 15088 C 1423.65 -3.4104 -0.527822 0
M  V30 15089 C 1422.77 -4.30273 0.385907 0
M  V30 15090 C 1421.9 -5.29391 -0.438009 0
M  V30 15091 C 1420.94 -6.10265 0.473596 0
M  V30 15092 N 1420.08 -7.01403 -0.312684 0
M  V30 15093 H 1424.92 -2.76582 1.10935 0
M  V30 15094 H 1422.45 -1.36085 0.558508 0
M  V30 15095 H 1424.41 -4.04686 -1.01417 0
M  V30 15096 H 1423.04 -2.94673 -1.31787 0
M  V30 15097 H 1422.09 -3.67275 0.99061 0
M  V30 15098 H 1423.41 -4.86837 1.08585 0
M  V30 15099 H 1422.56 -5.98604 -0.987842 0
M  V30 15100 H 1421.3 -4.73424 -1.17135 0
M  V30 15101 H 1420.3 -5.39963 1.03537 0
M  V30 15102 H 1421.53 -6.68316 1.20543 0
M  V30 15103 H 1419.47 -6.47875 -1.02926 0
M  V30 15104 H 1419.39 -7.55286 0.328376 0
M  V30 15105 H 1420.66 -7.74912 -0.844489 0
M  V30 15106 N 1424.89 -0.604284 -1.45555 0
M  V30 15107 C 1425.84 0.129013 -2.32242 0
M  V30 15108 C 1426.83 0.862933 -1.45773 0
M  V30 15109 O 1428.04 0.778874 -1.62276 0
M  V30 15110 H 1424.41 0.0604661 -0.749565 0
M  V30 15111 H 1426.38 -0.620603 -2.91875 0
M  V30 15112 C 1425.13 1.11516 -3.29332 0
M  V30 15113 H 1424.45 0.559849 -3.95861 0
M  V30 15114 H 1425.89 1.59824 -3.92724 0
M  V30 15115 C 1424.35 2.18706 -2.5626 0
M  V30 15116 O 1424.88 3.26397 -2.34154 0
M  V30 15117 N 1423.09 1.93899 -2.16452 0
M  V30 15118 H 1422.64 1.0633 -2.34631 0
M  V30 15119 H 1422.59 2.65824 -1.67884 0
M  V30 15120 N 1426.37 1.53816 -0.343257 0
M  V30 15121 C 1427.31 2.25011 0.513664 0
M  V30 15122 C 1428.28 1.24827 1.09578 0
M  V30 15123 O 1429.47 1.53558 1.13245 0
M  V30 15124 C 1426.61 3.02616 1.65885 0
M  V30 15125 C 1425.72 4.17653 1.10406 0
M  V30 15126 C 1424.86 4.82746 2.21653 0
M  V30 15127 C 1423.9 5.89853 1.63524 0
M  V30 15128 N 1423.03 6.48726 2.68512 0
M  V30 15129 H 1427.87 2.97832 -0.099997 0
M  V30 15130 H 1425.41 1.46973 -0.0611206 0
M  V30 15131 H 1427.37 3.45868 2.33304 0
M  V30 15132 H 1426 2.32092 2.2435 0
M  V30 15133 H 1425.05 3.79045 0.320819 0
M  V30 15134 H 1426.36 4.94691 0.638887 0
M  V30 15135 H 1425.52 5.29068 2.96938 0
M  V30 15136 H 1424.25 4.05131 2.71515 0
M  V30 15137 H 1423.26 5.42914 0.86745 0
M  V30 15138 H 1424.48 6.69375 1.14515 0
M  V30 15139 H 1422.43 5.73975 3.17629 0
M  V30 15140 H 1422.35 7.21236 2.26616 0
M  V30 15141 H 1423.62 6.99701 3.43567 0
M  V30 15142 N 1427.84 0.0718701 1.57436 0
M  V30 15143 C 1429.07 -0.609701 1.98236 0
M  V30 15144 C 1429.49 -1.6235 0.949959 0
M  V30 15145 O 1428.85 -1.81103 -0.0844281 0
M  V30 15146 C 1428.9 -1.2547 3.38068 0
M  V30 15147 O 1428 -2.37055 3.37459 0
M  V30 15148 H 1427.35 -0.15679 0.645223 0
M  V30 15149 H 1429.88 0.146407 2.04076 0
M  V30 15150 H 1429.89 -1.60152 3.75254 0
M  V30 15151 H 1428.56 -0.511842 4.12738 0
M  V30 15152 H 1427.14 -2.04165 3.12043 0
M  V30 15153 N 1429.32 -1.56304 -0.201686 0
M  V30 15154 C 1430.27 -1.94021 -1.24999 0
M  V30 15155 C 1431.24 -0.799926 -1.45569 0
M  V30 15156 O 1432.42 -1.05752 -1.58811 0
M  V30 15157 C 1429.56 -2.27935 -2.59113 0
M  V30 15158 C 1428.68 -3.54995 -2.46176 0
M  V30 15159 C 1427.81 -3.78262 -3.72949 0
M  V30 15160 C 1426.85 -4.9877 -3.54817 0
M  V30 15161 N 1425.99 -5.18325 -4.73586 0
M  V30 15162 H 1430.83 -2.834 -0.92134 0
M  V30 15163 H 1428.37 -1.40252 -0.44359 0
M  V30 15164 H 1430.32 -2.45613 -3.37239 0
M  V30 15165 H 1428.95 -1.41705 -2.90034 0
M  V30 15166 H 1428.01 -3.45401 -1.59381 0
M  V30 15167 H 1429.32 -4.43277 -2.28708 0
M  V30 15168 H 1428.47 -3.96144 -4.59516 0
M  V30 15169 H 1427.21 -2.88299 -3.93364 0
M  V30 15170 H 1426.22 -4.80818 -2.66635 0
M  V30 15171 H 1427.44 -5.90237 -3.35854 0
M  V30 15172 H 1425.39 -4.31308 -4.94277 0
M  V30 15173 H 1425.3 -6.00774 -4.58919 0
M  V30 15174 H 1426.57 -5.40659 -5.61523 0
M  V30 15175 N 1430.8 0.469154 -1.50455 0
M  V30 15176 C 1431.73 1.57493 -1.7239 0
M  V30 15177 C 1432.71 1.60161 -0.572915 0
M  V30 15178 O 1433.9 1.76397 -0.812259 0
M  V30 15179 C 1431.03 2.95804 -1.81981 0
M  V30 15180 C 1429.98 3.08001 -2.97185 0
M  V30 15181 C 1429.31 4.4798 -2.91922 0
M  V30 15182 C 1430.61 2.85039 -4.37665 0
M  V30 15183 H 1432.3 1.39389 -2.64974 0
M  V30 15184 H 1429.85 0.669133 -1.27509 0
M  V30 15185 H 1431.8 3.73091 -1.95911 0
M  V30 15186 H 1430.52 3.15068 -0.86021 0
M  V30 15187 H 1429.18 2.33148 -2.82909 0
M  V30 15188 H 1428.83 4.64165 -1.93803 0
M  V30 15189 H 1428.53 4.57076 -3.69263 0
M  V30 15190 H 1430.05 5.27284 -3.07903 0
M  V30 15191 H 1431.47 3.52074 -4.52456 0
M  V30 15192 H 1429.87 3.05578 -5.16471 0
M  V30 15193 H 1430.94 1.8088 -4.499 0
M  V30 15194 N 1432.28 1.40065 0.722464 0
M  V30 15195 C 1433.21 1.35695 1.84715 0
M  V30 15196 C 1434.22 0.263522 1.60653 0
M  V30 15197 O 1435.41 0.523382 1.70655 0
M  V30 15198 C 1432.51 1.08722 3.20987 0
M  V30 15199 C 1431.69 2.29586 3.72302 0
M  V30 15200 C 1430.74 1.98879 4.87169 0
M  V30 15201 O 1429.77 2.71681 5.00178 0
M  V30 15202 N 1430.97 0.962554 5.72464 0
M  V30 15203 H 1433.74 2.32621 1.88964 0
M  V30 15204 H 1431.3 1.3433 0.903723 0
M  V30 15205 H 1433.29 0.861772 3.95418 0
M  V30 15206 H 1431.86 0.204869 3.11928 0
M  V30 15207 H 1431.08 2.68004 2.8908 0
M  V30 15208 H 1432.37 3.10176 4.03322 0
M  V30 15209 H 1431.77 0.359452 5.64557 0
M  V30 15210 H 1430.32 0.797003 6.46909 0
M  V30 15211 N 1433.76 -0.95397 1.25448 0
M  V30 15212 C 1434.99 -1.7308 1.12814 0
M  V30 15213 C 1435.4 -1.86461 -0.320764 0
M  V30 15214 O 1434.74 -1.3623 -1.23236 0
M  V30 15215 C 1434.8 -3.16239 1.70976 0
M  V30 15216 C 1434.46 -3.26286 3.19979 0
M  V30 15217 C 1435.46 -3.10547 4.16961 0
M  V30 15218 C 1433.15 -3.50085 3.60202 0
M  V30 15219 C 1435.14 -3.18456 5.52146 0
M  V30 15220 C 1432.83 -3.5763 4.95524 0
M  V30 15221 C 1433.83 -3.4183 5.91305 0
M  V30 15222 O 1433.51 -3.49058 7.24164 0
M  V30 15223 H 1433.25 -0.549143 0.394231 0
M  V30 15224 H 1435.8 -1.20538 1.66312 0
M  V30 15225 H 1434.03 -3.70148 1.11926 0
M  V30 15226 H 1435.72 -3.75784 1.53432 0
M  V30 15227 H 1436.48 -2.92029 3.87226 0
M  V30 15228 H 1432.36 -3.61445 2.86145 0
M  V30 15229 H 1435.91 -3.0604 6.26885 0
M  V30 15230 H 1431.8 -3.75665 5.24925 0
M  V30 15231 H 1432.57 -3.65684 7.32269 0
M  V30 15232 N 1435.24 -1.07045 -1.15668 0
M  V30 15233 C 1436.48 -0.802736 -1.8689 0
M  V30 15234 C 1436.84 0.663897 -1.80583 0
M  V30 15235 O 1436.13 1.48076 -1.2159 0
M  V30 15236 C 1436.32 -1.24127 -3.35153 0
M  V30 15237 C 1436.15 -2.749 -3.55894 0
M  V30 15238 C 1434.92 -3.42466 -3.71544 0
M  V30 15239 C 1437.12 -3.73102 -3.53977 0
M  V30 15240 N 1435.1 -4.81912 -3.80308 0
M  V30 15241 C 1436.47 -4.98371 -3.68817 0
M  V30 15242 C 1438.53 -3.66304 -3.37233 0
M  V30 15243 C 1437.23 -6.17651 -3.68645 0
M  V30 15244 C 1439.26 -4.85045 -3.38357 0
M  V30 15245 C 1438.62 -6.09146 -3.53725 0
M  V30 15246 H 1434.72 -0.346254 -0.701165 0
M  V30 15247 H 1437.3 -1.36609 -1.3873 0
M  V30 15248 H 1435.47 -0.705653 -3.81936 0
M  V30 15249 H 1437.21 -0.92143 -3.94071 0
M  V30 15250 H 1433.96 -2.92871 -3.72187 0
M  V30 15251 H 1434.38 -5.54475 -3.88441 0
M  V30 15252 H 1439.03 -2.71306 -3.24273 0
M  V30 15253 H 1436.74 -7.12975 -3.80384 0
M  V30 15254 H 1440.33 -4.81458 -3.26634 0
M  V30 15255 H 1439.21 -6.99487 -3.54524 0
M  V30 15256 N 1436.71 1.32449 -0.85411 0
M  V30 15257 C 1437.64 2.31383 -0.313697 0
M  V30 15258 C 1438.62 1.59656 0.586858 0
M  V30 15259 O 1439.81 1.87459 0.507216 0
M  V30 15260 C 1436.94 3.43693 0.499235 0
M  V30 15261 C 1435.89 4.26899 -0.306839 0
M  V30 15262 C 1435.22 5.30966 0.630795 0
M  V30 15263 C 1436.52 4.99318 -1.53229 0
M  V30 15264 H 1438.21 2.76832 -1.14037 0
M  V30 15265 H 1435.76 1.33091 -0.549805 0
M  V30 15266 H 1437.71 4.11944 0.887709 0
M  V30 15267 H 1436.44 2.96971 1.35926 0
M  V30 15268 H 1435.1 3.60294 -0.677061 0
M  V30 15269 H 1434.74 4.80498 1.48765 0
M  V30 15270 H 1434.44 5.87522 0.0954635 0
M  V30 15271 H 1435.97 6.0208 1.01646 0
M  V30 15272 H 1437.38 5.60253 -1.21614 0
M  V30 15273 H 1435.78 5.65596 -2.00552 0
M  V30 15274 H 1436.85 4.27213 -2.29383 0
M  V30 15275 N 1438.19 0.611994 1.45232 0
M  V30 15276 C 1439.14 -0.125771 2.27653 0
M  V30 15277 C 1440.13 -0.834397 1.37574 0
M  V30 15278 O 1441.32 -0.72366 1.61531 0
M  V30 15279 C 1438.45 -1.11955 3.24532 0
M  V30 15280 C 1437.53 -0.411537 4.22099 0
M  V30 15281 N 1437.92 0.549272 5.02809 0
M  V30 15282 C 1436.22 -0.658514 4.41112 0
M  V30 15283 C 1436.92 0.965836 5.73626 0
M  V30 15284 N 1435.9 0.308649 5.42723 0
M  V30 15285 H 1439.7 0.612115 2.87455 0
M  V30 15286 H 1437.21 0.436003 1.56438 0
M  V30 15287 H 1439.21 -1.66253 3.82316 0
M  V30 15288 H 1437.87 -1.85795 2.6629 0
M  V30 15289 H 1438.88 0.926222 5.0955 0
M  V30 15290 H 1435.56 -1.38125 3.9399 0
M  V30 15291 H 1436.95 1.75853 6.48479 0
M  V30 15292 N 1439.67 -1.53632 0.351409 0
M  V30 15293 C 1440.9 -2.05458 -0.243852 0
M  V30 15294 C 1441.31 -1.22588 -1.43589 0
M  V30 15295 O 1440.67 -0.263088 -1.80594 0
M  V30 15296 C 1440.72 -3.55586 -0.651226 0
M  V30 15297 O 1440.44 -4.35313 0.493415 0
M  V30 15298 C 1441.94 -4.23614 -1.30637 0
M  V30 15299 H 1439.16 -0.669443 -0.0456828 0
M  V30 15300 H 1441.71 -1.98149 0.505675 0
M  V30 15301 H 1439.86 -3.63091 -1.35068 0
M  V30 15302 H 1440.28 -5.24234 0.167107 0
M  V30 15303 H 1441.75 -5.30022 -1.5421 0
M  V30 15304 H 1442.23 -3.76449 -2.26236 0
M  V30 15305 H 1442.83 -4.20323 -0.648738 0
M  V30 15306 N 1441.15 -0.0802183 -1.57396 0
M  V30 15307 C 1442.37 0.599179 -1.98556 0
M  V30 15308 C 1442.8 1.61844 -0.958555 0
M  V30 15309 O 1442.16 1.81146 0.0748226 0
M  V30 15310 C 1442.2 1.23675 -3.38728 0
M  V30 15311 O 1441.31 2.35262 -3.38712 0
M  V30 15312 H 1440.65 0.153366 -0.646045 0
M  V30 15313 H 1443.18 -0.157227 -2.03995 0
M  V30 15314 H 1443.19 1.5816 -3.76098 0
M  V30 15315 H 1441.86 0.489946 -4.13004 0
M  V30 15316 H 1440.44 2.02507 -3.13122 0
M  V30 15317 N 1442.63 1.56409 0.193394 0
M  V30 15318 C 1443.56 1.91211 1.26377 0
M  V30 15319 C 1444.57 0.802944 1.41622 0
M  V30 15320 O 1445.76 1.08136 1.42017 0
M  V30 15321 C 1442.86 2.13039 2.63567 0
M  V30 15322 C 1442.03 3.44192 2.69909 0
M  V30 15323 C 1441.09 3.55111 3.88307 0
M  V30 15324 O 1440.12 4.2792 3.75331 0
M  V30 15325 N 1441.32 2.88325 5.03834 0
M  V30 15326 H 1444.08 2.83624 0.968383 0
M  V30 15327 H 1441.65 1.57297 0.383302 0
M  V30 15328 H 1443.64 2.1763 3.41202 0
M  V30 15329 H 1442.21 1.27116 2.85588 0
M  V30 15330 H 1441.43 3.51452 1.78535 0
M  V30 15331 H 1442.72 4.30536 2.71139 0
M  V30 15332 H 1442.11 2.29003 5.17276 0
M  V30 15333 H 1440.67 2.98542 5.7941 0
M  V30 15334 N 1444.1 -0.461169 1.50702 0
M  V30 15335 C 1445.52 -0.795741 1.38348 0
M  V30 15336 C 1445.72 -1.96473 0.447263 0
M  V30 15337 O 1444.78 -2.52276 -0.106445 0
M  V30 15338 C 1446.09 -1.09849 2.79917 0
M  V30 15339 C 1447.64 -1.20435 2.88902 0
M  V30 15340 C 1448.11 -1.54017 4.31327 0
M  V30 15341 N 1449.6 -1.60989 4.34323 0
M  V30 15342 C 1450.34 -1.88498 5.41531 0
M  V30 15343 N 1449.83 -2.13959 6.58933 0
M  V30 15344 N 1451.63 -1.90082 5.28985 0
M  V30 15345 H 1443.78 0.309076 2.10139 0
M  V30 15346 H 1446.04 0.0757918 0.944965 0
M  V30 15347 H 1445.75 -0.312479 3.50309 0
M  V30 15348 H 1445.62 -2.03221 3.17775 0
M  V30 15349 H 1448.01 -1.98102 2.18723 0
M  V30 15350 H 1448.09 -0.250195 2.54573 0
M  V30 15351 H 1447.73 -0.768865 5.02047 0
M  V30 15352 H 1447.66 -2.50599 4.6315 0
M  V30 15353 H 1450.15 -1.43312 3.49672 0
M  V30 15354 H 1450.47 -2.34251 7.36442 0
M  V30 15355 H 1448.81 -2.11331 6.62091 0
M  V30 15356 H 1452 -1.69693 4.36259 0
M  V30 15357 H 1452.18 -2.11184 6.12622 0
M  V30 15358 N 1445.58 -1.40446 -0.715026 0
M  V30 15359 C 1446.51 -1.43511 -1.84193 0
M  V30 15360 C 1447.49 -0.295969 -1.67505 0
M  V30 15361 O 1448.68 -0.504667 -1.87528 0
M  V30 15362 C 1445.81 -1.29751 -3.22152 0
M  V30 15363 C 1444.76 -2.41274 -3.53512 0
M  V30 15364 C 1444.09 -2.12591 -4.90621 0
M  V30 15365 C 1445.39 -3.83614 -3.54454 0
M  V30 15366 H 1447.08 -2.37819 -1.81885 0
M  V30 15367 H 1444.63 -1.14469 -0.873655 0
M  V30 15368 H 1446.58 -1.30511 -4.0068 0
M  V30 15369 H 1445.3 -0.319189 -3.25037 0
M  V30 15370 H 1443.96 -2.39764 -2.77324 0
M  V30 15371 H 1443.61 -1.13148 -4.90109 0
M  V30 15372 H 1443.31 -2.87308 -5.1257 0
M  V30 15373 H 1444.84 -2.15034 -5.71483 0
M  V30 15374 H 1446.25 -3.86945 -4.23021 0
M  V30 15375 H 1444.65 -4.57855 -3.87929 0
M  V30 15376 H 1445.72 -4.13159 -2.53827 0
M  V30 15377 N 1447.06 0.947303 -1.25952 0
M  V30 15378 C 1448.01 2.03076 -1.03653 0
M  V30 15379 C 1448.99 1.60874 0.0290512 0
M  V30 15380 O 1450.19 1.76008 -0.187169 0
M  V30 15381 C 1447.31 3.36797 -0.66501 0
M  V30 15382 C 1446.4 3.85502 -1.76773 0
M  V30 15383 N 1446.79 4.06922 -3.00413 0
M  V30 15384 C 1445.09 4.14359 -1.64993 0
M  V30 15385 C 1445.79 4.4717 -3.7204 0
M  V30 15386 N 1444.77 4.53523 -2.99697 0
M  V30 15387 H 1448.57 2.17641 -1.97509 0
M  V30 15388 H 1446.08 1.13268 -1.16379 0
M  V30 15389 H 1448.08 4.14053 -0.486427 0
M  V30 15390 H 1446.74 3.23607 0.266138 0
M  V30 15391 H 1447.75 3.93786 -3.36383 0
M  V30 15392 H 1444.43 4.09991 -0.788254 0
M  V30 15393 H 1445.82 4.71985 -4.78205 0
M  V30 15394 N 1448.54 1.07657 1.15099 0
M  V30 15395 C 1449.95 0.802696 1.37945 0
M  V30 15396 C 1450.15 -0.591622 1.92619 0
M  V30 15397 O 1449.21 -1.34979 2.13394 0
M  V30 15398 C 1450.52 1.87907 2.34759 0
M  V30 15399 C 1452.07 1.90418 2.48415 0
M  V30 15400 C 1452.55 2.97148 3.48521 0
M  V30 15401 N 1454.04 2.96271 3.56059 0
M  V30 15402 C 1454.77 3.75498 4.33346 0
M  V30 15403 N 1454.27 4.64583 5.1394 0
M  V30 15404 N 1456.06 3.63831 4.28466 0
M  V30 15405 H 1448.21 1.97578 0.779537 0
M  V30 15406 H 1450.48 0.856978 0.405331 0
M  V30 15407 H 1450.18 2.8811 2.01707 0
M  V30 15408 H 1450.06 1.74183 3.34575 0
M  V30 15409 H 1452.44 0.908655 2.80762 0
M  V30 15410 H 1452.52 2.0822 1.48586 0
M  V30 15411 H 1452.17 3.96903 3.16908 0
M  V30 15412 H 1452.1 2.76593 4.48112 0
M  V30 15413 H 1454.59 2.31697 2.98538 0
M  V30 15414 H 1454.9 5.2166 5.70167 0
M  V30 15415 H 1453.25 4.6863 5.13236 0
M  V30 15416 H 1456.44 2.93609 3.6457 0
M  V30 15417 H 1456.61 4.25818 4.8845 0
M  V30 15418 N 1450.02 -1.31994 0.861122 0
M  V30 15419 C 1450.98 -2.27019 0.315421 0
M  V30 15420 C 1451.98 -1.51864 -0.528575 0
M  V30 15421 O 1453.17 -1.70867 -0.339154 0
M  V30 15422 C 1450.3 -3.36384 -0.553021 0
M  V30 15423 H 1451.49 -2.768 1.1542 0
M  V30 15424 H 1449.05 -1.42776 0.635982 0
M  V30 15425 H 1449.78 -2.91882 -1.41335 0
M  V30 15426 H 1449.57 -3.92067 0.0511919 0
M  V30 15427 H 1451.06 -4.07172 -0.927392 0
M  V30 15428 N 1451.49 -0.619688 -1.44906 0
M  V30 15429 C 1452.74 -0.117147 -2.0136 0
M  V30 15430 C 1453.06 1.2644 -1.49239 0
M  V30 15431 O 1454.26 1.86034 -1.97747 0
M  V30 15432 C 1452.72 -0.15871 -3.5955 0
M  V30 15433 C 1452.33 -1.54086 -4.20668 0
M  V30 15434 C 1454.07 0.287961 -4.23522 0
M  V30 15435 C 1451.98 -1.53816 -5.71047 0
M  V30 15436 H 1450.91 -0.040028 -0.752937 0
M  V30 15437 H 1453.56 -0.776802 -1.66247 0
M  V30 15438 H 1451.94 0.56783 -3.91908 0
M  V30 15439 H 1453.11 -2.29007 -3.99865 0
M  V30 15440 H 1451.43 -1.93065 -3.68938 0
M  V30 15441 H 1454.03 0.309351 -5.33804 0
M  V30 15442 H 1454.37 1.31305 -3.9505 0
M  V30 15443 H 1454.9 -0.385707 -3.95926 0
M  V30 15444 H 1451.64 -2.54124 -6.04236 0
M  V30 15445 H 1451.16 -0.831708 -5.94006 0
M  V30 15446 H 1452.84 -1.26708 -6.34472 0
M  V30 15447 N 1452.97 1.53444 -0.359552 0
M  V30 15448 C 1453.92 2.27053 0.504949 0
M  V30 15449 C 1454.91 1.29801 1.08849 0
M  V30 15450 O 1456.12 1.47451 1.03239 0
M  V30 15451 H 1452.5 0.729756 0.181549 0
M  V30 15452 H 1454.47 2.98082 -0.137719 0
M  V30 15453 C 1453.22 3.06815 1.63585 0
M  V30 15454 H 1452.54 3.81488 1.19611 0
M  V30 15455 H 1453.98 3.61508 2.21558 0
M  V30 15456 C 1452.44 2.17286 2.57466 0
M  V30 15457 O 1452.97 1.77961 3.60129 0
M  V30 15458 N 1451.17 1.82041 2.26516 0
M  V30 15459 H 1450.72 2.14218 1.43068 0
M  V30 15460 H 1450.68 1.22423 2.89586 0
M  V30 15461 N 1454.45 0.0885642 1.57351 0
M  V30 15462 C 1455.68 -0.585238 1.9845 0
M  V30 15463 C 1456.09 -1.62127 0.967483 0
M  V30 15464 O 1455.45 -1.82448 -0.0437565 0
M  V30 15465 C 1455.5 -1.23881 3.39611 0
M  V30 15466 O 1455.22 -0.244223 4.37419 0
M  V30 15467 C 1456.72 -1.99885 3.95678 0
M  V30 15468 H 1453.94 -0.157396 0.652279 0
M  V30 15469 H 1456.49 0.165923 2.03826 0
M  V30 15470 H 1454.64 -1.94094 3.3527 0
M  V30 15471 H 1455.06 -0.715149 5.19602 0
M  V30 15472 H 1456.53 -2.40983 4.9662 0
M  V30 15473 H 1457.01 -2.8621 3.33137 0
M  V30 15474 H 1457.61 -1.34501 4.03472 0
M  V30 15475 N 1455.93 -1.56509 -0.185096 0
M  V30 15476 C 1457.15 -1.85683 -0.923941 0
M  V30 15477 C 1457.58 -0.673315 -1.75636 0
M  V30 15478 O 1456.94 0.3778 -1.7732 0
M  V30 15479 C 1456.98 -3.13165 -1.78774 0
M  V30 15480 O 1456.09 -2.9442 -2.88775 0
M  V30 15481 H 1455.43 -0.611139 -0.259624 0
M  V30 15482 H 1457.96 -2.0374 -0.187393 0
M  V30 15483 H 1457.97 -3.44216 -2.19042 0
M  V30 15484 H 1456.64 -3.98922 -1.17619 0
M  V30 15485 H 1455.22 -2.7469 -2.5219 0
M  V30 15486 N 1457.41 0.45317 -1.50944 0
M  V30 15487 C 1458.65 1.20389 -1.62827 0
M  V30 15488 C 1458.98 1.91559 -0.336982 0
M  V30 15489 O 1458.24 1.83574 0.678153 0
M  V30 15490 C 1458.54 2.25747 -2.7708 0
M  V30 15491 C 1458.2 1.71703 -4.16928 0
M  V30 15492 C 1456.86 1.56686 -4.54976 0
M  V30 15493 C 1459.22 1.31804 -5.04259 0
M  V30 15494 C 1456.54 1.0022 -5.78077 0
M  V30 15495 C 1458.9 0.767738 -6.27924 0
M  V30 15496 C 1457.56 0.604341 -6.64759 0
M  V30 15497 H 1456.83 0.440536 -0.595827 0
M  V30 15498 H 1459.48 0.497234 -1.84932 0
M  V30 15499 H 1457.78 3.0239 -2.49134 0
M  V30 15500 H 1459.48 2.83625 -2.83475 0
M  V30 15501 H 1456.07 1.84364 -3.86921 0
M  V30 15502 H 1460.25 1.42233 -4.75482 0
M  V30 15503 H 1455.51 0.863228 -6.05275 0
M  V30 15504 H 1459.68 0.449994 -6.94945 0
M  V30 15505 H 1457.31 0.164663 -7.60022 0
M  V30 15506 N 1458.88 1.40823 0.707568 0
M  V30 15507 C 1460.13 1.38837 1.46312 0
M  V30 15508 C 1460.45 -0.00353939 1.956 0
M  V30 15509 O 1461.65 -0.146022 2.71107 0
M  V30 15510 C 1460.11 2.44052 2.64512 0
M  V30 15511 C 1459.72 3.89093 2.2206 0
M  V30 15512 C 1461.46 2.51185 3.42208 0
M  V30 15513 C 1459.37 4.85887 3.37147 0
M  V30 15514 H 1458.3 0.516263 0.549535 0
M  V30 15515 H 1460.95 1.66595 0.769302 0
M  V30 15516 H 1459.33 2.09406 3.36103 0
M  V30 15517 H 1460.5 4.32925 1.57837 0
M  V30 15518 H 1458.82 3.8551 1.57388 0
M  V30 15519 H 1461.42 3.20687 4.2786 0
M  V30 15520 H 1461.76 1.54488 3.86574 0
M  V30 15521 H 1462.29 2.84862 2.77666 0
M  V30 15522 H 1459.03 5.83946 2.97805 0
M  V30 15523 H 1458.55 4.46713 4.00259 0
M  V30 15524 H 1460.23 5.06084 4.03098 0
M  V30 15525 N 1460.36 -0.94061 1.26453 0
M  V30 15526 C 1461.27 -2.07298 1.09839 0
M  V30 15527 C 1462.29 -1.73971 0.0317477 0
M  V30 15528 O 1463.46 -2.00017 0.235594 0
M  V30 15529 C 1460.53 -3.38847 0.733736 0
M  V30 15530 C 1459.59 -3.85954 1.87985 0
M  V30 15531 C 1458.82 -5.11224 1.5325 0
M  V30 15532 O 1459.05 -5.68743 0.434491 0
M  V30 15533 O 1457.98 -5.53386 2.36743 0
M  V30 15534 H 1461.81 -2.24222 2.04837 0
M  V30 15535 H 1459.39 -1.05763 1.0552 0
M  V30 15536 H 1461.27 -4.17885 0.543131 0
M  V30 15537 H 1459.95 -3.2316 -0.186843 0
M  V30 15538 H 1458.86 -3.07858 2.12542 0
M  V30 15539 H 1460.19 -4.06162 2.78017 0
M  V30 15540 N 1461.84 -1.08266 -1.14527 0
M  V30 15541 C 1462.75 -0.723043 -2.2318 0
M  V30 15542 C 1463.77 0.269819 -1.71895 0
M  V30 15543 O 1464.94 0.114126 -2.01076 0
M  V30 15544 C 1462.01 -0.136229 -3.46432 0
M  V30 15545 C 1461.07 -1.18352 -4.12664 0
M  V30 15546 C 1460.3 -0.624612 -5.30032 0
M  V30 15547 O 1460.52 0.556377 -5.6768 0
M  V30 15548 O 1459.46 -1.37397 -5.86008 0
M  V30 15549 H 1463.28 -1.6294 -2.56289 0
M  V30 15550 H 1460.87 -0.856235 -1.22429 0
M  V30 15551 H 1462.75 0.18829 -4.20979 0
M  V30 15552 H 1461.43 0.74331 -3.1505 0
M  V30 15553 H 1460.33 -1.56054 -3.39997 0
M  V30 15554 H 1461.67 -2.03528 -4.48148 0
M  V30 15555 N 1463.32 1.31536 -0.86811 0
M  V30 15556 C 1464.27 2.28562 -0.320602 0
M  V30 15557 C 1465.24 1.55648 0.579902 0
M  V30 15558 O 1466.42 1.83804 0.51194 0
M  V30 15559 C 1463.56 3.41836 0.473499 0
M  V30 15560 C 1462.67 4.29604 -0.454311 0
M  V30 15561 C 1461.81 5.30021 0.353733 0
M  V30 15562 C 1460.85 6.09434 -0.570624 0
M  V30 15563 N 1459.99 7.01812 0.201058 0
M  V30 15564 H 1464.83 2.74782 -1.15322 0
M  V30 15565 H 1462.36 1.35179 -0.580088 0
M  V30 15566 H 1464.32 4.06248 0.949662 0
M  V30 15567 H 1462.95 2.96732 1.27083 0
M  V30 15568 H 1462 3.65653 -1.04892 0
M  V30 15569 H 1463.31 4.85048 -1.16316 0
M  V30 15570 H 1462.47 6.001 0.892484 0
M  V30 15571 H 1461.21 4.75228 1.09589 0
M  V30 15572 H 1460.21 5.38247 -1.12115 0
M  V30 15573 H 1461.44 6.66314 -1.3116 0
M  V30 15574 H 1459.38 6.49431 0.926058 0
M  V30 15575 H 1459.3 7.54668 -0.448494 0
M  V30 15576 H 1460.57 7.76157 0.7211 0
M  V30 15577 N 1464.8 0.627364 1.44575 0
M  V30 15578 C 1465.73 -0.118179 2.28895 0
M  V30 15579 C 1466.74 -0.812569 1.41071 0
M  V30 15580 O 1467.93 -0.674646 1.6526 0
M  V30 15581 C 1465.03 -1.18937 3.17344 0
M  V30 15582 C 1464.2 -0.578226 4.33561 0
M  V30 15583 C 1463.26 -1.54288 5.03072 0
M  V30 15584 O 1462.29 -1.06148 5.59215 0
M  V30 15585 N 1463.49 -2.87725 5.04177 0
M  V30 15586 H 1466.26 0.605442 2.93521 0
M  V30 15587 H 1463.82 0.468253 1.54981 0
M  V30 15588 H 1465.81 -1.83494 3.60711 0
M  V30 15589 H 1464.38 -1.81526 2.54494 0
M  V30 15590 H 1463.6 0.245883 3.93432 0
M  V30 15591 H 1464.89 -0.150502 5.08577 0
M  V30 15592 H 1464.29 -3.29421 4.5989 0
M  V30 15593 H 1462.84 -3.47653 5.51344 0
M  V30 15594 N 1466.28 -1.53251 0.367684 0
M  V30 15595 C 1467.21 -2.23396 -0.512539 0
M  V30 15596 C 1468.22 -1.2488 -1.04446 0
M  V30 15597 O 1469.41 -1.5109 -0.950477 0
M  V30 15598 C 1466.51 -2.91971 -1.72064 0
M  V30 15599 C 1465.68 -4.17011 -1.31986 0
M  V30 15600 C 1464.74 -4.68779 -2.39025 0
M  V30 15601 O 1463.77 -5.32405 -2.01328 0
M  V30 15602 N 1464.97 -4.46773 -3.7064 0
M  V30 15603 H 1467.73 -2.9957 0.0883152 0
M  V30 15604 H 1465.3 -1.60746 0.192966 0
M  V30 15605 H 1467.29 -3.23511 -2.43152 0
M  V30 15606 H 1465.86 -2.19237 -2.22831 0
M  V30 15607 H 1465.08 -3.91751 -0.438732 0
M  V30 15608 H 1466.37 -4.98298 -1.02842 0
M  V30 15609 H 1465.76 -3.95938 -4.04042 0
M  V30 15610 H 1464.32 -4.82857 -4.37827 0
M  V30 15611 N 1467.75 -0.0969077 -1.57302 0
M  V30 15612 C 1468.7 0.872039 -2.10664 0
M  V30 15613 C 1469.69 1.24265 -1.02211 0
M  V30 15614 O 1470.88 1.21743 -1.28482 0
M  V30 15615 C 1468.01 2.13042 -2.69199 0
M  V30 15616 C 1467.09 1.78517 -3.84698 0
M  V30 15617 N 1467.49 1.14558 -4.92656 0
M  V30 15618 C 1465.78 2.08115 -3.94467 0
M  V30 15619 C 1466.48 0.986837 -5.73268 0
M  V30 15620 N 1465.46 1.50473 -5.22359 0
M  V30 15621 H 1469.26 0.373625 -2.91515 0
M  V30 15622 H 1466.78 0.10625 -1.62052 0
M  V30 15623 H 1468.77 2.83403 -3.05759 0
M  V30 15624 H 1467.43 2.63448 -1.89803 0
M  V30 15625 H 1468.44 0.812179 -5.11492 0
M  V30 15626 H 1465.12 2.60722 -3.26083 0
M  V30 15627 H 1466.51 0.48651 -6.70136 0
M  V30 15628 N 1469.23 1.56605 0.176793 0
M  V30 15629 C 1470.48 1.81682 0.894302 0
M  V30 15630 C 1470.81 0.67311 1.82481 0
M  V30 15631 O 1470.06 -0.339995 1.92724 0
M  V30 15632 C 1470.36 3.12888 1.7273 0
M  V30 15633 C 1470.03 4.40861 0.946186 0
M  V30 15634 C 1468.69 4.75622 0.730586 0
M  V30 15635 C 1471.04 5.19679 0.397889 0
M  V30 15636 C 1468.37 5.86683 -0.0444995 0
M  V30 15637 C 1470.72 6.31551 -0.36408 0
M  V30 15638 C 1469.38 6.64883 -0.59053 0
M  V30 15639 H 1468.65 0.664823 0.327248 0
M  V30 15640 H 1471.3 1.90834 0.159555 0
M  V30 15641 H 1469.61 2.99055 2.53128 0
M  V30 15642 H 1471.3 3.295 2.2854 0
M  V30 15643 H 1467.89 4.13592 1.12426 0
M  V30 15644 H 1472.08 4.93223 0.55181 0
M  V30 15645 H 1467.33 6.10968 -0.229739 0
M  V30 15646 H 1471.51 6.91833 -0.796223 0
M  V30 15647 H 1469.13 7.50781 -1.19301 0
M  V30 15648 N 1470.71 -0.445159 1.51182 0
M  V30 15649 C 1471.66 -1.53975 1.71931 0
M  V30 15650 C 1472.63 -1.56344 0.560865 0
M  V30 15651 O 1473.81 -1.73475 0.794414 0
M  V30 15652 C 1470.95 -2.91756 1.84316 0
M  V30 15653 C 1470.06 -2.98976 3.11829 0
M  V30 15654 C 1469.2 -4.27831 3.14855 0
M  V30 15655 C 1468.24 -4.2889 4.36715 0
M  V30 15656 N 1467.38 -5.49257 4.37334 0
M  V30 15657 H 1472.22 -1.35586 2.65368 0
M  V30 15658 H 1469.75 -0.658787 1.31523 0
M  V30 15659 H 1471.71 -3.7169 1.89479 0
M  V30 15660 H 1470.34 -3.08721 0.942947 0
M  V30 15661 H 1469.39 -2.11753 3.16014 0
M  V30 15662 H 1470.7 -2.95619 4.01759 0
M  V30 15663 H 1469.86 -5.16134 3.1889 0
M  V30 15664 H 1468.6 -4.33833 2.228 0
M  V30 15665 H 1467.6 -3.38982 4.32864 0
M  V30 15666 H 1468.83 -4.24558 5.30026 0
M  V30 15667 H 1466.77 -5.55995 3.48145 0
M  V30 15668 H 1466.69 -5.47748 5.21064 0
M  V30 15669 H 1467.96 -6.39613 4.45551 0
M  V30 15670 N 1472.19 -1.41197 -0.700089 0
M  V30 15671 C 1473.42 -1.43658 -1.48896 0
M  V30 15672 C 1473.83 -0.0405771 -1.88756 0
M  V30 15673 O 1473.19 0.93909 -1.56484 0
M  V30 15674 C 1473.24 -2.34125 -2.75441 0
M  V30 15675 O 1472.96 -3.68291 -2.37261 0
M  V30 15676 C 1474.46 -2.45342 -3.69218 0
M  V30 15677 H 1471.68 -0.48945 -0.458999 0
M  V30 15678 H 1474.22 -1.85429 -0.862345 0
M  V30 15679 H 1472.38 -1.95674 -3.34351 0
M  V30 15680 H 1472.79 -4.16495 -3.18798 0
M  V30 15681 H 1474.27 -3.12818 -4.54807 0
M  V30 15682 H 1474.74 -1.48327 -4.13395 0
M  V30 15683 H 1475.35 -2.84409 -3.16214 0
M  V30 15684 N 1473.67 0.933891 -1.2695 0
M  V30 15685 C 1474.61 2.03365 -1.09139 0
M  V30 15686 C 1475.58 1.66099 0.00573029 0
M  V30 15687 O 1476.77 1.90166 -0.155425 0
M  V30 15688 C 1473.91 3.37114 -0.738117 0
M  V30 15689 C 1473.02 3.87372 -1.91224 0
M  V30 15690 C 1472.16 5.0954 -1.50141 0
M  V30 15691 C 1471.19 5.52079 -2.64339 0
M  V30 15692 N 1470.33 6.65446 -2.23887 0
M  V30 15693 H 1475.17 2.17932 -2.03248 0
M  V30 15694 H 1472.71 1.0677 -1.01186 0
M  V30 15695 H 1474.67 4.1402 -0.514141 0
M  V30 15696 H 1473.3 3.22373 0.166007 0
M  V30 15697 H 1472.35 3.06801 -2.24894 0
M  V30 15698 H 1473.66 4.14875 -2.76912 0
M  V30 15699 H 1472.81 5.93928 -1.23831 0
M  V30 15700 H 1471.55 4.838 -0.615539 0
M  V30 15701 H 1470.56 4.66244 -2.9137 0
M  V30 15702 H 1471.78 5.79817 -3.53537 0
M  V30 15703 H 1469.73 6.41376 -1.37744 0
M  V30 15704 H 1469.65 6.92573 -3.03116 0
M  V30 15705 H 1470.91 7.53191 -2.00809 0
M  V30 15706 N 1475.14 1.08871 1.13951 0
M  V30 15707 C 1476.56 0.817282 1.37086 0
M  V30 15708 C 1476.76 -0.571159 1.93236 0
M  V30 15709 O 1475.82 -1.32708 2.14813 0
M  V30 15710 C 1477.13 1.90386 2.32752 0
M  V30 15711 C 1478.68 1.93043 2.46381 0
M  V30 15712 C 1479.15 3.00828 3.4535 0
M  V30 15713 N 1480.64 3.0003 3.52897 0
M  V30 15714 C 1481.38 3.80073 4.29339 0
M  V30 15715 N 1480.87 4.70008 5.08984 0
M  V30 15716 N 1482.67 3.68355 4.24583 0
M  V30 15717 H 1474.82 1.98393 0.758537 0
M  V30 15718 H 1477.08 0.861229 0.396219 0
M  V30 15719 H 1476.79 2.90233 1.9864 0
M  V30 15720 H 1476.66 1.77722 3.32708 0
M  V30 15721 H 1479.05 0.938382 2.79783 0
M  V30 15722 H 1479.13 2.09785 1.4637 0
M  V30 15723 H 1478.77 4.00242 3.1268 0
M  V30 15724 H 1478.7 2.8133 4.45153 0
M  V30 15725 H 1481.19 2.3485 2.96064 0
M  V30 15726 H 1481.51 5.27678 5.64602 0
M  V30 15727 H 1479.85 4.74047 5.08236 0
M  V30 15728 H 1483.04 2.9746 3.61435 0
M  V30 15729 H 1483.22 4.30974 4.83906 0
M  V30 15730 N 1476.62 -1.31073 0.875073 0
M  V30 15731 C 1477.87 -1.96809 0.489273 0
M  V30 15732 C 1478.2 -1.68979 -0.957073 0
M  V30 15733 O 1477.48 -0.989061 -1.67475 0
M  V30 15734 C 1477.76 -3.52139 0.752998 0
M  V30 15735 C 1477.61 -3.89524 2.24925 0
M  V30 15736 C 1478.93 -4.39535 0.222871 0
M  V30 15737 H 1476.05 -0.714873 0.179238 0
M  V30 15738 H 1478.69 -1.55114 1.09725 0
M  V30 15739 H 1476.84 -3.87785 0.23553 0
M  V30 15740 H 1478.51 -3.63953 2.83436 0
M  V30 15741 H 1476.76 -3.37948 2.71981 0
M  V30 15742 H 1477.43 -4.97845 2.38441 0
M  V30 15743 H 1479.9 -4.10741 0.665645 0
M  V30 15744 H 1478.78 -5.47159 0.436806 0
M  V30 15745 H 1479.04 -4.33346 -0.875445 0
M  V30 15746 N 1478.1 -0.635022 -1.4424 0
M  V30 15747 C 1479.01 0.0686832 -2.34499 0
M  V30 15748 C 1480.03 0.831574 -1.52843 0
M  V30 15749 O 1481.2 0.782954 -1.85558 0
M  V30 15750 C 1478.27 1.03543 -3.30877 0
M  V30 15751 C 1477.33 0.271484 -4.28441 0
M  V30 15752 C 1476.56 1.19218 -5.20214 0
M  V30 15753 O 1476.78 2.43101 -5.16002 0
M  V30 15754 O 1475.72 0.6744 -5.9811 0
M  V30 15755 H 1479.54 -0.673781 -2.96132 0
M  V30 15756 H 1477.13 -0.395211 -1.44078 0
M  V30 15757 H 1479.01 1.59151 -3.90191 0
M  V30 15758 H 1477.69 1.75844 -2.71773 0
M  V30 15759 H 1476.59 -0.327736 -3.72662 0
M  V30 15760 H 1477.93 -0.411584 -4.90476 0
M  V30 15761 N 1479.58 1.53054 -0.375806 0
M  V30 15762 C 1480.53 2.2605 0.46582 0
M  V30 15763 C 1481.5 1.27123 1.06906 0
M  V30 15764 O 1482.68 1.55926 1.09963 0
M  V30 15765 C 1479.82 3.06066 1.59429 0
M  V30 15766 C 1478.93 4.19901 1.01523 0
M  V30 15767 C 1478.07 4.87339 2.11363 0
M  V30 15768 C 1477.11 5.93189 1.50976 0
M  V30 15769 N 1476.24 6.54276 2.54692 0
M  V30 15770 H 1481.08 2.97553 -0.163149 0
M  V30 15771 H 1478.62 1.4681 -0.092282 0
M  V30 15772 H 1480.58 3.50739 2.25915 0
M  V30 15773 H 1479.21 2.36799 2.19377 0
M  V30 15774 H 1478.26 3.7964 0.240346 0
M  V30 15775 H 1479.57 4.95935 0.533812 0
M  V30 15776 H 1478.73 5.35247 2.85649 0
M  V30 15777 H 1477.47 4.10799 2.6286 0
M  V30 15778 H 1476.47 5.44632 0.752095 0
M  V30 15779 H 1477.7 6.71654 1.00291 0
M  V30 15780 H 1475.64 5.80584 3.05383 0
M  V30 15781 H 1475.56 7.2588 2.11267 0
M  V30 15782 H 1476.83 7.06831 3.28648 0
M  V30 15783 N 1481.06 0.105248 1.57248 0
M  V30 15784 C 1482.47 -0.251385 1.57608 0
M  V30 15785 C 1482.67 -1.677 1.11709 0
M  V30 15786 O 1481.73 -2.39552 0.798182 0
M  V30 15787 C 1483.04 -0.0305755 3.00684 0
M  V30 15788 C 1484.59 -0.0975409 3.12848 0
M  V30 15789 C 1485.06 0.0954024 4.57901 0
M  V30 15790 N 1486.56 0.040908 4.63182 0
M  V30 15791 C 1487.29 0.165298 5.73162 0
M  V30 15792 N 1486.79 0.345091 6.9194 0
M  V30 15793 N 1488.58 0.105847 5.62 0
M  V30 15794 H 1480.73 1.03658 1.85388 0
M  V30 15795 H 1482.99 0.407074 0.856151 0
M  V30 15796 H 1482.7 0.954461 3.38501 0
M  V30 15797 H 1482.57 -0.768477 3.69289 0
M  V30 15798 H 1484.96 -1.07309 2.74898 0
M  V30 15799 H 1485.04 0.672017 2.46815 0
M  V30 15800 H 1484.69 1.06786 4.96547 0
M  V30 15801 H 1484.62 -0.693974 5.22007 0
M  V30 15802 H 1487.11 -0.0951009 3.7778 0
M  V30 15803 H 1487.42 0.431243 7.71596 0
M  V30 15804 H 1485.76 0.38089 6.93955 0
M  V30 15805 H 1488.96 -0.0335544 4.68088 0
M  V30 15806 H 1489.13 0.206235 6.47672 0
M  V30 15807 N 1482.53 -1.56697 -0.168486 0
M  V30 15808 C 1483.76 -1.86652 -0.904195 0
M  V30 15809 C 1484.18 -0.691906 -1.74912 0
M  V30 15810 O 1483.54 0.358971 -1.77711 0
M  V30 15811 C 1483.59 -3.15043 -1.75442 0
M  V30 15812 O 1482.69 -2.97466 -2.85636 0
M  V30 15813 H 1482.04 -0.613859 -0.253128 0
M  V30 15814 H 1484.57 -2.03927 -0.165773 0
M  V30 15815 H 1484.58 -3.4652 -2.15378 0
M  V30 15816 H 1483.25 -4.00147 -1.13381 0
M  V30 15817 H 1481.83 -2.7735 -2.49262 0
M  V30 15818 N 1484.01 0.437135 -1.51416 0
M  V30 15819 C 1484.96 1.55124 -1.73319 0
M  V30 15820 C 1485.95 1.58437 -0.599511 0
M  V30 15821 O 1487.16 1.62179 -0.780896 0
M  V30 15822 H 1483.54 0.515368 -0.547632 0
M  V30 15823 H 1485.51 1.33824 -2.66709 0
M  V30 15824 C 1484.26 2.92778 -1.87554 0
M  V30 15825 H 1483.58 2.9096 -2.74194 0
M  V30 15826 H 1485.02 3.70097 -2.06891 0
M  V30 15827 C 1483.48 3.30854 -0.635408 0
M  V30 15828 O 1484.01 4.01152 0.20983 0
M  V30 15829 N 1482.21 2.86618 -0.47944 0
M  V30 15830 H 1481.76 2.29582 -1.16834 0
M  V30 15831 H 1481.72 3.12456 0.349078 0
M  V30 15832 N 1485.49 1.41566 0.692592 0
M  V30 15833 C 1486.74 1.41292 1.4548 0
M  V30 15834 C 1487.07 0.0229093 1.94186 0
M  V30 15835 O 1486.34 -0.949849 1.6973 0
M  V30 15836 C 1486.63 2.42225 2.66457 0
M  V30 15837 C 1486.48 3.90345 2.23496 0
M  V30 15838 C 1487.8 2.40374 3.68658 0
M  V30 15839 H 1484.92 0.51453 0.527663 0
M  V30 15840 H 1487.56 1.72862 0.788598 0
M  V30 15841 H 1485.71 2.15435 3.23296 0
M  V30 15842 H 1487.38 4.2805 1.71962 0
M  V30 15843 H 1485.63 4.05068 1.55249 0
M  V30 15844 H 1486.3 4.56518 3.10314 0
M  V30 15845 H 1488.77 2.64156 3.21498 0
M  V30 15846 H 1487.65 3.13004 4.5091 0
M  V30 15847 H 1487.91 1.42338 4.1856 0
M  V30 15848 N 1486.97 -0.927146 1.27443 0
M  V30 15849 C 1488.22 -1.67159 1.13589 0
M  V30 15850 C 1488.54 -1.92379 -0.31865 0
M  V30 15851 O 1487.81 -1.53045 -1.22287 0
M  V30 15852 H 1486.39 -0.619524 0.417371 0
M  V30 15853 H 1489.05 -1.11323 1.59979 0
M  V30 15854 H 1488.15 -2.63954 1.66537 0
M  V30 15855 N 1488.45 -1.09474 -1.13372 0
M  V30 15856 C 1489.86 -0.850378 -1.66209 0
M  V30 15857 C 1490.21 0.621071 -1.86111 0
M  V30 15858 O 1489.33 1.47837 -1.58029 0
M  V30 15859 C 1489.93 -1.53713 -3.01924 0
M  V30 15860 C 1488.49 -1.33972 -3.5175 0
M  V30 15861 C 1487.63 -1.5929 -2.26985 0
M  V30 15862 H 1490.59 -1.25383 -0.972874 0
M  V30 15863 H 1490.61 -0.970503 -3.67915 0
M  V30 15864 H 1490.12 -2.60804 -2.87407 0
M  V30 15865 H 1488.22 -0.289998 -3.7147 0
M  V30 15866 H 1488.33 -2.0749 -4.31839 0
M  V30 15867 H 1486.7 -1.01505 -2.336 0
M  V30 15868 H 1487.48 -2.67611 -2.15033 0
M  V30 15869 N 1489.92 1.30607 -0.882012 0
M  V30 15870 C 1491.34 1.48859 -0.575599 0
M  V30 15871 C 1491.54 1.80908 0.887388 0
M  V30 15872 O 1490.6 1.89492 1.6688 0
M  V30 15873 C 1491.91 2.61405 -1.48619 0
M  V30 15874 C 1493.46 2.75286 -1.48951 0
M  V30 15875 C 1493.93 3.90942 -2.38596 0
M  V30 15876 N 1495.42 3.98248 -2.36543 0
M  V30 15877 C 1496.16 4.87041 -3.0262 0
M  V30 15878 N 1495.65 5.80651 -3.77911 0
M  V30 15879 N 1497.45 4.80385 -2.91867 0
M  V30 15880 H 1489.6 1.08076 -1.82848 0
M  V30 15881 H 1491.86 0.535148 -0.782509 0
M  V30 15882 H 1491.57 2.44535 -2.52775 0
M  V30 15883 H 1491.44 3.57818 -1.19358 0
M  V30 15884 H 1493.83 2.91564 -0.455477 0
M  V30 15885 H 1493.91 1.79504 -1.82242 0
M  V30 15886 H 1493.55 3.75422 -3.42083 0
M  V30 15887 H 1493.48 4.86057 -2.02623 0
M  V30 15888 H 1495.97 3.31282 -1.81827 0
M  V30 15889 H 1496.29 6.45159 -4.25428 0
M  V30 15890 H 1494.63 5.80592 -3.82019 0
M  V30 15891 H 1497.82 4.06234 -2.32576 0
M  V30 15892 H 1498 5.49377 -3.43641 0
M  V30 15893 N 1491.4 0.642663 1.43901 0
M  V30 15894 C 1492.33 -0.0938945 2.29008 0
M  V30 15895 C 1493.35 -0.797561 1.41925 0
M  V30 15896 O 1494.54 -0.65708 1.65966 0
M  V30 15897 C 1491.64 -1.15564 3.18588 0
M  V30 15898 C 1490.81 -0.532208 4.3415 0
M  V30 15899 C 1489.87 -1.48943 5.0468 0
M  V30 15900 O 1488.89 -1.00211 5.60309 0
M  V30 15901 N 1490.1 -2.82362 5.072 0
M  V30 15902 H 1492.86 0.636539 2.92862 0
M  V30 15903 H 1490.42 0.484665 1.54475 0
M  V30 15904 H 1492.41 -1.79658 3.62636 0
M  V30 15905 H 1490.98 -1.78816 2.56405 0
M  V30 15906 H 1490.2 0.287598 3.93149 0
M  V30 15907 H 1491.49 -0.0965526 5.08708 0
M  V30 15908 H 1490.89 -3.24524 4.63358 0
M  V30 15909 H 1489.45 -3.41786 5.55001 0
M  V30 15910 N 1492.88 -1.52852 0.383918 0
M  V30 15911 C 1493.81 -2.29213 -0.44539 0
M  V30 15912 C 1494.79 -1.3238 -1.06815 0
M  V30 15913 O 1495.98 -1.61269 -1.08194 0
M  V30 15914 C 1493.11 -3.09497 -1.57573 0
M  V30 15915 C 1492.06 -4.14168 -1.07928 0
M  V30 15916 C 1491.39 -4.82644 -2.30128 0
M  V30 15917 C 1492.69 -5.22082 -0.151035 0
M  V30 15918 H 1494.38 -2.98786 0.19172 0
M  V30 15919 H 1491.93 -1.43695 0.0936471 0
M  V30 15920 H 1493.88 -3.61672 -2.16267 0
M  V30 15921 H 1492.6 -2.37647 -2.24034 0
M  V30 15922 H 1491.26 -3.62966 -0.514909 0
M  V30 15923 H 1490.91 -4.07348 -2.95087 0
M  V30 15924 H 1490.61 -5.53388 -1.97574 0
M  V30 15925 H 1492.14 -5.37621 -2.89475 0
M  V30 15926 H 1493.55 -5.69649 -0.646003 0
M  V30 15927 H 1491.95 -6.00041 0.0844833 0
M  V30 15928 H 1493.02 -4.78228 0.801618 0
M  V30 15929 N 1494.36 -0.113586 -1.5719 0
M  V30 15930 C 1495.59 0.553592 -1.99356 0
M  V30 15931 C 1496 1.60567 -0.993154 0
M  V30 15932 O 1495.36 1.82494 0.0147252 0
M  V30 15933 C 1495.41 1.18462 -3.41539 0
M  V30 15934 O 1495.13 0.174602 -4.37752 0
M  V30 15935 C 1496.63 1.93564 -3.98808 0
M  V30 15936 H 1493.85 0.146998 -0.6547 0
M  V30 15937 H 1496.4 -0.198329 -2.03536 0
M  V30 15938 H 1494.55 1.88736 -3.38316 0
M  V30 15939 H 1494.97 0.632395 -5.20674 0
M  V30 15940 H 1496.44 2.33051 -5.00391 0
M  V30 15941 H 1496.92 2.80874 -3.37648 0
M  V30 15942 H 1497.52 1.28066 -4.0556 0
M  V30 15943 N 1495.84 1.56784 0.160173 0
M  V30 15944 C 1497.08 1.82891 0.876278 0
M  V30 15945 C 1497.42 0.693173 1.81408 0
M  V30 15946 O 1496.69 -0.304136 1.92107 0
M  V30 15947 C 1496.97 3.19439 1.66226 0
M  V30 15948 C 1496.83 4.43557 0.746831 0
M  V30 15949 C 1498.15 3.53053 2.62758 0
M  V30 15950 H 1495.27 0.665285 0.31712 0
M  V30 15951 H 1497.91 1.89469 0.142004 0
M  V30 15952 H 1496.06 3.13962 2.28823 0
M  V30 15953 H 1497.73 4.61109 0.132876 0
M  V30 15954 H 1495.97 4.33764 0.0555625 0
M  V30 15955 H 1496.64 5.35675 1.33253 0
M  V30 15956 H 1499.12 3.59054 2.10284 0
M  V30 15957 H 1498 4.4965 3.14811 0
M  V30 15958 H 1498.26 2.78329 3.4349 0
M  V30 15959 N 1497.32 -0.429099 1.51646 0
M  V30 15960 C 1498.56 -1.17644 1.65926 0
M  V30 15961 C 1498.92 -1.88715 0.374777 0
M  V30 15962 O 1498.21 -1.80952 -0.629842 0
M  V30 15963 C 1498.4 -2.2131 2.80636 0
M  V30 15964 C 1498.23 -1.60416 4.20115 0
M  V30 15965 C 1497 -1.38551 4.85934 0
M  V30 15966 C 1499.2 -1.07589 5.0292 0
M  V30 15967 N 1497.18 -0.733404 6.09503 0
M  V30 15968 C 1498.55 -0.549542 6.1756 0
M  V30 15969 C 1500.61 -0.968438 4.88391 0
M  V30 15970 C 1499.31 0.07371 7.19262 0
M  V30 15971 C 1501.34 -0.359068 5.90309 0
M  V30 15972 C 1500.7 0.156699 7.04226 0
M  V30 15973 H 1496.8 -0.417871 0.66099 0
M  V30 15974 H 1499.38 -0.471789 1.88897 0
M  V30 15975 H 1497.55 -2.89155 2.59314 0
M  V30 15976 H 1499.29 -2.88263 2.84054 0
M  V30 15977 H 1496.04 -1.64953 4.43945 0
M  V30 15978 H 1496.46 -0.424555 6.75667 0
M  V30 15979 H 1501.11 -1.35305 4.00565 0
M  V30 15980 H 1498.82 0.470433 8.0673 0
M  V30 15981 H 1502.41 -0.277718 5.81137 0
M  V30 15982 H 1501.29 0.62081 7.81739 0
M  V30 15983 N 1498.79 -1.41931 -0.685074 0
M  V30 15984 C 1499.74 -1.44824 -1.82013 0
M  V30 15985 C 1500.74 -0.325083 -1.66252 0
M  V30 15986 O 1501.94 -0.497614 -1.72985 0
M  V30 15987 H 1498.32 -0.453362 -0.599972 0
M  V30 15988 H 1500.29 -2.40464 -1.76691 0
M  V30 15989 C 1499.04 -1.35753 -3.20104 0
M  V30 15990 H 1498.36 -2.21469 -3.32854 0
M  V30 15991 H 1499.8 -1.41838 -3.99572 0
M  V30 15992 C 1498.26 -0.0710816 -3.36825 0
M  V30 15993 O 1498.79 0.880155 -3.91939 0
M  V30 15994 N 1496.99 0.00842652 -2.90599 0
M  V30 15995 H 1496.54 -0.766427 -2.45934 0
M  V30 15996 H 1496.5 0.868559 -3.02165 0
M  V30 15997 N 1500.27 0.920374 -1.27933 0
M  V30 15998 C 1501.5 1.70275 -1.17533 0
M  V30 15999 C 1501.91 1.86904 0.266903 0
M  V30 16000 O 1501.27 1.39131 1.18105 0
M  V30 16001 C 1501.32 3.09847 -1.86219 0
M  V30 16002 O 1501.04 2.93992 -3.24808 0
M  V30 16003 C 1502.54 4.042 -1.82037 0
M  V30 16004 H 1499.76 0.53248 -0.408297 0
M  V30 16005 H 1502.31 1.1524 -1.68938 0
M  V30 16006 H 1500.46 3.61719 -1.38701 0
M  V30 16007 H 1500.88 3.82281 -3.59112 0
M  V30 16008 H 1502.35 4.99621 -2.34697 0
M  V30 16009 H 1502.83 4.32013 -0.791295 0
M  V30 16010 H 1503.43 3.58254 -2.29203 0
M  V30 16011 N 1501.75 1.10074 1.1279 0
M  V30 16012 C 1502.97 0.863106 1.88587 0
M  V30 16013 C 1503.4 -0.580595 1.78915 0
M  V30 16014 O 1502.76 -1.40859 1.14142 0
M  V30 16015 C 1502.81 1.31142 3.35908 0
M  V30 16016 O 1501.91 0.474088 4.09666 0
M  V30 16017 H 1501.25 0.312034 0.586115 0
M  V30 16018 H 1503.78 1.46659 1.42662 0
M  V30 16019 H 1503.79 1.29974 3.86744 0
M  V30 16020 H 1502.47 2.36279 3.42265 0
M  V30 16021 H 1501.04 0.550665 3.68812 0
M  V30 16022 N 1503.23 -1.30138 0.888926 0
M  V30 16023 C 1504.18 -2.29979 0.348212 0
M  V30 16024 C 1505.17 -1.60329 -0.546894 0
M  V30 16025 O 1506.38 -1.74767 -0.43089 0
M  V30 16026 H 1502.75 -0.746107 0.0939563 0
M  V30 16027 H 1504.72 -2.73038 1.20385 0
M  V30 16028 C 1503.47 -3.45169 -0.418762 0
M  V30 16029 H 1502.79 -3.98949 0.260761 0
M  V30 16030 H 1504.23 -4.17094 -0.762133 0
M  V30 16031 C 1502.69 -2.95539 -1.61734 0
M  V30 16032 O 1503.22 -2.95902 -2.7167 0
M  V30 16033 N 1501.43 -2.51502 -1.45585 0
M  V30 16034 H 1500.98 -2.51406 -0.561483 0
M  V30 16035 H 1500.93 -2.18654 -2.25916 0
M  V30 16036 N 1504.71 -0.650285 -1.43559 0
M  V30 16037 C 1505.64 0.0295939 -2.33481 0
M  V30 16038 C 1506.62 0.815017 -1.49303 0
M  V30 16039 O 1507.8 0.77708 -1.77975 0
M  V30 16040 C 1504.93 0.998683 -3.32631 0
M  V30 16041 C 1503.89 0.323577 -4.26775 0
M  V30 16042 C 1503.21 1.40391 -5.1594 0
M  V30 16043 C 1504.51 -0.782197 -5.1641 0
M  V30 16044 H 1506.21 -0.721349 -2.9058 0
M  V30 16045 H 1503.75 -0.348339 -1.39723 0
M  V30 16046 H 1505.7 1.4832 -3.94435 0
M  V30 16047 H 1504.43 1.78075 -2.73782 0
M  V30 16048 H 1503.09 -0.140467 -3.66331 0
M  V30 16049 H 1502.74 2.17734 -4.53432 0
M  V30 16050 H 1502.44 0.957462 -5.79747 0
M  V30 16051 H 1503.96 1.88985 -5.80618 0
M  V30 16052 H 1505.37 -0.379966 -5.72039 0
M  V30 16053 H 1503.77 -1.15293 -5.88921 0
M  V30 16054 H 1504.84 -1.6414 -4.56274 0
M  V30 16055 N 1506.18 1.52647 -0.392018 0
M  V30 16056 C 1507.41 2.06511 0.191815 0
M  V30 16057 C 1507.83 1.26162 1.39516 0
M  V30 16058 O 1507.19 0.287373 1.79008 0
M  V30 16059 C 1507.24 3.56571 0.537512 0
M  V30 16060 O 1506.34 3.78774 1.63106 0
M  V30 16061 H 1505.68 0.663647 0.0216546 0
M  V30 16062 H 1508.21 1.96779 -0.560274 0
M  V30 16063 H 1508.22 4.00059 0.801044 0
M  V30 16064 H 1506.9 4.14489 -0.342239 0
M  V30 16065 H 1505.48 3.47175 1.36103 0
M  V30 16066 N 1507.66 0.121921 1.57128 0
M  V30 16067 C 1508.61 -0.838414 2.12025 0
M  V30 16068 C 1509.6 -1.22623 1.04175 0
M  V30 16069 O 1510.79 -1.19683 1.30403 0
M  V30 16070 C 1507.92 -2.08733 2.72554 0
M  V30 16071 C 1507 -1.72374 3.87489 0
M  V30 16072 N 1507.39 -1.06706 4.94416 0
M  V30 16073 C 1505.69 -2.01813 3.97728 0
M  V30 16074 C 1506.39 -0.89551 5.74766 0
M  V30 16075 N 1505.37 -1.42144 5.24687 0
M  V30 16076 H 1509.17 -0.3272 2.92073 0
M  V30 16077 H 1506.69 -0.0804553 1.62201 0
M  V30 16078 H 1508.68 -2.78503 3.10229 0
M  V30 16079 H 1507.34 -2.60395 1.9397 0
M  V30 16080 H 1508.35 -0.730702 5.12719 0
M  V30 16081 H 1505.03 -2.55502 3.3019 0
M  V30 16082 H 1506.42 -0.379836 6.70826 0
M  V30 16083 N 1509.14 -1.56867 -0.151857 0
M  V30 16084 C 1510.42 -1.7399 -0.893694 0
M  V30 16085 C 1510.8 -0.688628 -1.99552 0
M  V30 16086 O 1510.15 0.293289 -2.2661 0
M  V30 16087 C 1510.36 -3.1788 -1.44061 0
M  V30 16088 C 1511.7 -3.7942 -1.90592 0
M  V30 16089 O 1512.73 -3.21279 -1.53813 0
M  V30 16090 O 1511.59 -4.81549 -2.58404 0
M  V30 16091 H 1508.68 -0.711229 -0.421998 0
M  V30 16092 H 1511.23 -1.69137 -0.138162 0
M  V30 16093 H 1510 -3.85888 -0.648529 0
M  V30 16094 H 1509.62 -3.27139 -2.25978 0
M  V30 16095 N 1510.62 0.421051 -1.51871 0
M  V30 16096 C 1511.57 1.53277 -1.74954 0
M  V30 16097 C 1512.56 1.57792 -0.616282 0
M  V30 16098 O 1513.77 1.61342 -0.798054 0
M  V30 16099 H 1510.14 0.50953 -0.553067 0
M  V30 16100 H 1512.11 1.30988 -2.68113 0
M  V30 16101 C 1510.86 2.90772 -1.90649 0
M  V30 16102 H 1510.18 2.88035 -2.77265 0
M  V30 16103 H 1511.62 3.67882 -2.10805 0
M  V30 16104 C 1510.08 3.30161 -0.670463 0
M  V30 16105 O 1510.61 4.01352 0.167271 0
M  V30 16106 N 1508.82 2.86093 -0.509813 0
M  V30 16107 H 1508.37 2.28329 -1.19262 0
M  V30 16108 H 1508.32 3.12809 0.315918 0
M  V30 16109 N 1512.1 1.42293 0.677538 0
M  V30 16110 C 1513.51 1.25158 0.990334 0
M  V30 16111 C 1513.71 0.153803 2.00912 0
M  V30 16112 O 1512.77 -0.475868 2.47975 0
M  V30 16113 C 1514.08 2.60745 1.49775 0
M  V30 16114 C 1515.63 2.68077 1.61566 0
M  V30 16115 C 1516.1 4.04024 2.15705 0
M  V30 16116 N 1517.6 4.05964 2.23042 0
M  V30 16117 C 1518.33 5.07968 2.66 0
M  V30 16118 N 1517.83 6.20356 3.08432 0
M  V30 16119 N 1519.62 4.95325 2.65725 0
M  V30 16120 H 1511.77 2.124 0.00295822 0
M  V30 16121 H 1514.03 0.945848 0.06384 0
M  V30 16122 H 1513.74 3.41919 0.823672 0
M  V30 16123 H 1513.61 2.84476 2.47695 0
M  V30 16124 H 1516 1.87251 2.28082 0
M  V30 16125 H 1516.08 2.48137 0.621434 0
M  V30 16126 H 1515.73 4.85306 1.498 0
M  V30 16127 H 1515.66 4.21314 3.15914 0
M  V30 16128 H 1518.15 3.24827 1.93122 0
M  V30 16129 H 1518.46 6.94043 3.39889 0
M  V30 16130 H 1516.8 6.23865 3.06296 0
M  V30 16131 H 1520 4.06599 2.31936 0
M  V30 16132 H 1520.17 5.74954 2.98884 0
M  V30 16133 N 1513.57 -0.913576 1.28419 0
M  V30 16134 C 1514.99 -1.192 1.0613 0
M  V30 16135 C 1515.19 -2.00542 -0.196232 0
M  V30 16136 O 1514.25 -2.35998 -0.897853 0
M  V30 16137 C 1515.56 -1.92642 2.30889 0
M  V30 16138 C 1517.11 -2.05524 2.3607 0
M  V30 16139 C 1517.58 -2.82374 3.60595 0
M  V30 16140 N 1519.07 -2.89935 3.61236 0
M  V30 16141 C 1519.81 -3.49899 4.54266 0
M  V30 16142 N 1519.3 -4.11141 5.57615 0
M  V30 16143 N 1521.1 -3.4744 4.41862 0
M  V30 16144 H 1513.25 -0.370509 2.09143 0
M  V30 16145 H 1515.51 -0.226573 0.920526 0
M  V30 16146 H 1515.22 -1.40299 3.22504 0
M  V30 16147 H 1515.09 -2.93191 2.37316 0
M  V30 16148 H 1517.48 -2.57047 1.44951 0
M  V30 16149 H 1517.56 -1.0415 2.33637 0
M  V30 16150 H 1517.2 -2.3153 4.52058 0
M  V30 16151 H 1517.13 -3.84063 3.60282 0
M  V30 16152 H 1519.62 -2.46424 2.86502 0
M  V30 16153 H 1519.94 -4.54877 6.24746 0
M  V30 16154 H 1518.28 -4.09645 5.61441 0
M  V30 16155 H 1521.47 -2.98806 3.60323 0
M  V30 16156 H 1521.65 -3.9388 5.14551 0
M  V30 16157 N 1515.05 -1.1067 -1.12204 0
M  V30 16158 C 1516 -0.757745 -2.18007 0
M  V30 16159 C 1516.97 0.26706 -1.63939 0
M  V30 16160 O 1518.15 0.145789 -1.90242 0
M  V30 16161 C 1515.29 -0.198379 -3.44529 0
M  V30 16162 C 1514.41 -1.27878 -4.12639 0
M  V30 16163 C 1513.54 -0.6808 -5.26819 0
M  V30 16164 C 1512.58 -1.74161 -5.868 0
M  V30 16165 N 1511.72 -1.16372 -6.92389 0
M  V30 16166 H 1516.56 -1.66418 -2.47202 0
M  V30 16167 H 1514.1 -0.831216 -1.21364 0
M  V30 16168 H 1516.05 0.143838 -4.16952 0
M  V30 16169 H 1514.68 0.671279 -3.15743 0
M  V30 16170 H 1513.74 -1.73808 -3.38371 0
M  V30 16171 H 1515.05 -2.08169 -4.53285 0
M  V30 16172 H 1514.2 -0.288172 -6.06015 0
M  V30 16173 H 1512.94 0.153521 -4.87458 0
M  V30 16174 H 1511.95 -2.14364 -5.06289 0
M  V30 16175 H 1513.17 -2.57882 -6.28231 0
M  V30 16176 H 1511.12 -0.350899 -6.55061 0
M  V30 16177 H 1511.03 -1.90344 -7.31646 0
M  V30 16178 H 1512.3 -0.797715 -7.75407 0
M  V30 16179 N 1516.53 1.29665 -0.895815 0
M  V30 16180 C 1517.76 1.99572 -0.534267 0
M  V30 16181 C 1518.17 1.67254 0.884455 0
M  V30 16182 O 1517.51 0.911762 1.59476 0
M  V30 16183 C 1517.57 3.53719 -0.642099 0
M  V30 16184 C 1517.24 4.09583 -2.02709 0
M  V30 16185 C 1518.23 4.24769 -2.99779 0
M  V30 16186 C 1515.92 4.44706 -2.33542 0
M  V30 16187 C 1517.91 4.74305 -4.25809 0
M  V30 16188 C 1515.6 4.93939 -3.59815 0
M  V30 16189 C 1516.6 5.08693 -4.55763 0
M  V30 16190 O 1516.29 5.5686 -5.79795 0
M  V30 16191 H 1516.02 0.644481 -0.204012 0
M  V30 16192 H 1518.57 1.66262 -1.20607 0
M  V30 16193 H 1516.8 3.86603 0.0867197 0
M  V30 16194 H 1518.49 4.04861 -0.290265 0
M  V30 16195 H 1519.26 3.97925 -2.77273 0
M  V30 16196 H 1515.14 4.32483 -1.59622 0
M  V30 16197 H 1518.68 4.85736 -5.00706 0
M  V30 16198 H 1514.58 5.2022 -3.82154 0
M  V30 16199 H 1515.35 5.75182 -5.82329 0
M  V30 16200 N 1518.01 0.657889 1.43212 0
M  V30 16201 C 1519.26 0.170493 2.00978 0
M  V30 16202 C 1519.57 -1.22439 1.52539 0
M  V30 16203 O 1520.78 -1.80725 2.02609 0
M  V30 16204 C 1519.23 0.253982 3.59003 0
M  V30 16205 C 1518.84 1.65185 4.16435 0
M  V30 16206 C 1520.58 -0.17557 4.24137 0
M  V30 16207 C 1518.49 1.68902 5.66768 0
M  V30 16208 H 1517.42 0.0599767 0.751611 0
M  V30 16209 H 1520.07 0.820606 1.64129 0
M  V30 16210 H 1518.45 -0.463723 3.93275 0
M  V30 16211 H 1519.63 2.39529 3.93653 0
M  V30 16212 H 1517.94 2.02779 3.63689 0
M  V30 16213 H 1520.54 -0.167714 5.34437 0
M  V30 16214 H 1520.88 -1.20784 3.98393 0
M  V30 16215 H 1521.42 0.490544 3.94764 0
M  V30 16216 H 1518.16 2.70055 5.97286 0
M  V30 16217 H 1517.68 0.988906 5.91592 0
M  V30 16218 H 1519.35 1.43485 6.30889 0
M  V30 16219 N 1519.49 -1.52437 0.400108 0
M  V30 16220 C 1520.73 -2.01711 -0.178605 0
M  V30 16221 C 1521.06 -1.28613 -1.45908 0
M  V30 16222 O 1520.32 -0.378206 -1.92011 0
M  V30 16223 C 1520.62 -3.54133 -0.482141 0
M  V30 16224 C 1520.28 -4.45306 0.70806 0
M  V30 16225 C 1518.94 -4.69947 1.03455 0
M  V30 16226 C 1521.3 -4.99035 1.50379 0
M  V30 16227 C 1518.62 -5.45566 2.15812 0
M  V30 16228 C 1520.98 -5.75883 2.61805 0
M  V30 16229 C 1519.64 -5.98799 2.9495 0
M  V30 16230 H 1518.91 -0.738112 -0.0653562 0
M  V30 16231 H 1521.56 -1.83738 0.539676 0
M  V30 16232 H 1519.86 -3.70237 -1.28188 0
M  V30 16233 H 1521.56 -3.89761 -0.942725 0
M  V30 16234 H 1518.15 -4.26298 0.443599 0
M  V30 16235 H 1522.33 -4.79913 1.26479 0
M  V30 16236 H 1517.59 -5.61532 2.4185 0
M  V30 16237 H 1521.76 -6.16514 3.23857 0
M  V30 16238 H 1519.39 -6.57176 3.8213 0
M  V30 16239 N 1520.96 -0.130252 -1.57061 0
M  V30 16240 C 1522.19 0.535707 -2.00362 0
M  V30 16241 C 1522.61 1.58712 -1.00956 0
M  V30 16242 O 1521.97 1.81292 0.0171546 0
M  V30 16243 C 1522.02 1.12836 -3.42491 0
M  V30 16244 O 1521.12 2.24367 -3.46025 0
M  V30 16245 H 1520.47 0.132735 -0.650598 0
M  V30 16246 H 1523 -0.222047 -2.03392 0
M  V30 16247 H 1523.01 1.46115 -3.80939 0
M  V30 16248 H 1521.68 0.358304 -4.14354 0
M  V30 16249 H 1520.26 1.92443 -3.19406 0
M  V30 16250 N 1522.44 1.56945 0.143535 0
M  V30 16251 C 1523.72 1.74461 0.884454 0
M  V30 16252 C 1524.1 0.699201 1.99184 0
M  V30 16253 O 1523.45 -0.281267 2.26762 0
M  V30 16254 C 1523.66 3.18639 1.42373 0
M  V30 16255 C 1525.01 3.80426 1.88577 0
M  V30 16256 O 1526.03 3.2209 1.52107 0
M  V30 16257 O 1524.89 4.82913 2.55847 0
M  V30 16258 H 1521.98 0.713457 0.41822 0
M  V30 16259 H 1524.53 1.69208 0.12919 0
M  V30 16260 H 1523.3 3.86227 0.628056 0
M  V30 16261 H 1522.92 3.28332 2.2424 0
M  V30 16262 N 1523.92 -0.412991 1.52093 0
M  V30 16263 C 1524.83 -1.52768 1.78042 0
M  V30 16264 C 1525.85 -1.60758 0.665791 0
M  V30 16265 O 1527.02 -1.77545 0.950772 0
M  V30 16266 C 1524.09 -2.8854 1.92213 0
M  V30 16267 C 1523.15 -2.90468 3.16112 0
M  V30 16268 C 1522.38 -4.19763 3.29598 0
M  V30 16269 O 1522.61 -5.13454 2.48438 0
M  V30 16270 O 1521.54 -4.2847 4.22726 0
M  V30 16271 H 1525.37 -1.33777 2.72649 0
M  V30 16272 H 1522.95 -0.598461 1.3689 0
M  V30 16273 H 1524.83 -3.69073 2.03379 0
M  V30 16274 H 1523.51 -3.07607 1.00795 0
M  V30 16275 H 1522.41 -2.08801 3.10408 0
M  V30 16276 H 1523.75 -2.76349 4.07298 0
M  V30 16277 N 1525.4 -1.4265 -0.669982 0
M  V30 16278 C 1526.31 -1.48916 -1.81276 0
M  V30 16279 C 1527.33 -0.377523 -1.69855 0
M  V30 16280 O 1528.5 -0.629151 -1.91321 0
M  V30 16281 C 1525.57 -1.39376 -3.17451 0
M  V30 16282 C 1524.63 -2.61072 -3.40793 0
M  V30 16283 C 1523.86 -2.51976 -4.70472 0
M  V30 16284 O 1524.08 -1.55827 -5.48702 0
M  V30 16285 O 1523.02 -3.42193 -4.95164 0
M  V30 16286 H 1526.84 -2.45382 -1.78945 0
M  V30 16287 H 1524.43 -1.24467 -0.826342 0
M  V30 16288 H 1526.31 -1.36435 -3.98702 0
M  V30 16289 H 1524.99 -0.460376 -3.20409 0
M  V30 16290 H 1523.89 -2.69587 -2.59372 0
M  V30 16291 H 1525.23 -3.53325 -3.42669 0
M  V30 16292 N 1526.88 0.906753 -1.28902 0
M  V30 16293 C 1528.13 1.6533 -1.16234 0
M  V30 16294 C 1528.45 1.92861 0.288004 0
M  V30 16295 O 1527.72 1.54971 1.19837 0
M  V30 16296 H 1526.3 0.612806 -0.427174 0
M  V30 16297 H 1528.96 1.08764 -1.6173 0
M  V30 16298 H 1528.05 2.61271 -1.70715 0
M  V30 16299 N 1528.36 1.11264 1.11616 0
M  V30 16300 C 1529.29 0.727118 2.17361 0
M  V30 16301 C 1530.3 -0.240356 1.61016 0
M  V30 16302 O 1531.49 -0.0235265 1.78484 0
M  V30 16303 C 1528.59 0.05361 3.38858 0
M  V30 16304 C 1527.76 1.04744 4.24673 0
M  V30 16305 C 1526.82 0.403827 5.24648 0
M  V30 16306 O 1525.85 1.0572 5.59296 0
M  V30 16307 N 1527.05 -0.834071 5.74477 0
M  V30 16308 H 1529.81 1.63696 2.51045 0
M  V30 16309 H 1527.38 1.00261 1.2712 0
M  V30 16310 H 1529.37 -0.388643 4.0283 0
M  V30 16311 H 1527.94 -0.758778 3.03251 0
M  V30 16312 H 1527.16 1.6677 3.57185 0
M  V30 16313 H 1528.45 1.71988 4.7885 0
M  V30 16314 H 1527.84 -1.3841 5.48506 0
M  V30 16315 H 1526.4 -1.21933 6.40293 0
M  V30 16316 N 1529.83 -1.29188 0.902679 0
M  V30 16317 C 1530.78 -2.29597 0.372585 0
M  V30 16318 C 1531.78 -1.609 -0.529858 0
M  V30 16319 O 1532.98 -1.75214 -0.41233 0
M  V30 16320 H 1529.36 -0.745069 0.101864 0
M  V30 16321 H 1531.33 -2.71746 1.23275 0
M  V30 16322 C 1530.08 -3.45594 -0.382128 0
M  V30 16323 H 1529.4 -3.9865 0.303061 0
M  V30 16324 H 1530.84 -4.17879 -0.717852 0
M  V30 16325 C 1529.3 -2.97238 -1.58591 0
M  V30 16326 O 1529.83 -2.98767 -2.68517 0
M  V30 16327 N 1528.03 -2.53032 -1.42909 0
M  V30 16328 H 1527.58 -2.51988 -0.534786 0
M  V30 16329 H 1527.54 -2.21038 -2.23584 0
M  V30 16330 N 1531.31 -0.665475 -1.42861 0
M  V30 16331 C 1532.24 0.0574495 -2.29128 0
M  V30 16332 C 1533.26 0.774881 -1.43176 0
M  V30 16333 O 1534.45 0.630593 -1.6699 0
M  V30 16334 C 1531.55 1.10481 -3.20386 0
M  V30 16335 C 1530.72 0.463071 -4.34942 0
M  V30 16336 C 1529.78 1.40896 -5.06986 0
M  V30 16337 O 1528.8 0.912839 -5.61833 0
M  V30 16338 N 1530.01 2.74257 -5.11628 0
M  V30 16339 H 1532.77 -0.683051 -2.91812 0
M  V30 16340 H 1530.33 -0.509179 -1.53685 0
M  V30 16341 H 1532.32 1.73866 -3.65449 0
M  V30 16342 H 1530.89 1.74715 -2.59217 0
M  V30 16343 H 1530.11 -0.350109 -3.92642 0
M  V30 16344 H 1531.4 0.0156092 -5.08798 0
M  V30 16345 H 1530.8 3.17112 -4.68462 0
M  V30 16346 H 1529.36 3.32913 -5.60368 0
M  V30 16347 N 1532.79 1.52222 -0.408187 0
M  V30 16348 C 1533.72 2.29892 0.408868 0
M  V30 16349 C 1534.7 1.34063 1.04695 0
M  V30 16350 O 1535.89 1.6297 1.05615 0
M  V30 16351 C 1533.02 3.11964 1.52629 0
M  V30 16352 C 1531.97 4.15833 1.01326 0
M  V30 16353 C 1531.3 4.86244 2.2242 0
M  V30 16354 C 1532.6 5.22256 0.0679573 0
M  V30 16355 H 1534.29 2.98443 -0.23923 0
M  V30 16356 H 1531.84 1.43528 -0.116496 0
M  V30 16357 H 1533.79 3.65067 2.10486 0
M  V30 16358 H 1532.51 2.41181 2.20225 0
M  V30 16359 H 1531.17 3.63739 0.4571 0
M  V30 16360 H 1530.82 4.11991 2.88569 0
M  V30 16361 H 1530.52 5.56461 1.88746 0
M  V30 16362 H 1532.04 5.42159 2.80885 0
M  V30 16363 H 1533.46 5.70604 0.555295 0
M  V30 16364 H 1531.85 5.9983 -0.179934 0
M  V30 16365 H 1532.92 4.76892 -0.877599 0
M  V30 16366 N 1534.27 0.138579 1.5699 0
M  V30 16367 C 1535.52 -0.513611 1.95465 0
M  V30 16368 C 1535.84 -1.65952 1.02396 0
M  V30 16369 O 1535.11 -1.9572 0.0839001 0
M  V30 16370 H 1533.69 -0.192729 0.72171 0
M  V30 16371 H 1536.35 0.212107 1.93742 0
M  V30 16372 H 1535.44 -0.895313 2.98983 0
M  V30 16373 N 1535.75 -1.57019 -0.13521 0
M  V30 16374 C 1536.99 -1.83178 -0.844308 0
M  V30 16375 C 1537.31 -0.7217 -1.81799 0
M  V30 16376 O 1538.51 -0.869232 -2.57209 0
M  V30 16377 C 1536.97 -3.2471 -1.55214 0
M  V30 16378 C 1536.58 -4.43685 -0.620268 0
M  V30 16379 C 1538.32 -3.60133 -2.24732 0
M  V30 16380 C 1536.23 -5.76242 -1.3304 0
M  V30 16381 H 1535.16 -0.683175 -0.319041 0
M  V30 16382 H 1537.81 -1.83243 -0.0970242 0
M  V30 16383 H 1536.19 -3.19067 -2.34547 0
M  V30 16384 H 1537.37 -4.60591 0.138685 0
M  V30 16385 H 1535.68 -4.16387 -0.0328906 0
M  V30 16386 H 1538.28 -4.56431 -2.78522 0
M  V30 16387 H 1538.62 -2.86767 -3.01779 0
M  V30 16388 H 1539.15 -3.67489 -1.52305 0
M  V30 16389 H 1535.89 -6.52734 -0.60155 0
M  V30 16390 H 1535.41 -5.63251 -2.06176 0
M  V30 16391 H 1537.09 -6.19445 -1.86808 0
M  V30 16392 N 1537.22 0.404919 -1.52309 0
M  V30 16393 C 1538.64 0.743846 -1.41206 0
M  V30 16394 C 1538.84 1.94678 -0.519874 0
M  V30 16395 O 1537.9 2.52497 0.0127417 0
M  V30 16396 C 1539.21 0.99384 -2.83802 0
M  V30 16397 C 1540.76 1.0963 -2.93173 0
M  V30 16398 C 1541.23 1.37902 -4.36746 0
M  V30 16399 N 1542.72 1.44758 -4.39999 0
M  V30 16400 C 1543.46 1.68269 -5.48154 0
M  V30 16401 N 1542.95 1.89356 -6.6642 0
M  V30 16402 N 1544.75 1.70318 -5.35675 0
M  V30 16403 H 1536.9 -0.386855 -2.08847 0
M  V30 16404 H 1539.16 -0.110811 -0.941501 0
M  V30 16405 H 1538.87 0.182249 -3.51227 0
M  V30 16406 H 1538.74 1.91287 -3.25099 0
M  V30 16407 H 1541.13 1.89847 -2.25925 0
M  V30 16408 H 1541.21 0.155539 -2.55327 0
M  V30 16409 H 1540.85 0.582004 -5.04554 0
M  V30 16410 H 1540.78 2.33237 -4.72132 0
M  V30 16411 H 1543.27 1.30235 -3.5475 0
M  V30 16412 H 1543.59 2.06758 -7.44628 0
M  V30 16413 H 1541.93 1.86612 -6.69478 0
M  V30 16414 H 1545.12 1.53385 -4.42256 0
M  V30 16415 H 1545.3 1.88302 -6.20037 0
M  V30 16416 N 1538.7 1.43003 0.662408 0
M  V30 16417 C 1539.95 1.43422 1.41821 0
M  V30 16418 C 1540.26 0.0586909 1.95512 0
M  V30 16419 O 1541.47 -0.0596978 2.71434 0
M  V30 16420 C 1539.93 2.52344 2.56613 0
M  V30 16421 C 1539.53 3.95961 2.09569 0
M  V30 16422 C 1541.28 2.61945 3.34044 0
M  V30 16423 C 1539.19 4.96367 3.21518 0
M  V30 16424 H 1538.12 0.533485 0.532832 0
M  V30 16425 H 1540.77 1.68958 0.715911 0
M  V30 16426 H 1539.15 2.19993 3.2927 0
M  V30 16427 H 1540.32 4.37728 1.43984 0
M  V30 16428 H 1538.64 3.90322 1.45044 0
M  V30 16429 H 1541.23 3.34137 4.17441 0
M  V30 16430 H 1541.58 1.66708 3.81463 0
M  V30 16431 H 1542.11 2.93552 2.68463 0
M  V30 16432 H 1538.85 5.93124 2.79077 0
M  V30 16433 H 1538.37 4.59221 3.85845 0
M  V30 16434 H 1540.05 5.18652 3.86793 0
M  V30 16435 N 1540.18 -0.899904 1.29381 0
M  V30 16436 C 1541.13 -1.9909 1.11119 0
M  V30 16437 C 1542.11 -1.60871 0.030676 0
M  V30 16438 O 1543.31 -1.75192 0.252365 0
M  V30 16439 C 1540.44 -3.34097 0.789552 0
M  V30 16440 C 1539.52 -3.78676 1.90959 0
M  V30 16441 N 1539.91 -3.95492 3.15309 0
M  V30 16442 C 1538.21 -4.0795 1.80258 0
M  V30 16443 C 1538.91 -4.33054 3.8838 0
M  V30 16444 N 1537.89 -4.42087 3.16322 0
M  V30 16445 H 1541.69 -2.1016 2.0545 0
M  V30 16446 H 1539.2 -1.08871 1.20503 0
M  V30 16447 H 1541.2 -4.11962 0.639765 0
M  V30 16448 H 1539.86 -3.24372 -0.14585 0
M  V30 16449 H 1540.87 -3.8103 3.50766 0
M  V30 16450 H 1537.55 -4.06783 0.939877 0
M  V30 16451 H 1538.94 -4.53912 4.95393 0
M  V30 16452 N 1541.66 -1.11854 -1.11024 0
M  V30 16453 C 1542.59 -0.738635 -2.16972 0
M  V30 16454 C 1543.6 0.231814 -1.61141 0
M  V30 16455 O 1544.79 0.0140607 -1.78494 0
M  V30 16456 C 1541.89 -0.0715797 -3.38824 0
M  V30 16457 C 1541.07 -1.06995 -4.24112 0
M  V30 16458 C 1540.12 -0.431644 -5.24427 0
M  V30 16459 O 1539.15 -1.08685 -5.58727 0
M  V30 16460 N 1540.35 0.803593 -5.74911 0
M  V30 16461 H 1543.12 -1.65025 -2.50174 0
M  V30 16462 H 1540.68 -1.00933 -1.26586 0
M  V30 16463 H 1542.67 0.367274 -4.0303 0
M  V30 16464 H 1541.24 0.742686 -3.03649 0
M  V30 16465 H 1540.46 -1.68662 -3.56296 0
M  V30 16466 H 1541.75 -1.74525 -4.77931 0
M  V30 16467 H 1541.15 1.355 -5.49232 0
M  V30 16468 H 1539.7 1.18536 -6.40931 0
M  V30 16469 N 1543.14 1.28707 -0.909517 0
M  V30 16470 C 1544.41 1.90124 -0.459585 0
M  V30 16471 C 1544.79 1.82477 1.06139 0
M  V30 16472 O 1544.14 1.25792 1.90758 0
M  V30 16473 C 1544.35 3.34806 -0.985188 0
M  V30 16474 C 1545.7 4.11799 -1.03475 0
M  V30 16475 O 1546.72 3.43749 -0.933536 0
M  V30 16476 O 1545.58 5.33426 -1.18825 0
M  V30 16477 H 1542.68 0.814199 -0.144948 0
M  V30 16478 H 1545.22 1.37104 -1.00002 0
M  V30 16479 H 1543.99 3.34575 -2.02917 0
M  V30 16480 H 1543.62 3.95318 -0.425329 0
M  V30 16481 N 1544.61 0.673042 1.42506 0
M  V30 16482 C 1545.86 0.1918 2.00786 0
M  V30 16483 C 1546.18 -1.20814 1.53829 0
M  V30 16484 O 1547.38 -1.78566 2.04515 0
M  V30 16485 C 1545.84 0.292045 3.58713 0
M  V30 16486 C 1545.45 1.69593 4.14659 0
M  V30 16487 C 1547.19 -0.130575 4.24299 0
M  V30 16488 C 1545.1 1.74904 5.64945 0
M  V30 16489 H 1544.03 0.0679452 0.750932 0
M  V30 16490 H 1546.68 0.837968 1.63249 0
M  V30 16491 H 1545.06 -0.421985 3.93745 0
M  V30 16492 H 1546.23 2.4369 3.9109 0
M  V30 16493 H 1544.55 2.06625 3.61518 0
M  V30 16494 H 1547.15 -0.11102 5.34585 0
M  V30 16495 H 1547.49 -1.16552 3.99651 0
M  V30 16496 H 1548.02 0.532386 3.94221 0
M  V30 16497 H 1544.76 2.76374 5.94388 0
M  V30 16498 H 1544.28 1.0516 5.9051 0
M  V30 16499 H 1545.96 1.50168 6.29332 0
M  V30 16500 N 1546.09 -1.52004 0.416254 0
M  V30 16501 C 1547.5 -1.86628 -0.0517247 0
M  V30 16502 C 1547.85 -1.33463 -1.43813 0
M  V30 16503 O 1546.98 -0.676793 -2.05544 0
M  V30 16504 C 1547.57 -3.38651 -0.100637 0
M  V30 16505 C 1546.13 -3.72888 -0.512969 0
M  V30 16506 C 1545.28 -2.75584 0.307975 0
M  V30 16507 H 1548.23 -1.45529 0.633018 0
M  V30 16508 H 1548.25 -3.69348 -0.914465 0
M  V30 16509 H 1547.76 -3.77316 0.908538 0
M  V30 16510 H 1545.87 -3.39804 -1.52852 0
M  V30 16511 H 1545.98 -4.78435 -0.252408 0
M  V30 16512 H 1544.34 -2.53653 -0.230717 0
M  V30 16513 H 1545.13 -3.1709 1.31563 0
M  V30 16514 N 1547.57 -0.146903 -1.56914 0
M  V30 16515 C 1548.5 0.788924 -2.19769 0
M  V30 16516 C 1549.48 1.25712 -1.14589 0
M  V30 16517 O 1550.67 1.3147 -1.42931 0
M  V30 16518 C 1547.8 2.02824 -2.81921 0
M  V30 16519 C 1546.75 1.69683 -3.92927 0
M  V30 16520 C 1546.08 3.00877 -4.42015 0
M  V30 16521 C 1547.38 0.943559 -5.13706 0
M  V30 16522 H 1549.07 0.265076 -2.98224 0
M  V30 16523 H 1546.62 0.126057 -1.43447 0
M  V30 16524 H 1548.57 2.68773 -3.2456 0
M  V30 16525 H 1547.29 2.57581 -2.00797 0
M  V30 16526 H 1545.95 1.06112 -3.50907 0
M  V30 16527 H 1545.6 3.53625 -3.57713 0
M  V30 16528 H 1545.3 2.79466 -5.16888 0
M  V30 16529 H 1546.82 3.67897 -4.87323 0
M  V30 16530 H 1548.24 1.50513 -5.5319 0
M  V30 16531 H 1546.64 0.829387 -5.94341 0
M  V30 16532 H 1547.71 -0.0647228 -4.84857 0
M  V30 16533 N 1549.05 1.57088 0.126881 0
M  V30 16534 C 1550.46 1.73685 0.684865 0
M  V30 16535 C 1550.81 0.764401 1.80697 0
M  V30 16536 O 1549.94 -0.0644761 2.16304 0
M  V30 16537 C 1550.53 3.14933 1.24911 0
M  V30 16538 C 1549.09 3.33063 1.75346 0
M  V30 16539 C 1548.24 2.69575 0.649976 0
M  V30 16540 H 1551.19 1.58391 -0.0989715 0
M  V30 16541 H 1551.21 3.16047 2.11884 0
M  V30 16542 H 1550.72 3.85686 0.432204 0
M  V30 16543 H 1548.82 2.67339 2.59539 0
M  V30 16544 H 1548.93 4.41169 1.86833 0
M  V30 16545 H 1547.3 2.30592 1.08163 0
M  V30 16546 H 1548.08 3.42946 -0.15582 0
M  V30 16547 N 1550.53 -0.396836 1.52522 0
M  V30 16548 C 1551.94 -0.975124 1.59211 0
M  V30 16549 C 1552.29 -1.91199 0.440138 0
M  V30 16550 O 1551.41 -2.11924 -0.437856 0
M  V30 16551 C 1552.01 -1.77531 2.88562 0
M  V30 16552 C 1550.57 -2.30343 2.9769 0
M  V30 16553 C 1549.71 -1.10671 2.54258 0
M  V30 16554 H 1552.67 -0.176646 1.57714 0
M  V30 16555 H 1552.69 -2.63384 2.74607 0
M  V30 16556 H 1552.2 -1.09318 3.72386 0
M  V30 16557 H 1550.3 -3.01891 2.18387 0
M  V30 16558 H 1550.41 -2.60366 4.02177 0
M  V30 16559 H 1548.78 -1.46439 2.08393 0
M  V30 16560 H 1549.56 -0.440061 3.40468 0
M  V30 16561 N 1552.01 -1.43353 -0.654814 0
M  V30 16562 C 1553.42 -1.26718 -0.970297 0
M  V30 16563 C 1553.62 -0.185747 -2.00642 0
M  V30 16564 O 1552.68 0.436357 -2.48701 0
M  V30 16565 C 1553.99 -2.63095 -1.45608 0
M  V30 16566 C 1555.54 -2.70613 -1.57281 0
M  V30 16567 C 1556.01 -4.07404 -2.0925 0
M  V30 16568 N 1557.5 -4.09461 -2.16555 0
M  V30 16569 C 1558.24 -5.12135 -2.57885 0
M  V30 16570 N 1557.74 -6.25185 -2.98523 0
M  V30 16571 N 1559.53 -4.9949 -2.57811 0
M  V30 16572 H 1551.68 -2.12378 0.0308331 0
M  V30 16573 H 1553.94 -0.946744 -0.0487843 0
M  V30 16574 H 1553.65 -3.43186 -0.769171 0
M  V30 16575 H 1553.52 -2.88381 -2.43138 0
M  V30 16576 H 1555.91 -1.90855 -2.25074 0
M  V30 16577 H 1555.99 -2.49094 -0.581879 0
M  V30 16578 H 1555.63 -4.87628 -1.4206 0
M  V30 16579 H 1555.56 -4.26287 -3.09172 0
M  V30 16580 H 1558.06 -3.27858 -1.87929 0
M  V30 16581 H 1558.37 -6.99362 -3.28804 0
M  V30 16582 H 1556.71 -6.28659 -2.96332 0
M  V30 16583 H 1559.9 -4.10238 -2.25438 0
M  V30 16584 H 1560.08 -5.79637 -2.89699 0
M  V30 16585 N 1553.48 0.89303 -1.29857 0
M  V30 16586 C 1554.9 1.17496 -1.08013 0
M  V30 16587 C 1555.1 2.00829 0.164302 0
M  V30 16588 O 1554.16 2.37396 0.860194 0
M  V30 16589 C 1555.47 1.88944 -2.33924 0
M  V30 16590 C 1557.02 2.01742 -2.3931 0
M  V30 16591 C 1557.49 2.76601 -3.65042 0
M  V30 16592 N 1558.98 2.84152 -3.65803 0
M  V30 16593 C 1559.72 3.42628 -4.59776 0
M  V30 16594 N 1559.21 4.02218 -5.64086 0
M  V30 16595 N 1561.01 3.40366 -4.47334 0
M  V30 16596 H 1553.16 0.33719 -2.09706 0
M  V30 16597 H 1555.42 0.211899 -0.924014 0
M  V30 16598 H 1555.13 1.35151 -3.24695 0
M  V30 16599 H 1555 2.89379 -2.4195 0
M  V30 16600 H 1557.39 2.54708 -1.49022 0
M  V30 16601 H 1557.47 1.0042 -2.35265 0
M  V30 16602 H 1557.11 2.24309 -4.55684 0
M  V30 16603 H 1557.04 3.78283 -3.66346 0
M  V30 16604 H 1559.53 2.41835 -2.90386 0
M  V30 16605 H 1559.85 4.4488 -6.31903 0
M  V30 16606 H 1558.19 4.00661 -5.67887 0
M  V30 16607 H 1561.38 2.93035 -3.65031 0
M  V30 16608 H 1561.56 3.85644 -5.20752 0
M  V30 16609 N 1554.96 1.12442 1.10429 0
M  V30 16610 C 1556.38 0.860481 1.34417 0
M  V30 16611 C 1556.58 -0.509394 1.94955 0
M  V30 16612 O 1555.63 -1.25807 2.18927 0
M  V30 16613 C 1556.95 1.97694 2.26578 0
M  V30 16614 C 1558.49 2.00783 2.40115 0
M  V30 16615 C 1558.97 3.11663 3.35604 0
M  V30 16616 N 1560.46 3.11106 3.43173 0
M  V30 16617 C 1561.2 3.9354 4.1703 0
M  V30 16618 N 1560.69 4.85963 4.93773 0
M  V30 16619 N 1562.48 3.81677 4.12649 0
M  V30 16620 H 1554.64 2.00706 0.695036 0
M  V30 16621 H 1556.9 0.873398 0.368619 0
M  V30 16622 H 1556.6 2.96405 1.89306 0
M  V30 16623 H 1556.48 1.88217 3.26886 0
M  V30 16624 H 1558.87 1.02692 2.76656 0
M  V30 16625 H 1558.95 2.14335 1.39621 0
M  V30 16626 H 1558.59 4.09987 2.99789 0
M  V30 16627 H 1558.52 2.9535 4.35977 0
M  V30 16628 H 1561.01 2.4415 2.88442 0
M  V30 16629 H 1561.32 5.45373 5.47529 0
M  V30 16630 H 1559.67 4.89976 4.92898 0
M  V30 16631 H 1562.86 3.08808 3.51789 0
M  V30 16632 H 1563.03 4.46151 4.6995 0
M  V30 16633 N 1556.44 -1.28223 0.91633 0
M  V30 16634 C 1557.35 -2.30956 0.411882 0
M  V30 16635 C 1558.37 -1.66609 -0.501753 0
M  V30 16636 O 1559.54 -1.97641 -0.387317 0
M  V30 16637 C 1556.61 -3.45053 -0.337558 0
M  V30 16638 C 1555.67 -4.2495 0.609609 0
M  V30 16639 C 1554.9 -5.33598 -0.104159 0
M  V30 16640 O 1555.12 -5.54786 -1.32546 0
M  V30 16641 O 1554.06 -5.99272 0.561851 0
M  V30 16642 H 1557.88 -2.76118 1.26461 0
M  V30 16643 H 1555.47 -1.32964 0.681246 0
M  V30 16644 H 1557.35 -4.14477 -0.760722 0
M  V30 16645 H 1556.03 -3.01968 -1.16607 0
M  V30 16646 H 1554.93 -3.58104 1.08222 0
M  V30 16647 H 1556.27 -4.7172 1.40502 0
M  V30 16648 N 1557.92 -0.68059 -1.42147 0
M  V30 16649 C 1558.85 -0.0199376 -2.33491 0
M  V30 16650 C 1559.83 0.783164 -1.50999 0
M  V30 16651 O 1561.01 0.739154 -1.79583 0
M  V30 16652 C 1558.14 0.927902 -3.34675 0
M  V30 16653 C 1557.1 0.232979 -4.27365 0
M  V30 16654 C 1556.42 1.29415 -5.18802 0
M  V30 16655 C 1557.72 -0.891559 -5.14634 0
M  V30 16656 H 1559.42 -0.782823 -2.88985 0
M  V30 16657 H 1556.96 -0.377898 -1.38953 0
M  V30 16658 H 1558.92 1.3992 -3.97493 0
M  V30 16659 H 1557.64 1.72228 -2.77498 0
M  V30 16660 H 1556.3 -0.21814 -3.6595 0
M  V30 16661 H 1555.95 2.08067 -4.57949 0
M  V30 16662 H 1555.65 0.834274 -5.81647 0
M  V30 16663 H 1557.17 1.76627 -5.84496 0
M  V30 16664 H 1558.59 -0.501219 -5.71105 0
M  V30 16665 H 1556.98 -1.27759 -5.86343 0
M  V30 16666 H 1558.05 -1.73781 -4.5269 0
M  V30 16667 N 1559.4 1.51781 -0.424309 0
M  V30 16668 C 1560.81 1.86653 0.0418266 0
M  V30 16669 C 1561.16 1.34224 1.43103 0
M  V30 16670 O 1560.28 0.687684 2.05183 0
M  V30 16671 C 1560.88 3.38699 0.0826759 0
M  V30 16672 C 1559.44 3.73155 0.493186 0
M  V30 16673 C 1558.58 2.75417 -0.322586 0
M  V30 16674 H 1561.53 1.45191 -0.640726 0
M  V30 16675 H 1561.56 3.69828 0.894864 0
M  V30 16676 H 1561.07 3.76829 -0.928536 0
M  V30 16677 H 1559.17 3.4061 1.51048 0
M  V30 16678 H 1559.28 4.78562 0.227032 0
M  V30 16679 H 1557.65 2.53772 0.217262 0
M  V30 16680 H 1558.43 3.16388 -1.33243 0
M  V30 16681 N 1560.87 0.155222 1.56834 0
M  V30 16682 C 1561.84 -0.767266 2.15976 0
M  V30 16683 C 1562.84 -1.16946 1.10364 0
M  V30 16684 O 1564.03 -1.08905 1.35961 0
M  V30 16685 C 1561.16 -2.04226 2.72956 0
M  V30 16686 H 1562.35 -0.252662 2.98834 0
M  V30 16687 H 1559.9 -0.0942677 1.56015 0
M  V30 16688 H 1560.64 -2.60033 1.93787 0
M  V30 16689 H 1560.42 -1.76299 3.5023 0
M  V30 16690 H 1561.91 -2.70093 3.18495 0
M  V30 16691 N 1562.35 -1.57153 -0.118549 0
M  V30 16692 C 1563.28 -2.03409 -1.1466 0
M  V30 16693 C 1564.26 -0.918636 -1.43161 0
M  V30 16694 O 1565.45 -1.18838 -1.53594 0
M  V30 16695 C 1562.58 -2.43879 -2.47265 0
M  V30 16696 C 1561.53 -3.58873 -2.33225 0
M  V30 16697 C 1560.86 -3.85244 -3.70798 0
M  V30 16698 C 1562.16 -4.90582 -1.79239 0
M  V30 16699 H 1563.85 -2.89545 -0.761862 0
M  V30 16700 H 1561.4 -1.39296 -0.365034 0
M  V30 16701 H 1563.35 -2.74844 -3.19435 0
M  V30 16702 H 1562.07 -1.54715 -2.8763 0
M  V30 16703 H 1560.73 -3.28119 -1.63504 0
M  V30 16704 H 1560.38 -2.93285 -4.08648 0
M  V30 16705 H 1560.08 -4.62649 -3.62257 0
M  V30 16706 H 1561.61 -4.18661 -4.44472 0
M  V30 16707 H 1563.02 -5.20079 -2.41227 0
M  V30 16708 H 1561.42 -5.71989 -1.81518 0
M  V30 16709 H 1562.49 -4.79065 -0.74999 0
M  V30 16710 N 1563.83 0.388742 -1.5273 0
M  V30 16711 C 1565.25 0.728828 -1.41987 0
M  V30 16712 C 1565.45 1.94116 -0.540493 0
M  V30 16713 O 1564.5 2.52496 -0.0140397 0
M  V30 16714 C 1565.81 0.963683 -2.8484 0
M  V30 16715 C 1567.36 1.06514 -2.94319 0
M  V30 16716 C 1567.84 1.33262 -4.38184 0
M  V30 16717 N 1569.33 1.40083 -4.4151 0
M  V30 16718 C 1570.06 1.62446 -5.49908 0
M  V30 16719 N 1569.56 1.82277 -6.68391 0
M  V30 16720 N 1571.35 1.64627 -5.37452 0
M  V30 16721 H 1563.5 -0.408984 -2.08425 0
M  V30 16722 H 1565.77 -0.120791 -0.940273 0
M  V30 16723 H 1565.47 0.144986 -3.51401 0
M  V30 16724 H 1565.35 1.87828 -3.27109 0
M  V30 16725 H 1567.73 1.8744 -2.27926 0
M  V30 16726 H 1567.81 0.12845 -2.55477 0
M  V30 16727 H 1567.46 0.528457 -5.05143 0
M  V30 16728 H 1567.39 2.28216 -4.74579 0
M  V30 16729 H 1569.88 1.26465 -3.56111 0
M  V30 16730 H 1570.19 1.98848 -7.46779 0
M  V30 16731 H 1568.54 1.79501 -6.7142 0
M  V30 16732 H 1571.73 1.48686 -4.43858 0
M  V30 16733 H 1571.9 1.81715 -6.22 0
M  V30 16734 N 1565.31 1.43698 0.647203 0
M  V30 16735 C 1566.54 1.49085 1.43462 0
M  V30 16736 C 1566.95 0.110605 1.88476 0
M  V30 16737 O 1566.31 -0.880365 1.59862 0
M  V30 16738 C 1566.36 2.44186 2.66562 0
M  V30 16739 O 1566.08 3.76844 2.23429 0
M  V30 16740 C 1567.58 2.58876 3.59858 0
M  V30 16741 H 1564.8 0.506148 0.440517 0
M  V30 16742 H 1567.34 1.88502 0.792931 0
M  V30 16743 H 1565.5 2.07949 3.26858 0
M  V30 16744 H 1565.91 4.2804 3.0312 0
M  V30 16745 H 1567.39 3.29482 4.42883 0
M  V30 16746 H 1567.86 1.63567 4.07606 0
M  V30 16747 H 1568.47 2.95949 3.05441 0
M  V30 16748 N 1566.79 -0.886131 1.30328 0
M  V30 16749 C 1568.01 -1.67099 1.22007 0
M  V30 16750 C 1568.43 -1.87546 -0.217255 0
M  V30 16751 O 1567.79 -1.42213 -1.14375 0
M  V30 16752 C 1567.84 -3.048 1.94368 0
M  V30 16753 O 1567.56 -2.85277 3.32489 0
M  V30 16754 C 1569.06 -3.99231 1.9269 0
M  V30 16755 H 1566.28 -0.521467 0.422271 0
M  V30 16756 H 1568.82 -1.1072 1.71934 0
M  V30 16757 H 1566.98 -3.57915 1.48242 0
M  V30 16758 H 1567.39 -3.72626 3.69121 0
M  V30 16759 H 1568.87 -4.93223 2.47861 0
M  V30 16760 H 1569.34 -4.29763 0.905558 0
M  V30 16761 H 1569.95 -3.52051 2.38621 0
M  V30 16762 N 1568.26 -1.13026 -1.09832 0
M  V30 16763 C 1569.21 -0.799174 -2.1844 0
M  V30 16764 C 1570.21 0.216695 -1.68008 0
M  V30 16765 O 1571.41 0.0742662 -1.79847 0
M  V30 16766 H 1567.79 -0.24064 -0.712458 0
M  V30 16767 H 1569.76 -1.72342 -2.436 0
M  V30 16768 C 1568.51 -0.276925 -3.46595 0
M  V30 16769 H 1567.83 -1.04993 -3.85768 0
M  V30 16770 H 1569.27 -0.0836468 -4.23917 0
M  V30 16771 C 1567.73 0.996479 -3.21826 0
M  V30 16772 O 1568.26 2.0731 -3.44072 0
M  V30 16773 N 1566.47 0.925903 -2.75455 0
M  V30 16774 H 1566.01 0.0496383 -2.57552 0
M  V30 16775 H 1565.97 1.77853 -2.5926 0
M  V30 16776 N 1569.74 1.27735 -0.923117 0
M  V30 16777 C 1570.99 1.94185 -0.56004 0
M  V30 16778 C 1571.31 1.72945 0.90084 0
M  V30 16779 O 1570.58 1.07453 1.63801 0
M  V30 16780 H 1569.16 0.718568 -0.204129 0
M  V30 16781 H 1571.82 1.55535 -1.17451 0
M  V30 16782 H 1570.92 3.02644 -0.762424 0
M  V30 16783 N 1571.22 0.688118 1.41784 0
M  V30 16784 C 1572.17 0.018099 2.30793 0
M  V30 16785 C 1573.14 -0.779009 1.46699 0
M  V30 16786 O 1574.32 -0.748556 1.75503 0
M  V30 16787 C 1571.46 -0.91769 3.32675 0
M  V30 16788 C 1570.58 -0.11299 4.31852 0
M  V30 16789 C 1569.71 -1.04574 5.20805 0
M  V30 16790 C 1568.75 -0.233509 6.11654 0
M  V30 16791 N 1567.89 -1.11967 6.93115 0
M  V30 16792 H 1572.73 0.782911 2.87532 0
M  V30 16793 H 1570.26 0.397806 1.41619 0
M  V30 16794 H 1572.22 -1.47421 3.90286 0
M  V30 16795 H 1570.85 -1.64898 2.77504 0
M  V30 16796 H 1569.9 0.560344 3.7625 0
M  V30 16797 H 1571.22 0.517033 4.96113 0
M  V30 16798 H 1570.37 -1.67174 5.83213 0
M  V30 16799 H 1569.11 -1.70963 4.56753 0
M  V30 16800 H 1568.11 0.405614 5.48302 0
M  V30 16801 H 1569.34 0.426479 6.7776 0
M  V30 16802 H 1567.28 -1.76972 6.31678 0
M  V30 16803 H 1567.2 -0.545042 7.54033 0
M  V30 16804 H 1568.47 -1.73272 7.59998 0
M  V30 16805 N 1572.7 -1.51554 0.432352 0
M  V30 16806 C 1573.66 -2.26195 -0.369912 0
M  V30 16807 C 1574.66 -1.29446 -0.953961 0
M  V30 16808 O 1575.85 -1.53199 -0.829193 0
M  V30 16809 C 1572.98 -3.04993 -1.52289 0
M  V30 16810 H 1574.18 -2.98551 0.284173 0
M  V30 16811 H 1571.73 -1.55197 0.1854 0
M  V30 16812 H 1572.46 -2.37043 -2.21317 0
M  V30 16813 H 1572.25 -3.76051 -1.11032 0
M  V30 16814 H 1573.74 -3.61547 -2.08982 0
M  V30 16815 N 1574.18 -0.163538 -1.56749 0
M  V30 16816 C 1575.45 0.529349 -1.88301 0
M  V30 16817 C 1575.83 1.81844 -1.07219 0
M  V30 16818 O 1575.18 2.27912 -0.16381 0
M  V30 16819 C 1575.39 0.778796 -3.402 0
M  V30 16820 C 1576.74 1.11225 -4.09773 0
M  V30 16821 O 1577.76 0.867598 -3.45472 0
M  V30 16822 O 1576.62 1.57344 -5.2336 0
M  V30 16823 H 1573.72 0.271928 -0.781015 0
M  V30 16824 H 1576.26 -0.20139 -1.68501 0
M  V30 16825 H 1575.03 -0.132839 -3.91074 0
M  V30 16826 H 1574.66 1.56313 -3.65584 0
M  V30 16827 N 1575.65 1.57214 0.110213 0
M  V30 16828 C 1576.88 1.8988 0.834297 0
M  V30 16829 C 1577.3 0.756347 1.72224 0
M  V30 16830 O 1576.66 -0.292768 1.78921 0
M  V30 16831 C 1576.71 3.21338 1.63629 0
M  V30 16832 O 1575.81 3.07862 2.74399 0
M  V30 16833 H 1575.16 0.62283 0.23017 0
M  V30 16834 H 1577.69 2.04402 0.0899726 0
M  V30 16835 H 1577.7 3.54275 2.02369 0
M  V30 16836 H 1576.37 4.04079 0.984521 0
M  V30 16837 H 1574.95 2.8641 2.38797 0
M  V30 16838 N 1577.13 -0.380637 1.52934 0
M  V30 16839 C 1578.06 -1.47174 1.81279 0
M  V30 16840 C 1579.04 -1.56549 0.665319 0
M  V30 16841 O 1580.23 -1.71362 0.913722 0
M  V30 16842 C 1577.36 -2.84691 1.98918 0
M  V30 16843 C 1576.31 -2.90151 3.14637 0
M  V30 16844 C 1575.64 -4.30198 3.17544 0
M  V30 16845 C 1576.94 -2.59037 4.53539 0
M  V30 16846 H 1578.63 -1.23703 2.7265 0
M  V30 16847 H 1576.18 -0.593654 1.31194 0
M  V30 16848 H 1578.13 -3.61034 2.1733 0
M  V30 16849 H 1576.86 -3.09517 1.04244 0
M  V30 16850 H 1575.51 -2.16257 2.96021 0
M  V30 16851 H 1575.16 -4.52076 2.20536 0
M  V30 16852 H 1574.86 -4.3477 3.95284 0
M  V30 16853 H 1576.39 -5.08435 3.38121 0
M  V30 16854 H 1577.8 -3.25096 4.72214 0
M  V30 16855 H 1576.2 -2.74946 5.33408 0
M  V30 16856 H 1577.27 -1.54342 4.59681 0
M  V30 16857 N 1578.61 -1.44039 -0.639573 0
M  V30 16858 C 1579.56 -1.50541 -1.77314 0
M  V30 16859 C 1580.55 -0.37781 -1.65133 0
M  V30 16860 O 1581.76 -0.552396 -1.71314 0
M  V30 16861 H 1578.13 -0.472221 -0.585245 0
M  V30 16862 H 1580.1 -2.45964 -1.68951 0
M  V30 16863 C 1578.85 -1.45868 -3.15623 0
M  V30 16864 H 1578.18 -2.31946 -3.25639 0
M  V30 16865 H 1579.62 -1.54479 -3.94857 0
M  V30 16866 C 1578.08 -0.178204 -3.36428 0
M  V30 16867 O 1578.61 0.755017 -3.94541 0
M  V30 16868 N 1576.81 -0.0840295 -2.90478 0
M  V30 16869 H 1576.36 -0.844281 -2.43371 0
M  V30 16870 H 1576.32 0.771988 -3.04775 0
M  V30 16871 N 1580.09 0.879207 -1.30796 0
M  V30 16872 C 1581.33 1.63392 -1.20129 0
M  V30 16873 C 1581.67 1.92684 0.242164 0
M  V30 16874 O 1580.94 1.55188 1.17247 0
M  V30 16875 C 1581.23 2.97005 -2.03618 0
M  V30 16876 C 1581.08 2.74649 -3.56214 0
M  V30 16877 C 1582.4 3.97998 -1.87845 0
M  V30 16878 H 1579.52 0.592911 -0.437751 0
M  V30 16879 H 1582.16 1.017 -1.6049 0
M  V30 16880 H 1580.31 3.49659 -1.69326 0
M  V30 16881 H 1581.98 2.28738 -4.00595 0
M  V30 16882 H 1580.22 2.09048 -3.80107 0
M  V30 16883 H 1580.89 3.69681 -4.09927 0
M  V30 16884 H 1583.37 3.54523 -2.17836 0
M  V30 16885 H 1582.25 4.89388 -2.48578 0
M  V30 16886 H 1582.51 4.34062 -0.839183 0
M  V30 16887 N 1581.57 1.13606 1.09231 0
M  V30 16888 C 1582.79 0.922667 1.85746 0
M  V30 16889 C 1583.22 -0.523381 1.80672 0
M  V30 16890 O 1582.58 -1.37156 1.18566 0
M  V30 16891 C 1582.62 1.41762 3.31566 0
M  V30 16892 O 1581.73 0.60418 4.0795 0
M  V30 16893 H 1581.07 0.330523 0.575891 0
M  V30 16894 H 1583.6 1.51123 1.37924 0
M  V30 16895 H 1583.61 1.42212 3.82413 0
M  V30 16896 H 1582.28 2.47048 3.34574 0
M  V30 16897 H 1580.86 0.667721 3.66873 0
M  V30 16898 N 1583.05 -1.27244 0.929878 0
M  V30 16899 C 1584.46 -1.4662 0.630451 0
M  V30 16900 C 1584.66 -1.84077 -0.819633 0
M  V30 16901 O 1583.72 -1.95555 -1.59733 0
M  V30 16902 C 1585.03 -2.55709 1.58219 0
M  V30 16903 C 1586.58 -2.69569 1.59065 0
M  V30 16904 C 1587.05 -3.81818 2.52941 0
M  V30 16905 N 1588.54 -3.89195 2.51161 0
M  V30 16906 C 1589.28 -4.75474 3.20488 0
M  V30 16907 N 1588.78 -5.66225 3.99201 0
M  V30 16908 N 1590.57 -4.69222 3.09495 0
M  V30 16909 H 1582.72 -1.01216 1.86733 0
M  V30 16910 H 1584.98 -0.505737 0.801832 0
M  V30 16911 H 1584.69 -2.34985 2.61677 0
M  V30 16912 H 1584.56 -3.53141 1.32556 0
M  V30 16913 H 1586.95 -2.89672 0.563375 0
M  V30 16914 H 1587.03 -1.72616 1.88778 0
M  V30 16915 H 1586.67 -3.62467 3.55781 0
M  V30 16916 H 1586.6 -4.78202 2.20524 0
M  V30 16917 H 1589.1 -3.24305 1.93997 0
M  V30 16918 H 1589.41 -6.28925 4.4908 0
M  V30 16919 H 1587.75 -5.66013 4.03304 0
M  V30 16920 H 1590.94 -3.97322 2.47493 0
M  V30 16921 H 1591.12 -5.36244 3.63794 0
M  V30 16922 N 1584.52 -0.695628 -1.41417 0
M  V30 16923 C 1585.47 -0.0189456 -2.32592 0
M  V30 16924 C 1586.47 0.76848 -1.50966 0
M  V30 16925 O 1587.67 0.674096 -1.66901 0
M  V30 16926 H 1584.05 0.0126742 -0.751893 0
M  V30 16927 H 1586.02 -0.804968 -2.87337 0
M  V30 16928 C 1584.77 0.903458 -3.35757 0
M  V30 16929 H 1584.09 0.306963 -3.9862 0
M  V30 16930 H 1585.53 1.34525 -4.02093 0
M  V30 16931 C 1583.99 2.01966 -2.69651 0
M  V30 16932 O 1584.52 3.10845 -2.54438 0
M  V30 16933 N 1582.72 1.79741 -2.28345 0
M  V30 16934 H 1582.27 0.911929 -2.40918 0
M  V30 16935 H 1582.23 2.54609 -1.84449 0
M  V30 16936 N 1586 1.51322 -0.440383 0
M  V30 16937 C 1587.23 2.07017 0.126018 0
M  V30 16938 C 1587.65 1.30537 1.35431 0
M  V30 16939 O 1587.01 0.344178 1.78003 0
M  V30 16940 C 1587.06 3.58101 0.4238 0
M  V30 16941 O 1586.16 3.83772 1.50973 0
M  V30 16942 H 1585.5 0.664 0.000530178 0
M  V30 16943 H 1588.03 1.94897 -0.622594 0
M  V30 16944 H 1588.04 4.02405 0.673363 0
M  V30 16945 H 1586.72 4.13191 -0.473932 0
M  V30 16946 H 1585.29 3.51329 1.24989 0
M  V30 16947 N 1587.48 0.171848 1.5666 0
M  V30 16948 C 1588.73 -0.473669 1.97191 0
M  V30 16949 C 1589.06 -1.6286 1.05784 0
M  V30 16950 O 1588.33 -1.94216 0.105084 0
M  V30 16951 C 1588.62 -0.956134 3.47174 0
M  V30 16952 C 1588.47 0.199007 4.4936 0
M  V30 16953 C 1589.79 -1.82962 4.00266 0
M  V30 16954 H 1586.91 -0.170704 0.716958 0
M  V30 16955 H 1589.55 0.25809 1.88239 0
M  V30 16956 H 1587.7 -1.57969 3.54934 0
M  V30 16957 H 1589.37 0.836109 4.53659 0
M  V30 16958 H 1587.61 0.85442 4.25302 0
M  V30 16959 H 1588.29 -0.180704 5.51704 0
M  V30 16960 H 1590.76 -1.30394 3.95141 0
M  V30 16961 H 1589.64 -2.13621 5.05625 0
M  V30 16962 H 1589.9 -2.77557 3.44114 0
M  V30 16963 N 1588.96 -1.5727 -0.101874 0
M  V30 16964 C 1589.89 -1.96813 -1.15498 0
M  V30 16965 C 1590.87 -0.840319 -1.39203 0
M  V30 16966 O 1592.05 -1.10002 -1.53075 0
M  V30 16967 C 1589.18 -2.27908 -2.5055 0
M  V30 16968 C 1588.23 -3.50388 -2.43168 0
M  V30 16969 S 1589.06 -5.02354 -1.85475 0
M  V30 16970 C 1590.21 -5.36619 -3.22166 0
M  V30 16971 H 1590.45 -2.8583 -0.81785 0
M  V30 16972 H 1587.98 -1.5127 -0.309296 0
M  V30 16973 H 1589.94 -2.465 -3.2825 0
M  V30 16974 H 1588.6 -1.39475 -2.81435 0
M  V30 16975 H 1587.79 -3.69565 -3.42692 0
M  V30 16976 H 1587.39 -3.31271 -1.73596 0
M  V30 16977 H 1589.69 -5.32849 -4.18423 0
M  V30 16978 H 1590.63 -6.37703 -3.07799 0
M  V30 16979 H 1591.04 -4.64082 -3.21385 0
M  V30 16980 N 1590.44 0.372521 -1.53134 0
M  V30 16981 C 1591.37 1.4759 -1.75357 0
M  V30 16982 C 1592.38 1.49938 -0.634223 0
M  V30 16983 O 1593.57 1.53543 -0.910322 0
M  V30 16984 C 1590.67 2.86382 -1.81214 0
M  V30 16985 C 1589.84 3.0781 -3.1076 0
M  V30 16986 C 1588.9 4.26677 -3.07949 0
M  V30 16987 O 1587.93 4.22186 -3.81769 0
M  V30 16988 N 1589.13 5.33729 -2.28283 0
M  V30 16989 H 1591.89 1.28908 -2.7056 0
M  V30 16990 H 1589.46 0.562186 -1.51826 0
M  V30 16991 H 1591.45 3.64029 -1.7682 0
M  V30 16992 H 1590.02 2.98344 -0.933249 0
M  V30 16993 H 1589.24 2.17884 -3.28512 0
M  V30 16994 H 1590.53 3.18991 -3.96386 0
M  V30 16995 H 1589.92 5.40238 -1.67806 0
M  V30 16996 H 1588.48 6.09979 -2.29714 0
M  V30 16997 N 1591.91 1.44376 0.631925 0
M  V30 16998 C 1592.82 1.5367 1.77264 0
M  V30 16999 C 1593.84 0.422425 1.68794 0
M  V30 17000 O 1595.02 0.679656 1.89585 0
M  V30 17001 C 1592.08 1.47743 3.13644 0
M  V30 17002 C 1591.14 2.70015 3.33752 0
M  V30 17003 C 1590.37 2.64362 4.63626 0
M  V30 17004 O 1590.6 1.7032 5.44378 0
M  V30 17005 O 1589.53 3.55201 4.85918 0
M  V30 17006 H 1593.36 2.5004 1.72376 0
M  V30 17007 H 1590.94 1.26614 0.793052 0
M  V30 17008 H 1592.82 1.46958 3.94945 0
M  V30 17009 H 1591.5 0.545165 3.19076 0
M  V30 17010 H 1590.41 2.76369 2.52133 0
M  V30 17011 H 1591.74 3.62286 3.33181 0
M  V30 17012 N 1593.39 -0.872258 1.31261 0
M  V30 17013 C 1594.32 -1.99517 1.21306 0
M  V30 17014 C 1595.3 -1.69801 0.100775 0
M  V30 17015 O 1596.49 -1.92098 0.284984 0
M  V30 17016 C 1593.62 -3.34968 0.917249 0
M  V30 17017 C 1592.57 -3.78984 1.98885 0
M  V30 17018 C 1591.9 -5.11869 1.54578 0
M  V30 17019 C 1593.2 -3.96338 3.40167 0
M  V30 17020 H 1594.89 -2.08104 2.15251 0
M  V30 17021 H 1592.44 -0.999865 1.03628 0
M  V30 17022 H 1594.39 -4.1306 0.834217 0
M  V30 17023 H 1593.11 -3.26549 -0.0578721 0
M  V30 17024 H 1591.77 -3.0313 2.06174 0
M  V30 17025 H 1591.42 -4.99889 0.558581 0
M  V30 17026 H 1591.12 -5.4229 2.26265 0
M  V30 17027 H 1592.65 -5.92472 1.47678 0
M  V30 17028 H 1594.06 -4.64831 3.35566 0
M  V30 17029 H 1592.46 -4.38153 4.10051 0
M  V30 17030 H 1593.53 -2.9979 3.81122 0
M  V30 17031 N 1594.87 -1.14184 -1.08627 0
M  V30 17032 C 1596.09 -0.932504 -1.85254 0
M  V30 17033 C 1596.52 0.513792 -1.80947 0
M  V30 17034 O 1595.88 1.36525 -1.19292 0
M  V30 17035 C 1595.93 -1.43519 -3.30809 0
M  V30 17036 O 1595.03 -0.625806 -4.07624 0
M  V30 17037 H 1594.37 -0.333573 -0.57413 0
M  V30 17038 H 1596.9 -1.51853 -1.3712 0
M  V30 17039 H 1596.91 -1.44238 -3.81654 0
M  V30 17040 H 1595.59 -2.48819 -3.3326 0
M  V30 17041 H 1594.16 -0.687168 -3.66514 0
M  V30 17042 N 1596.35 1.26749 -0.936613 0
M  V30 17043 C 1597.26 2.30272 -0.448573 0
M  V30 17044 C 1598.27 1.67386 0.475184 0
M  V30 17045 O 1599.45 1.98232 0.355825 0
M  V30 17046 C 1596.52 3.45546 0.28262 0
M  V30 17047 C 1595.58 4.23926 -0.677138 0
M  V30 17048 C 1594.81 5.33697 0.019255 0
M  V30 17049 O 1595.03 5.56825 1.23703 0
M  V30 17050 O 1593.97 5.98302 -0.657119 0
M  V30 17051 H 1597.79 2.74072 -1.30838 0
M  V30 17052 H 1595.38 1.31863 -0.702314 0
M  V30 17053 H 1597.26 4.15635 0.694686 0
M  V30 17054 H 1595.93 3.03784 1.11789 0
M  V30 17055 H 1594.84 3.56337 -1.13906 0
M  V30 17056 H 1596.17 4.69425 -1.47988 0
M  V30 17057 N 1597.83 0.703118 1.41046 0
M  V30 17058 C 1598.76 0.0570815 2.3343 0
M  V30 17059 C 1599.74 -0.759042 1.52225 0
M  V30 17060 O 1600.92 -0.710491 1.80736 0
M  V30 17061 C 1598.05 -0.874541 3.36109 0
M  V30 17062 C 1597.01 -0.16496 4.27682 0
M  V30 17063 C 1596.33 -1.21145 5.20795 0
M  V30 17064 C 1597.63 0.97332 5.13151 0
M  V30 17065 H 1599.33 0.828699 2.87703 0
M  V30 17066 H 1596.87 0.399956 1.38334 0
M  V30 17067 H 1598.83 -1.33579 3.99668 0
M  V30 17068 H 1597.55 -1.67791 2.80203 0
M  V30 17069 H 1596.21 0.276332 3.65557 0
M  V30 17070 H 1595.86 -2.00755 4.61201 0
M  V30 17071 H 1595.56 -0.741633 5.82901 0
M  V30 17072 H 1597.08 -1.67305 5.87232 0
M  V30 17073 H 1598.49 0.592013 5.70235 0
M  V30 17074 H 1596.89 1.37071 5.84236 0
M  V30 17075 H 1597.96 1.80961 4.49868 0
M  V30 17076 N 1599.3 -1.51086 0.448402 0
M  V30 17077 C 1600.21 -2.3177 -0.363323 0
M  V30 17078 C 1601.23 -1.41159 -1.01736 0
M  V30 17079 O 1602.41 -1.74226 -1.01031 0
M  V30 17080 C 1599.47 -3.15211 -1.4437 0
M  V30 17081 C 1598.53 -4.21615 -0.808643 0
M  V30 17082 C 1597.77 -5.01069 -1.83754 0
M  V30 17083 O 1597.99 -4.81296 -3.06121 0
M  V30 17084 O 1596.92 -5.84863 -1.42193 0
M  V30 17085 H 1600.75 -3.02257 0.295653 0
M  V30 17086 H 1598.33 -1.47907 0.210703 0
M  V30 17087 H 1600.22 -3.67053 -2.07002 0
M  V30 17088 H 1598.89 -2.47476 -2.08656 0
M  V30 17089 H 1597.8 -3.73823 -0.143975 0
M  V30 17090 H 1599.13 -4.91756 -0.209098 0
M  V30 17091 N 1600.78 -0.180154 -1.56567 0
M  V30 17092 C 1601.73 0.746666 -2.18389 0
M  V30 17093 C 1602.7 1.22058 -1.12655 0
M  V30 17094 O 1603.88 1.28716 -1.40843 0
M  V30 17095 C 1601.02 1.96688 -2.83563 0
M  V30 17096 C 1600.14 1.53572 -4.03782 0
M  V30 17097 C 1599.27 2.71028 -4.56856 0
M  V30 17098 C 1598.31 2.24445 -5.69465 0
M  V30 17099 N 1597.45 3.35026 -6.17011 0
M  V30 17100 H 1602.29 0.212707 -2.9724 0
M  V30 17101 H 1599.83 0.093256 -1.46804 0
M  V30 17102 H 1601.78 2.68269 -3.19511 0
M  V30 17103 H 1600.41 2.4744 -2.073 0
M  V30 17104 H 1599.47 0.716323 -3.73595 0
M  V30 17105 H 1600.78 1.15385 -4.85271 0
M  V30 17106 H 1599.93 3.50753 -4.95032 0
M  V30 17107 H 1598.67 3.1248 -3.74443 0
M  V30 17108 H 1597.68 1.43169 -5.30832 0
M  V30 17109 H 1598.9 1.84041 -6.53686 0
M  V30 17110 H 1596.85 3.76037 -5.37524 0
M  V30 17111 H 1596.76 3.0096 -6.93512 0
M  V30 17112 H 1598.03 4.15009 -6.59839 0
M  V30 17113 N 1602.26 1.57322 0.0935319 0
M  V30 17114 C 1603.19 1.98861 1.13961 0
M  V30 17115 C 1604.21 0.891385 1.36228 0
M  V30 17116 O 1605.39 1.16949 1.34853 0
M  V30 17117 C 1602.49 2.29369 2.49485 0
M  V30 17118 C 1601.67 3.6066 2.47473 0
M  V30 17119 C 1600.73 3.79087 3.64937 0
M  V30 17120 O 1599.75 4.50923 3.47357 0
M  V30 17121 N 1600.95 3.19784 4.84478 0
M  V30 17122 H 1603.72 2.89208 0.786048 0
M  V30 17123 H 1601.28 1.59416 0.282491 0
M  V30 17124 H 1603.27 2.38889 3.26671 0
M  V30 17125 H 1601.84 1.45021 2.76925 0
M  V30 17126 H 1601.06 3.62095 1.55823 0
M  V30 17127 H 1602.35 4.46908 2.43209 0
M  V30 17128 H 1601.75 2.61436 5.01665 0
M  V30 17129 H 1600.31 3.34786 5.59251 0
M  V30 17130 N 1603.74 -0.364395 1.53329 0
M  V30 17131 C 1604.99 -1.10423 1.68789 0
M  V30 17132 C 1605.3 -1.90428 0.446819 0
M  V30 17133 O 1606.51 -2.67188 0.481978 0
M  V30 17134 C 1604.96 -2.01228 2.98388 0
M  V30 17135 C 1604.57 -1.26529 4.29761 0
M  V30 17136 C 1606.31 -2.75196 3.23214 0
M  V30 17137 C 1604.22 -2.16243 5.50448 0
M  V30 17138 H 1603.15 -0.415935 0.628899 0
M  V30 17139 H 1605.8 -0.365145 1.7983 0
M  V30 17140 H 1604.18 -2.78872 2.81152 0
M  V30 17141 H 1605.36 -0.5394 4.57632 0
M  V30 17142 H 1603.67 -0.644181 4.11387 0
M  V30 17143 H 1606.27 -3.42548 4.10567 0
M  V30 17144 H 1606.61 -3.40629 2.39327 0
M  V30 17145 H 1607.15 -2.04635 3.4113 0
M  V30 17146 H 1603.89 -1.55385 6.36817 0
M  V30 17147 H 1603.41 -2.86678 5.26855 0
M  V30 17148 H 1605.08 -2.75774 5.85284 0
M  V30 17149 N 1605.22 -1.44709 -0.62426 0
M  V30 17150 C 1606.15 -1.48097 -1.74928 0
M  V30 17151 C 1607.16 -0.373567 -1.58456 0
M  V30 17152 O 1608.35 -0.639699 -1.66644 0
M  V30 17153 C 1605.45 -1.30576 -3.12735 0
M  V30 17154 C 1604.62 -2.54688 -3.55602 0
M  V30 17155 C 1603.68 -2.31966 -4.72311 0
M  V30 17156 O 1602.71 -3.05492 -4.80274 0
M  V30 17157 N 1603.91 -1.35463 -5.64473 0
M  V30 17158 H 1606.68 -2.45086 -1.72491 0
M  V30 17159 H 1604.24 -1.40236 -0.809039 0
M  V30 17160 H 1606.23 -1.13212 -3.88542 0
M  V30 17161 H 1604.8 -0.419262 -3.09776 0
M  V30 17162 H 1604.02 -2.87282 -2.69931 0
M  V30 17163 H 1605.31 -3.37223 -3.80996 0
M  V30 17164 H 1604.7 -0.747509 -5.60739 0
M  V30 17165 H 1603.26 -1.24075 -6.39882 0
M  V30 17166 N 1606.69 0.865285 -1.31722 0
M  V30 17167 C 1607.94 1.62108 -1.21855 0
M  V30 17168 C 1608.27 1.9293 0.221714 0
M  V30 17169 O 1607.55 1.56423 1.15595 0
M  V30 17170 C 1607.83 2.94828 -2.06756 0
M  V30 17171 C 1607.68 2.70855 -3.59107 0
M  V30 17172 C 1609 3.95983 -1.92055 0
M  V30 17173 H 1606.12 0.588234 -0.444015 0
M  V30 17174 H 1608.76 0.999922 -1.6156 0
M  V30 17175 H 1606.91 3.47843 -1.73025 0
M  V30 17176 H 1608.59 2.24477 -4.02999 0
M  V30 17177 H 1606.83 2.05004 -3.82303 0
M  V30 17178 H 1607.5 3.65312 -4.13825 0
M  V30 17179 H 1609.98 3.52193 -2.21584 0
M  V30 17180 H 1608.85 4.86724 -2.53754 0
M  V30 17181 H 1609.11 4.33148 -0.885174 0
M  V30 17182 N 1608.17 1.14759 1.0802 0
M  V30 17183 C 1609.42 0.912823 1.79862 0
M  V30 17184 C 1609.73 -0.561873 1.87356 0
M  V30 17185 O 1610.94 -0.914015 2.55652 0
M  V30 17186 C 1609.4 1.58369 3.23183 0
M  V30 17187 C 1609 3.09493 3.23911 0
M  V30 17188 C 1610.75 1.43021 3.99682 0
M  V30 17189 C 1608.66 3.69398 4.61843 0
M  V30 17190 H 1607.59 0.337868 0.674063 0
M  V30 17191 H 1610.24 1.37695 1.21294 0
M  V30 17192 H 1608.62 1.04724 3.81902 0
M  V30 17193 H 1609.79 3.69838 2.74876 0
M  V30 17194 H 1608.11 3.24524 2.60908 0
M  V30 17195 H 1610.7 1.85174 5.01612 0
M  V30 17196 H 1611.05 0.376814 4.14591 0
M  V30 17197 H 1611.58 1.93724 3.47442 0
M  V30 17198 H 1608.32 4.74607 4.52138 0
M  V30 17199 H 1607.84 3.13835 5.11144 0
M  V30 17200 H 1609.52 3.69923 5.30816 0
M  V30 17201 N 1609.65 -1.26251 0.943322 0
M  V30 17202 C 1611.07 -1.45943 0.645966 0
M  V30 17203 C 1611.27 -1.84936 -0.800064 0
M  V30 17204 O 1610.32 -1.97238 -1.57649 0
M  V30 17205 C 1611.64 -2.54017 1.60922 0
M  V30 17206 C 1613.18 -2.67866 1.61916 0
M  V30 17207 C 1613.66 -3.79113 2.56977 0
M  V30 17208 N 1615.15 -3.86509 2.55275 0
M  V30 17209 C 1615.88 -4.72048 3.25513 0
M  V30 17210 N 1615.38 -5.61959 4.05184 0
M  V30 17211 N 1617.17 -4.65913 3.14454 0
M  V30 17212 H 1609.32 -0.992295 1.87796 0
M  V30 17213 H 1611.59 -0.497204 0.80715 0
M  V30 17214 H 1611.29 -2.32197 2.64155 0
M  V30 17215 H 1611.17 -3.51715 1.36294 0
M  V30 17216 H 1613.55 -2.89059 0.594067 0
M  V30 17217 H 1613.64 -1.70604 1.90598 0
M  V30 17218 H 1613.28 -3.58673 3.59605 0
M  V30 17219 H 1613.21 -4.75836 2.25583 0
M  V30 17220 H 1615.7 -3.22229 1.97425 0
M  V30 17221 H 1616.01 -6.24127 4.55725 0
M  V30 17222 H 1614.36 -5.61704 4.09285 0
M  V30 17223 H 1617.55 -3.94675 2.51693 0
M  V30 17224 H 1617.72 -5.32356 3.69461 0
M  V30 17225 N 1611.13 -0.710588 -1.40671 0
M  V30 17226 C 1612.06 -0.0154749 -2.29195 0
M  V30 17227 C 1613.07 0.728938 -1.45569 0
M  V30 17228 O 1614.26 0.577147 -1.68912 0
M  V30 17229 C 1611.36 1.00232 -3.23739 0
M  V30 17230 C 1610.54 0.324464 -4.36195 0
M  V30 17231 C 1609.6 1.24695 -5.11212 0
M  V30 17232 O 1608.62 0.733634 -5.64452 0
M  V30 17233 N 1609.82 2.57841 -5.20094 0
M  V30 17234 H 1612.59 -0.775543 -2.89492 0
M  V30 17235 H 1610.15 -0.557815 -1.51987 0
M  V30 17236 H 1612.14 1.62151 -3.70795 0
M  V30 17237 H 1610.71 1.66379 -2.64644 0
M  V30 17238 H 1609.93 -0.474847 -3.9133 0
M  V30 17239 H 1611.22 -0.146269 -5.0859 0
M  V30 17240 H 1610.62 3.02047 -4.78314 0
M  V30 17241 H 1609.17 3.14917 -5.70676 0
M  V30 17242 N 1612.61 1.50847 -0.456408 0
M  V30 17243 C 1613.52 2.31959 0.351027 0
M  V30 17244 C 1614.53 1.41697 1.00986 0
M  V30 17245 O 1615.71 1.7476 1.00105 0
M  V30 17246 C 1612.77 3.15973 1.42696 0
M  V30 17247 C 1611.84 4.22038 0.786272 0
M  V30 17248 C 1611.07 5.02036 1.81094 0
M  V30 17249 O 1611.29 4.82913 3.03564 0
M  V30 17250 O 1610.23 5.85609 1.3909 0
M  V30 17251 H 1614.05 3.02096 -0.311678 0
M  V30 17252 H 1611.64 1.47793 -0.218544 0
M  V30 17253 H 1613.52 3.68146 2.05053 0
M  V30 17254 H 1612.19 2.48579 2.0734 0
M  V30 17255 H 1611.1 3.73894 0.124148 0
M  V30 17256 H 1612.43 4.9186 0.183016 0
M  V30 17257 N 1614.09 0.188454 1.56469 0
M  V30 17258 C 1615.02 -0.730379 2.21783 0
M  V30 17259 C 1616 -1.22629 1.17882 0
M  V30 17260 O 1617.18 -1.27634 1.46367 0
M  V30 17261 C 1614.31 -1.95278 2.872 0
M  V30 17262 C 1613.27 -1.59205 3.97288 0
M  V30 17263 C 1612.59 -2.89052 4.49836 0
M  V30 17264 C 1613.89 -0.807027 5.16027 0
M  V30 17265 H 1615.59 -0.185914 2.98822 0
M  V30 17266 H 1613.13 -0.0879804 1.43731 0
M  V30 17267 H 1615.08 -2.60074 3.31571 0
M  V30 17268 H 1613.81 -2.52167 2.07556 0
M  V30 17269 H 1612.47 -0.967713 3.53597 0
M  V30 17270 H 1612.12 -3.44017 3.66963 0
M  V30 17271 H 1611.82 -2.65663 5.24115 0
M  V30 17272 H 1613.34 -3.54847 4.96906 0
M  V30 17273 H 1614.75 -1.35794 5.56986 0
M  V30 17274 H 1613.15 -0.671516 5.96331 0
M  V30 17275 H 1614.22 0.193251 4.84515 0
M  V30 17276 N 1615.56 -1.5737 -0.0851874 0
M  V30 17277 C 1616.5 -1.99462 -1.12905 0
M  V30 17278 C 1617.51 -0.898597 -1.35754 0
M  V30 17279 O 1618.7 -1.17662 -1.34231 0
M  V30 17280 C 1615.8 -2.30689 -2.48266 0
M  V30 17281 C 1614.97 -3.61967 -2.45557 0
M  V30 17282 C 1614.03 -3.81017 -3.62922 0
M  V30 17283 O 1613.06 -4.52759 -3.44961 0
M  V30 17284 N 1614.26 -3.22348 -4.82775 0
M  V30 17285 H 1617.02 -2.89621 -0.7707 0
M  V30 17286 H 1614.58 -1.59564 -0.274033 0
M  V30 17287 H 1616.58 -2.40618 -3.254 0
M  V30 17288 H 1615.15 -1.46488 -2.76152 0
M  V30 17289 H 1614.37 -3.62916 -1.539 0
M  V30 17290 H 1615.65 -4.48191 -2.40836 0
M  V30 17291 H 1615.05 -2.64093 -5.00271 0
M  V30 17292 H 1613.61 -3.37747 -5.57468 0
M  V30 17293 N 1617.04 0.356258 -1.53521 0
M  V30 17294 C 1617.97 1.44271 -1.83598 0
M  V30 17295 C 1618.95 1.5547 -0.690141 0
M  V30 17296 O 1620.14 1.69886 -0.940868 0
M  V30 17297 C 1617.27 2.8149 -2.03422 0
M  V30 17298 C 1616.22 2.85108 -3.19213 0
M  V30 17299 C 1615.55 4.25091 -3.24348 0
M  V30 17300 C 1616.85 2.51788 -4.57602 0
M  V30 17301 H 1618.54 1.1935 -2.74583 0
M  V30 17302 H 1616.09 0.572707 -1.32121 0
M  V30 17303 H 1618.04 3.57531 -2.23046 0
M  V30 17304 H 1616.76 3.07819 -1.09155 0
M  V30 17305 H 1615.42 2.1152 -2.99424 0
M  V30 17306 H 1615.07 4.4851 -2.277 0
M  V30 17307 H 1614.77 4.28426 -4.0215 0
M  V30 17308 H 1616.3 5.02992 -3.46167 0
M  V30 17309 H 1617.71 3.17542 -4.77326 0
M  V30 17310 H 1616.11 2.66426 -5.37715 0
M  V30 17311 H 1617.18 1.4701 -4.62078 0
M  V30 17312 N 1618.52 1.45038 0.616577 0
M  V30 17313 C 1619.48 1.52647 1.70973 0
M  V30 17314 C 1620.48 0.406902 1.55567 0
M  V30 17315 O 1621.67 0.670062 1.60797 0
M  V30 17316 C 1618.8 1.41438 3.10174 0
M  V30 17317 H 1620 2.50036 1.65596 0
M  V30 17318 H 1617.55 1.32346 0.831524 0
M  V30 17319 H 1618.29 0.451991 3.21135 0
M  V30 17320 H 1618.07 2.22634 3.22764 0
M  V30 17321 H 1619.56 1.49776 3.89817 0
M  V30 17322 N 1620 -0.858287 1.32179 0
M  V30 17323 C 1621.24 -1.6146 1.22713 0
M  V30 17324 C 1621.58 -1.93045 -0.211479 0
M  V30 17325 O 1620.85 -1.57034 -1.14764 0
M  V30 17326 C 1621.13 -2.93728 2.08317 0
M  V30 17327 C 1620.99 -2.68947 3.60538 0
M  V30 17328 C 1622.31 -3.94959 1.94153 0
M  V30 17329 H 1619.43 -0.585872 0.447128 0
M  V30 17330 H 1622.07 -0.99134 1.62088 0
M  V30 17331 H 1620.22 -3.4692 1.74867 0
M  V30 17332 H 1621.89 -2.22336 4.04183 0
M  V30 17333 H 1620.13 -2.02974 3.83385 0
M  V30 17334 H 1620.8 -3.63112 4.15756 0
M  V30 17335 H 1623.28 -3.51013 2.23449 0
M  V30 17336 H 1622.16 -4.85371 2.56332 0
M  V30 17337 H 1622.42 -4.32672 0.908132 0
M  V30 17338 N 1621.48 -1.1533 -1.07409 0
M  V30 17339 C 1622.7 -0.952101 -1.84255 0
M  V30 17340 C 1623.13 0.494571 -1.81482 0
M  V30 17341 O 1622.48 1.35253 -1.20733 0
M  V30 17342 C 1622.53 -1.47019 -3.29268 0
M  V30 17343 O 1621.64 -0.669005 -4.06937 0
M  V30 17344 H 1620.98 -0.339643 -0.57056 0
M  V30 17345 H 1623.51 -1.53298 -1.35502 0
M  V30 17346 H 1623.52 -1.48278 -3.80102 0
M  V30 17347 H 1622.19 -2.5234 -3.30602 0
M  V30 17348 H 1620.77 -0.726003 -3.65764 0
M  V30 17349 N 1622.95 1.25748 -0.950004 0
M  V30 17350 C 1624.37 1.45599 -0.653697 0
M  V30 17351 C 1624.57 1.85357 0.790245 0
M  V30 17352 O 1623.63 1.98071 1.56601 0
M  V30 17353 C 1624.94 2.5316 -1.62267 0
M  V30 17354 C 1626.49 2.67004 -1.63334 0
M  V30 17355 C 1626.96 3.77745 -2.58984 0
M  V30 17356 N 1628.45 3.8515 -2.57321 0
M  V30 17357 C 1629.19 4.70315 -3.28011 0
M  V30 17358 N 1628.68 5.59802 -4.08159 0
M  V30 17359 N 1630.48 4.64239 -3.16921 0
M  V30 17360 H 1622.63 0.982321 -1.88319 0
M  V30 17361 H 1624.89 0.492917 -0.809776 0
M  V30 17362 H 1624.6 2.30792 -2.65382 0
M  V30 17363 H 1624.47 3.50988 -1.38158 0
M  V30 17364 H 1626.86 2.88739 -0.609388 0
M  V30 17365 H 1626.94 1.69591 -1.915 0
M  V30 17366 H 1626.58 3.56761 -3.61502 0
M  V30 17367 H 1626.51 4.74633 -2.28103 0
M  V30 17368 H 1629 3.21178 -1.99131 0
M  V30 17369 H 1629.32 6.21701 -4.59029 0
M  V30 17370 H 1627.66 5.59525 -4.12258 0
M  V30 17371 H 1630.85 3.93335 -2.53782 0
M  V30 17372 H 1631.03 5.30389 -3.72279 0
M  V30 17373 N 1624.43 0.718038 1.40292 0
M  V30 17374 C 1625.38 0.0670495 2.30703 0
M  V30 17375 C 1626.35 -0.747716 1.48319 0
M  V30 17376 O 1627.53 -0.711161 1.77051 0
M  V30 17377 C 1624.67 -0.846918 3.34546 0
M  V30 17378 C 1623.79 -0.0213622 4.31995 0
M  V30 17379 C 1622.92 -0.935035 5.22906 0
M  V30 17380 C 1621.96 -0.103715 6.12012 0
M  V30 17381 N 1621.1 -0.972397 6.95334 0
M  V30 17382 H 1625.94 0.843724 2.85806 0
M  V30 17383 H 1623.47 0.427756 1.40743 0
M  V30 17384 H 1625.43 -1.39109 3.93325 0
M  V30 17385 H 1624.06 -1.58975 2.80939 0
M  V30 17386 H 1623.11 0.640026 3.74977 0
M  V30 17387 H 1624.43 0.62215 4.94905 0
M  V30 17388 H 1623.58 -1.54766 5.86628 0
M  V30 17389 H 1622.32 -1.61236 4.60276 0
M  V30 17390 H 1621.32 0.521826 5.47318 0
M  V30 17391 H 1622.55 0.570146 6.76702 0
M  V30 17392 H 1620.5 -1.63533 6.3529 0
M  V30 17393 H 1620.41 -0.384977 7.55019 0
M  V30 17394 H 1621.68 -1.57112 7.63503 0
M  V30 17395 N 1625.91 -1.50602 0.464402 0
M  V30 17396 C 1627.14 -2.06701 -0.0907765 0
M  V30 17397 C 1627.55 -1.32901 -1.341 0
M  V30 17398 O 1626.91 -0.396323 -1.78145 0
M  V30 17399 C 1626.96 -3.59437 -0.385667 0
M  V30 17400 O 1626.68 -4.30453 0.81496 0
M  V30 17401 C 1628.18 -4.32137 -0.988549 0
M  V30 17402 H 1625.4 -0.670987 0.00410069 0
M  V30 17403 H 1627.95 -1.93853 0.651264 0
M  V30 17404 H 1626.1 -3.7211 -1.07763 0
M  V30 17405 H 1626.52 -5.2155 0.55551 0
M  V30 17406 H 1627.99 -5.40001 -1.1447 0
M  V30 17407 H 1628.47 -3.92194 -1.97688 0
M  V30 17408 H 1629.07 -4.23977 -0.335166 0
M  V30 17409 N 1627.39 -0.19675 -1.56367 0
M  V30 17410 C 1628.3 0.735372 -2.22777 0
M  V30 17411 C 1629.31 1.23336 -1.22737 0
M  V30 17412 O 1630.49 1.28017 -1.55479 0
M  V30 17413 C 1627.56 1.93706 -2.8754 0
M  V30 17414 C 1626.62 1.48348 -4.02854 0
M  V30 17415 C 1625.85 2.62788 -4.64519 0
M  V30 17416 O 1626.07 3.80311 -4.25111 0
M  V30 17417 O 1625.01 2.35406 -5.53956 0
M  V30 17418 H 1628.83 0.199788 -3.03042 0
M  V30 17419 H 1626.42 0.0326149 -1.49364 0
M  V30 17420 H 1628.3 2.63934 -3.28507 0
M  V30 17421 H 1626.97 2.46121 -2.10252 0
M  V30 17422 H 1625.88 0.749939 -3.66506 0
M  V30 17423 H 1627.21 1.00597 -4.8181 0
M  V30 17424 N 1628.87 1.57413 0.0768405 0
M  V30 17425 C 1629.8 2.06378 1.09226 0
M  V30 17426 C 1630.78 0.956269 1.40675 0
M  V30 17427 O 1631.96 1.22868 1.5039 0
M  V30 17428 C 1629.09 2.50349 2.40712 0
M  V30 17429 C 1628.05 3.64931 2.23628 0
M  V30 17430 C 1627.37 3.9494 3.60453 0
M  V30 17431 C 1628.67 4.95162 1.66169 0
M  V30 17432 H 1630.37 2.91463 0.684827 0
M  V30 17433 H 1627.91 1.40215 0.327974 0
M  V30 17434 H 1629.87 2.83216 3.12036 0
M  V30 17435 H 1628.59 1.62287 2.83426 0
M  V30 17436 H 1627.25 3.32339 1.54747 0
M  V30 17437 H 1626.9 3.04016 4.00728 0
M  V30 17438 H 1626.6 4.72091 3.49863 0
M  V30 17439 H 1628.12 4.30299 4.33215 0
M  V30 17440 H 1629.53 5.26292 2.27353 0
M  V30 17441 H 1627.93 5.76601 1.66289 0
M  V30 17442 H 1629 4.80885 0.62271 0
M  V30 17443 N 1630.34 -0.348112 1.53707 0
M  V30 17444 C 1631.25 -1.45079 1.84361 0
M  V30 17445 C 1632.27 -1.5779 0.733375 0
M  V30 17446 O 1633.45 -1.73353 1.02522 0
M  V30 17447 C 1630.51 -2.80127 2.04278 0
M  V30 17448 C 1629.57 -2.76799 3.28148 0
M  V30 17449 C 1628.81 -4.05406 3.47105 0
M  V30 17450 O 1629.03 -5.02454 2.69992 0
M  V30 17451 O 1627.96 -4.10155 4.40519 0
M  V30 17452 H 1631.79 -1.22093 2.78077 0
M  V30 17453 H 1629.37 -0.539863 1.39305 0
M  V30 17454 H 1631.26 -3.60115 2.18849 0
M  V30 17455 H 1629.93 -3.03055 1.13751 0
M  V30 17456 H 1628.84 -1.95448 3.18984 0
M  V30 17457 H 1630.17 -2.58826 4.18653 0
M  V30 17458 N 1631.82 -1.45363 -0.608876 0
M  V30 17459 C 1632.73 -1.56471 -1.74797 0
M  V30 17460 C 1633.75 -0.449225 -1.68101 0
M  V30 17461 O 1634.92 -0.709731 -1.8848 0
M  V30 17462 C 1631.99 -1.52714 -3.11254 0
M  V30 17463 C 1631.05 -2.75291 -3.29414 0
M  V30 17464 C 1630.28 -2.71704 -4.59361 0
M  V30 17465 O 1630.51 -1.78959 -5.41599 0
M  V30 17466 O 1629.44 -3.62886 -4.80205 0
M  V30 17467 H 1633.27 -2.52751 -1.68377 0
M  V30 17468 H 1630.85 -1.27859 -0.772808 0
M  V30 17469 H 1632.73 -1.53222 -3.92557 0
M  V30 17470 H 1631.41 -0.595858 -3.18169 0
M  V30 17471 H 1630.32 -2.80345 -2.47704 0
M  V30 17472 H 1631.65 -3.67541 -3.27375 0
M  V30 17473 N 1633.3 0.851265 -1.32632 0
M  V30 17474 C 1634.53 1.63568 -1.26211 0
M  V30 17475 C 1634.94 1.8842 0.171578 0
M  V30 17476 O 1634.28 1.45592 1.12021 0
M  V30 17477 C 1634.34 3.01653 -1.95566 0
M  V30 17478 C 1634.01 2.99827 -3.44896 0
M  V30 17479 C 1635 2.76431 -4.4032 0
M  V30 17480 C 1632.69 3.20355 -3.86883 0
M  V30 17481 C 1634.68 2.73572 -5.75706 0
M  V30 17482 C 1632.37 3.17122 -5.22376 0
M  V30 17483 C 1633.37 2.9376 -6.16599 0
M  V30 17484 O 1633.06 2.90408 -7.49612 0
M  V30 17485 H 1632.79 0.516079 -0.436622 0
M  V30 17486 H 1635.34 1.06941 -1.75365 0
M  V30 17487 H 1633.57 3.60083 -1.40986 0
M  V30 17488 H 1635.26 3.62403 -1.82809 0
M  V30 17489 H 1636.03 2.60335 -4.09208 0
M  V30 17490 H 1631.91 3.37563 -3.13962 0
M  V30 17491 H 1635.45 2.55257 -6.49222 0
M  V30 17492 H 1631.35 3.32764 -5.53117 0
M  V30 17493 H 1632.12 3.06338 -7.59012 0
M  V30 17494 N 1634.78 1.15898 1.06796 0
M  V30 17495 C 1635.71 0.818654 2.14081 0
M  V30 17496 C 1636.72 -0.171847 1.6189 0
M  V30 17497 O 1637.91 0.052196 1.78424 0
M  V30 17498 C 1635.01 0.197283 3.38325 0
M  V30 17499 C 1634.19 1.22662 4.19849 0
M  V30 17500 C 1633.24 0.625985 5.22463 0
M  V30 17501 O 1632.27 1.29347 5.54309 0
M  V30 17502 N 1633.47 -0.589665 5.77497 0
M  V30 17503 H 1636.24 1.74196 2.43877 0
M  V30 17504 H 1633.8 1.05562 1.22753 0
M  V30 17505 H 1635.79 -0.217439 4.04115 0
M  V30 17506 H 1634.36 -0.629476 3.06197 0
M  V30 17507 H 1633.58 1.8177 3.49791 0
M  V30 17508 H 1634.87 1.92143 4.71125 0
M  V30 17509 H 1634.27 -1.15022 5.53883 0
M  V30 17510 H 1632.82 -0.946667 6.44889 0
M  V30 17511 N 1636.26 -1.25243 0.956659 0
M  V30 17512 C 1637.67 -1.4525 0.661409 0
M  V30 17513 C 1637.87 -1.85774 -0.780404 0
M  V30 17514 O 1636.93 -1.98899 -1.55549 0
M  V30 17515 C 1638.24 -2.52296 1.63607 0
M  V30 17516 C 1639.79 -2.66134 1.64748 0
M  V30 17517 C 1640.26 -3.76366 2.60983 0
M  V30 17518 N 1641.76 -3.8378 2.5936 0
M  V30 17519 C 1642.49 -4.68569 3.30501 0
M  V30 17520 N 1641.99 -5.5763 4.11122 0
M  V30 17521 N 1643.78 -4.62551 3.19378 0
M  V30 17522 H 1635.93 -0.972321 1.88838 0
M  V30 17523 H 1638.19 -0.488615 0.812379 0
M  V30 17524 H 1637.9 -2.29382 2.66603 0
M  V30 17525 H 1637.77 -3.5025 1.40017 0
M  V30 17526 H 1640.16 -2.88412 0.624692 0
M  V30 17527 H 1640.24 -1.68573 1.92397 0
M  V30 17528 H 1639.89 -3.54839 3.63389 0
M  V30 17529 H 1639.82 -4.73417 2.30617 0
M  V30 17530 H 1642.31 -3.20117 2.00832 0
M  V30 17531 H 1642.62 -6.19258 4.62319 0
M  V30 17532 H 1640.96 -5.57331 4.15219 0
M  V30 17533 H 1644.16 -3.91983 2.55865 0
M  V30 17534 H 1644.33 -5.28407 3.75086 0
M  V30 17535 N 1637.73 -0.725468 -1.3991 0
M  V30 17536 C 1638.96 -0.279202 -2.05007 0
M  V30 17537 C 1639.38 1.08257 -1.5468 0
M  V30 17538 O 1638.73 1.68224 -0.707585 0
M  V30 17539 C 1638.79 -0.261347 -3.60554 0
M  V30 17540 O 1638.51 -1.56935 -4.09027 0
M  V30 17541 C 1640.01 0.202259 -4.42838 0
M  V30 17542 H 1637.23 -0.123664 -0.659506 0
M  V30 17543 H 1639.77 -0.986447 -1.79135 0
M  V30 17544 H 1637.93 0.396936 -3.85361 0
M  V30 17545 H 1638.34 -1.47647 -5.0329 0
M  V30 17546 H 1639.81 0.163598 -5.51758 0
M  V30 17547 H 1640.29 1.24597 -4.21156 0
M  V30 17548 H 1640.9 -0.426108 -4.2316 0
M  V30 17549 N 1639.21 1.50354 -0.472382 0
M  V30 17550 C 1640.44 2.07238 0.0820787 0
M  V30 17551 C 1640.86 1.3338 1.32632 0
M  V30 17552 O 1640.22 0.381857 1.77233 0
M  V30 17553 C 1640.27 3.58919 0.347746 0
M  V30 17554 O 1639.37 3.86888 1.42799 0
M  V30 17555 H 1638.71 0.663862 -0.0135544 0
M  V30 17556 H 1641.24 1.93533 -0.663795 0
M  V30 17557 H 1641.25 4.03743 0.587855 0
M  V30 17558 H 1639.93 4.12093 -0.56147 0
M  V30 17559 H 1638.51 3.53901 1.17509 0
M  V30 17560 N 1640.69 0.205039 1.56261 0
M  V30 17561 C 1642.11 -0.150644 1.58887 0
M  V30 17562 C 1642.31 -1.60256 1.22148 0
M  V30 17563 O 1641.36 -2.33991 0.948912 0
M  V30 17564 C 1642.68 0.160711 3.0027 0
M  V30 17565 C 1644.22 0.101616 3.12835 0
M  V30 17566 C 1644.7 0.386417 4.56367 0
M  V30 17567 N 1646.19 0.335392 4.61984 0
M  V30 17568 C 1646.93 0.529473 5.7095 0
M  V30 17569 N 1646.42 0.784441 6.88345 0
M  V30 17570 N 1648.21 0.463044 5.6019 0
M  V30 17571 H 1640.37 1.15238 1.78421 0
M  V30 17572 H 1642.63 0.460698 0.82853 0
M  V30 17573 H 1642.33 1.1678 3.31746 0
M  V30 17574 H 1642.21 -0.532067 3.73429 0
M  V30 17575 H 1644.6 -0.896093 2.81166 0
M  V30 17576 H 1644.68 0.827622 2.42041 0
M  V30 17577 H 1644.32 1.38149 4.88751 0
M  V30 17578 H 1644.25 -0.360592 5.25364 0
M  V30 17579 H 1646.74 0.145346 3.7762 0
M  V30 17580 H 1647.05 0.921077 7.67291 0
M  V30 17581 H 1645.4 0.821448 6.90128 0
M  V30 17582 H 1648.59 0.2642 4.67354 0
M  V30 17583 H 1648.76 0.617712 6.45049 0
M  V30 17584 N 1642.17 -1.57451 -0.0684915 0
M  V30 17585 C 1643.4 -1.9164 -0.779855 0
M  V30 17586 C 1643.81 -0.801309 -1.70952 0
M  V30 17587 O 1643.17 0.225134 -1.81106 0
M  V30 17588 C 1643.22 -3.25594 -1.57068 0
M  V30 17589 O 1642.94 -4.32816 -0.678385 0
M  V30 17590 C 1644.44 -3.73818 -2.38275 0
M  V30 17591 H 1641.66 -0.633374 -0.221537 0
M  V30 17592 H 1644.21 -2.04465 -0.0377746 0
M  V30 17593 H 1642.36 -3.14287 -2.26501 0
M  V30 17594 H 1642.78 -5.09903 -1.22877 0
M  V30 17595 H 1644.25 -4.70168 -2.89216 0
M  V30 17596 H 1644.73 -3.02995 -3.17947 0
M  V30 17597 H 1645.33 -3.88081 -1.73992 0
M  V30 17598 N 1643.65 0.339955 -1.5389 0
M  V30 17599 C 1644.89 1.0882 -1.73025 0
M  V30 17600 C 1645.25 1.85773 -0.485017 0
M  V30 17601 O 1646.45 2.63041 -0.55345 0
M  V30 17602 C 1644.72 2.00153 -2.96097 0
M  V30 17603 S 1646.28 2.82151 -3.3606 0
M  V30 17604 H 1643.1 0.367632 -0.608578 0
M  V30 17605 H 1645.7 0.366178 -1.9204 0
M  V30 17606 H 1644.41 1.42426 -3.84893 0
M  V30 17607 H 1643.94 2.76787 -2.79558 0
M  V30 17608 H 1645.95 4.0258 -2.90076 0
M  V30 17609 N 1645.13 1.45684 0.601159 0
M  V30 17610 C 1646.04 1.57396 1.73965 0
M  V30 17611 C 1647.05 0.458133 1.6786 0
M  V30 17612 O 1648.23 0.719717 1.88101 0
M  V30 17613 C 1645.29 1.54363 3.1044 0
M  V30 17614 C 1644.35 2.77034 3.27949 0
M  V30 17615 C 1643.59 2.74136 4.57914 0
M  V30 17616 O 1643.81 1.81829 5.40643 0
M  V30 17617 O 1642.74 3.65428 4.78274 0
M  V30 17618 H 1646.57 2.5364 1.67034 0
M  V30 17619 H 1644.15 1.28267 0.766017 0
M  V30 17620 H 1646.04 1.55302 3.91739 0
M  V30 17621 H 1644.71 0.612723 3.17848 0
M  V30 17622 H 1643.62 2.81655 2.46214 0
M  V30 17623 H 1644.95 3.69272 3.25422 0
M  V30 17624 N 1646.6 -0.84422 1.33082 0
M  V30 17625 C 1647.83 -1.63654 1.27405 0
M  V30 17626 C 1648.25 -1.87476 -0.153146 0
M  V30 17627 O 1647.61 -1.43502 -1.10801 0
M  V30 17628 C 1647.66 -2.96698 2.04945 0
M  V30 17629 O 1646.76 -3.87751 1.40439 0
M  V30 17630 H 1646.1 -0.498545 0.438576 0
M  V30 17631 H 1648.63 -1.0507 1.7556 0
M  V30 17632 H 1648.64 -3.46438 2.1551 0
M  V30 17633 H 1647.32 -2.78682 3.08722 0
M  V30 17634 H 1645.9 -3.46231 1.38487 0
M  V30 17635 O 1648.12 -1.28224 -0.981879 0
M  V30 17636 H 1648.81 -1.08296 -1.60598 0
M  V30 END ATOM
M  V30 BEGIN BOND
M  V30 END BOND
M  V30 END CTAB
M  END
$$$$
