drugbank_target|Q13255 Metabotropic glutamate receptor 1 (DB00142; DB04256)
 OpenBabel12092119403D

  0  0  0     0  0            999 V3000
M  V30 BEGIN CTAB
M  V30 COUNTS 18599 18823 0 0 0
M  V30 BEGIN ATOM
M  V30 1 H -0.908 1.98254 -0.117106 0
M  V30 2 N 0 1.576 0 0
M  V30 3 C 0.933 2.03868 1.02534 0
M  V30 4 C 1.911 0.928543 1.3348 0
M  V30 5 O 3.095 1.19667 1.45644 0
M  V30 6 C 0.222 2.43627 2.35294 0
M  V30 7 C -0.732 3.65373 2.2001 0
M  V30 8 S 0.101 5.13292 1.52614 0
M  V30 9 C 1.257 5.56322 2.86805 0
M  V30 10 H 1.49 2.90518 0.631377 0
M  V30 11 H -0.977 1.52953 0.210867 0
M  V30 12 H 0.981 2.67203 3.11629 0
M  V30 13 H -0.358 1.57376 2.7183 0
M  V30 14 H -1.165 3.90944 3.18086 0
M  V30 15 H -1.563 3.418 1.51819 0
M  V30 16 H 0.729 5.58782 3.83104 0
M  V30 17 H 1.672 6.56266 2.65933 0
M  V30 18 H 2.08 4.83886 2.90714 0
M  V30 19 N 1.4781 -0.272755 1.55222 0
M  V30 20 C 2.7241 -1.00581 1.761 0
M  V30 21 C 3.0571 -1.85932 0.560625 0
M  V30 22 O 2.3321 -1.89416 -0.441801 0
M  V30 23 C 2.6151 -1.88816 3.06628 0
M  V30 24 C 2.4681 -1.06457 4.37021 0
M  V30 25 C 3.7871 -2.8752 3.33197 0
M  V30 26 H 0.9061 -0.364244 0.640699 0
M  V30 27 H 3.5481 -0.278189 1.87952 0
M  V30 28 H 1.6981 -2.50856 2.96654 0
M  V30 29 H 3.3701 -0.464863 4.58952 0
M  V30 30 H 1.6131 -0.368043 4.32236 0
M  V30 31 H 2.2841 -1.71514 5.24678 0
M  V30 32 H 4.7601 -2.35615 3.42965 0
M  V30 33 H 3.6361 -3.46399 4.25792 0
M  V30 34 H 3.8971 -3.62657 2.52849 0
M  V30 35 N 2.9562 -1.48159 -0.537278 0
M  V30 36 C 4.2042 -1.55497 -1.29094 0
M  V30 37 C 4.5252 -0.227454 -1.93669 0
M  V30 38 O 3.7952 0.750386 -1.80959 0
M  V30 39 H 2.3752 -0.572832 -0.47945 0
M  V30 40 H 5.0372 -1.84579 -0.625818 0
M  V30 41 H 4.1332 -2.33216 -2.07405 0
M  V30 42 N 4.4343 0.785586 -1.36625 0
M  V30 43 C 5.3643 1.91259 -1.33949 0
M  V30 44 C 6.3453 1.68795 -0.210325 0
M  V30 45 O 7.5303 1.89854 -0.408561 0
M  V30 46 C 4.6603 3.28339 -1.13186 0
M  V30 47 C 3.6143 3.65335 -2.22967 0
M  V30 48 C 2.9403 5.00806 -1.87342 0
M  V30 49 C 4.2403 3.7352 -3.65075 0
M  V30 50 H 5.9343 1.93755 -2.28253 0
M  V30 51 H 3.4803 0.930788 -1.09874 0
M  V30 52 H 5.4333 4.06804 -1.09948 0
M  V30 53 H 4.1573 3.2624 -0.153332 0
M  V30 54 H 2.8163 2.89169 -2.25337 0
M  V30 55 H 2.4643 4.95233 -0.880545 0
M  V30 56 H 2.1643 5.26529 -2.60846 0
M  V30 57 H 3.6883 5.81687 -1.85667 0
M  V30 58 H 5.1023 4.42168 -3.64911 0
M  V30 59 H 3.4993 4.10731 -4.37516 0
M  V30 60 H 4.5693 2.74527 -3.99703 0
M  V30 61 N 5.9124 1.20967 1.01018 0
M  V30 62 C 6.8424 0.988272 2.11555 0
M  V30 63 C 7.8234 -0.0849778 1.69888 0
M  V30 64 O 9.0084 0.0738202 1.9406 0
M  V30 65 C 6.1384 0.546528 3.42973 0
M  V30 66 C 5.0924 1.56375 3.9841 0
M  V30 67 C 4.4184 0.97842 5.25672 0
M  V30 68 C 5.7184 2.94922 4.31066 0
M  V30 69 H 7.4124 1.91276 2.30334 0
M  V30 70 H 4.9584 0.921073 1.1069 0
M  V30 71 H 6.9114 0.378839 4.19694 0
M  V30 72 H 5.6354 -0.413598 3.23971 0
M  V30 73 H 4.2944 1.71891 3.23804 0
M  V30 74 H 3.9424 0.0101688 5.02999 0
M  V30 75 H 3.6424 1.65784 5.63728 0
M  V30 76 H 5.1664 0.821939 6.05043 0
M  V30 77 H 6.5804 2.8288 4.9865 0
M  V30 78 H 4.9774 3.5983 4.80253 0
M  V30 79 H 6.0474 3.4616 3.39561 0
M  V30 80 N 7.3905 -1.2043 1.01659 0
M  V30 81 C 8.3205 -2.25466 0.607226 0
M  V30 82 C 9.3015 -1.65853 -0.377716 0
M  V30 83 O 10.4865 -1.92409 -0.263149 0
M  V30 84 C 7.6165 -3.47256 -0.0552949 0
M  V30 85 C 6.5705 -4.19462 0.850632 0
M  V30 86 C 5.8965 -5.34673 0.0538859 0
M  V30 87 C 7.1965 -4.75603 2.15868 0
M  V30 88 H 8.8905 -2.59962 1.48526 0
M  V30 89 H 6.4365 -1.2496 0.715605 0
M  V30 90 H 8.3895 -4.19917 -0.353233 0
M  V30 91 H 7.1135 -3.11924 -0.968045 0
M  V30 92 H 5.7725 -3.48667 1.13257 0
M  V30 93 H 5.4205 -4.95585 -0.860514 0
M  V30 94 H 5.1205 -5.83913 0.657192 0
M  V30 95 H 6.6445 -6.10138 -0.237598 0
M  V30 96 H 8.0585 -5.40083 1.92311 0
M  V30 97 H 6.4555 -5.3528 2.71284 0
M  V30 98 H 7.5255 -3.94346 2.82169 0
M  V30 99 N 8.8686 -0.792821 -1.36206 0
M  V30 100 C 10.1156 -0.366786 -1.99151 0
M  V30 101 C 10.4436 1.06243 -1.62919 0
M  V30 102 O 9.6986 1.74927 -0.877442 0
M  V30 103 C 9.9976 -0.481501 -3.54142 0
M  V30 104 C 9.6636 -1.87202 -4.10203 0
M  V30 105 C 8.3256 -2.25248 -4.25226 0
M  V30 106 C 10.6776 -2.78237 -4.40719 0
M  V30 107 C 8.0056 -3.53723 -4.68078 0
M  V30 108 C 10.3576 -4.06144 -4.85005 0
M  V30 109 C 9.0216 -4.44207 -4.98234 0
M  V30 110 H 8.2916 -0.134217 -0.728743 0
M  V30 111 H 10.9386 -1.01094 -1.62641 0
M  V30 112 H 9.2436 0.246146 -3.91026 0
M  V30 113 H 10.9406 -0.132844 -4.0078 0
M  V30 114 H 7.5306 -1.56639 -3.98951 0
M  V30 115 H 11.7146 -2.50097 -4.28679 0
M  V30 116 H 6.9706 -3.8308 -4.76508 0
M  V30 117 H 11.1446 -4.76796 -5.07581 0
M  V30 118 H 8.7716 -5.43814 -5.31197 0
M  V30 119 N 10.3467 1.47872 -0.545128 0
M  V30 120 C 11.5937 2.02493 -0.0165858 0
M  V30 121 C 11.9217 1.42073 1.32836 0
M  V30 122 O 11.1767 0.561459 1.87473 0
M  V30 123 C 11.4757 3.57131 0.13867 0
M  V30 124 C 11.1417 4.36411 -1.13384 0
M  V30 125 C 9.8037 4.57792 -1.48256 0
M  V30 126 C 12.1557 4.82223 -1.97764 0
M  V30 127 C 9.4837 5.22233 -2.67376 0
M  V30 128 C 11.8357 5.47977 -3.16076 0
M  V30 129 C 10.4997 5.67593 -3.51275 0
M  V30 130 H 9.7697 0.740975 -0.00606918 0
M  V30 131 H 12.4167 1.77683 -0.714207 0
M  V30 132 H 10.7217 3.80865 0.919172 0
M  V30 133 H 12.4187 3.97031 0.562782 0
M  V30 134 H 9.0087 4.2004 -0.852297 0
M  V30 135 H 13.1927 4.65493 -1.72132 0
M  V30 136 H 8.4487 5.35616 -2.94831 0
M  V30 137 H 12.6227 5.8244 -3.81755 0
M  V30 138 H 10.2497 6.17298 -4.43675 0
M  V30 139 N 11.8248 0.280983 1.55075 0
M  V30 140 C 13.0718 -0.334115 1.99725 0
M  V30 141 C 13.3998 -1.5542 1.1694 0
M  V30 142 O 12.6548 -1.94361 0.228531 0
M  V30 143 C 12.9538 -0.754656 3.49342 0
M  V30 144 C 12.6198 0.361445 4.49449 0
M  V30 145 C 11.2818 0.667893 4.76542 0
M  V30 146 C 13.6338 1.11322 5.09173 0
M  V30 147 C 10.9618 1.7296 5.60626 0
M  V30 148 C 13.3138 2.1647 5.9441 0
M  V30 149 C 11.9778 2.47742 6.19822 0
M  V30 150 H 11.2478 -0.122261 0.730844 0
M  V30 151 H 13.8948 0.395917 1.87363 0
M  V30 152 H 12.1998 -1.56446 3.5921 0
M  V30 153 H 13.8968 -1.24142 3.813 0
M  V30 154 H 10.4868 0.112481 4.28452 0
M  V30 155 H 14.6708 0.88973 4.8826 0
M  V30 156 H 9.9268 1.97684 5.78559 0
M  V30 157 H 14.1008 2.75193 6.3972 0
M  V30 158 H 11.7278 3.30145 6.84769 0
M  V30 159 N 13.3029 -1.57598 0.00835791 0
M  V30 160 C 14.7139 -1.7892 -0.53333 0
M  V30 161 C 15.0649 -0.916609 -1.73473 0
M  V30 162 O 14.1899 -0.121336 -2.1606 0
M  V30 163 C 14.7849 -3.24488 -0.974313 0
M  V30 164 C 13.3439 -3.46878 -1.46125 0
M  V30 165 C 12.4909 -2.74157 -0.416302 0
M  V30 166 H 15.4419 -1.56958 0.234495 0
M  V30 167 H 15.4629 -3.3306 -1.83988 0
M  V30 168 H 14.9749 -3.87972 -0.099718 0
M  V30 169 H 13.0759 -2.8862 -2.35646 0
M  V30 170 H 13.1889 -4.55572 -1.48295 0
M  V30 171 H 11.5529 -2.39022 -0.87981 0
M  V30 172 H 12.3359 -3.40345 0.44947 0
M  V30 173 N 14.781 0.264519 -1.55364 0
M  V30 174 C 15.744 1.31046 -1.88042 0
M  V30 175 C 16.744 1.41943 -0.755569 0
M  V30 176 O 17.934 1.40947 -1.02369 0
M  V30 177 C 15.066 2.69067 -2.09323 0
M  V30 178 H 16.259 1.03297 -2.81549 0
M  V30 179 H 13.812 0.502989 -1.47986 0
M  V30 180 H 14.547 3.01982 -1.18226 0
M  V30 181 H 14.332 2.62542 -2.91229 0
M  V30 182 H 15.822 3.44623 -2.35848 0
M  V30 183 N 16.2591 1.48442 0.529413 0
M  V30 184 C 17.5081 1.55742 1.28169 0
M  V30 185 C 17.8211 0.236511 1.94165 0
M  V30 186 O 19.0271 0.187761 2.7085 0
M  V30 187 C 17.4831 2.74667 2.32564 0
M  V30 188 C 17.0911 4.13402 1.72636 0
M  V30 189 C 18.8351 2.9128 3.08798 0
M  V30 190 C 16.7421 5.23587 2.74975 0
M  V30 191 H 15.6721 0.579796 0.48203 0
M  V30 192 H 18.3231 1.74776 0.559056 0
M  V30 193 H 16.7051 2.49067 3.07866 0
M  V30 194 H 17.8791 4.49022 1.03519 0
M  V30 195 H 16.1941 4.0191 1.08892 0
M  V30 196 H 18.7911 3.70767 3.85274 0
M  V30 197 H 19.1341 2.00757 3.64695 0
M  V30 198 H 19.6671 3.16782 2.40611 0
M  V30 199 H 16.4061 6.16076 2.23897 0
M  V30 200 H 15.9261 4.92454 3.42417 0
M  V30 201 H 17.6051 5.51724 3.37949 0
M  V30 202 N 17.7372 -0.778329 1.37039 0
M  V30 203 C 18.9842 -1.53665 1.31884 0
M  V30 204 C 19.3122 -1.9425 -0.0986303 0
M  V30 205 O 18.5672 -1.63832 -1.07041 0
M  V30 206 C 18.8662 -2.81845 2.19768 0
M  V30 207 C 18.5322 -2.60345 3.68146 0
M  V30 208 C 17.1942 -2.5419 4.08584 0
M  V30 209 C 19.5462 -2.40923 4.62175 0
M  V30 210 C 16.8742 -2.26594 5.41177 0
M  V30 211 C 19.2262 -2.14852 5.94997 0
M  V30 212 C 17.8902 -2.07137 6.34547 0
M  V30 213 H 17.1602 -0.562299 0.482598 0
M  V30 214 H 19.8072 -0.897069 1.69189 0
M  V30 215 H 18.1122 -3.50328 1.75436 0
M  V30 216 H 19.8092 -3.39692 2.13097 0
M  V30 217 H 16.3992 -2.65996 3.36072 0
M  V30 218 H 20.5832 -2.44673 4.31797 0
M  V30 219 H 15.8392 -2.19111 5.70789 0
M  V30 220 H 20.0132 -1.98822 6.67415 0
M  V30 221 H 17.6402 -1.85518 7.37216 0
M  V30 222 N 19.2153 -1.21501 -1.00376 0
M  V30 223 C 20.1453 -0.999478 -2.11028 0
M  V30 224 C 21.1263 0.0759671 -1.6993 0
M  V30 225 O 22.3113 -0.0841106 -1.94018 0
M  V30 226 C 19.4413 -0.564709 -3.42678 0
M  V30 227 C 18.3953 -1.58486 -3.97576 0
M  V30 228 C 17.7213 -1.00628 -5.25146 0
M  V30 229 C 19.0213 -2.97204 -4.29496 0
M  V30 230 H 20.7153 -1.92495 -2.29317 0
M  V30 231 H 18.2613 -0.92693 -1.102 0
M  V30 232 H 20.2143 -0.401091 -4.19487 0
M  V30 233 H 18.9383 0.396411 -3.24185 0
M  V30 234 H 17.5973 -1.73606 -3.22888 0
M  V30 235 H 17.2453 -0.0368439 -5.02987 0
M  V30 236 H 16.9453 -1.68771 -5.62841 0
M  V30 237 H 18.4693 -0.854015 -6.04598 0
M  V30 238 H 19.8833 -2.8552 -4.97143 0
M  V30 239 H 18.2803 -3.62372 -4.78338 0
M  V30 240 H 19.3503 -3.47956 -3.3772 0
M  V30 241 N 20.6934 1.19889 -1.02296 0
M  V30 242 C 21.6034 2.26571 -0.608508 0
M  V30 243 C 22.6194 1.70299 0.356964 0
M  V30 244 O 23.7954 2.00235 0.216326 0
M  V30 245 C 20.8604 3.46677 0.0402814 0
M  V30 246 C 19.9214 4.18153 -0.97194 0
M  V30 247 C 19.1544 5.32525 -0.354016 0
M  V30 248 O 19.3774 5.64112 0.844604 0
M  V30 249 O 18.3114 5.92242 -1.07391 0
M  V30 250 H 22.1374 2.64251 -1.49684 0
M  V30 251 H 19.7224 1.26629 -0.792809 0
M  V30 252 H 21.6044 4.19475 0.402324 0
M  V30 253 H 20.2794 3.10858 0.902707 0
M  V30 254 H 19.1864 3.47499 -1.38546 0
M  V30 255 H 20.5194 4.57927 -1.80454 0
M  V30 256 N 22.1715 0.800033 1.35784 0
M  V30 257 C 23.4175 0.377901 1.99248 0
M  V30 258 C 23.7505 -1.05052 1.63333 0
M  V30 259 O 23.0255 -1.72768 0.893385 0
M  V30 260 C 23.3085 0.553922 3.55814 0
M  V30 261 C 23.1615 2.0268 4.01548 0
M  V30 262 C 24.4805 -0.0244802 4.40093 0
M  V30 263 H 21.5995 0.138782 0.723815 0
M  V30 264 H 24.2415 1.00835 1.61035 0
M  V30 265 H 22.3915 0.0172398 3.88496 0
M  V30 266 H 24.0635 2.62536 3.79305 0
M  V30 267 H 22.3065 2.5256 3.52698 0
M  V30 268 H 22.9775 2.10087 5.10458 0
M  V30 269 H 25.4535 0.433775 4.13833 0
M  V30 270 H 24.3295 0.128637 5.48749 0
M  V30 271 H 24.5905 -1.11758 4.27741 0
M  V30 272 N 23.6496 -1.47581 0.552962 0
M  V30 273 C 24.8746 -2.07378 0.0300593 0
M  V30 274 C 25.2996 -1.40355 -1.25229 0
M  V30 275 O 24.6576 -0.477099 -1.7491 0
M  V30 276 C 24.7056 -3.60274 -0.153231 0
M  V30 277 O 23.8096 -3.94041 -1.21678 0
M  V30 278 H 23.1506 -0.662158 0.0494182 0
M  V30 279 H 25.6806 -1.89662 0.767434 0
M  V30 280 H 25.6906 -4.0633 -0.368761 0
M  V30 281 H 24.3656 -4.08455 0.783397 0
M  V30 282 H 22.9426 -3.59735 -0.982079 0
M  V30 283 N 25.1277 -0.289203 -1.54924 0
M  V30 284 C 26.0577 0.58549 -2.2604 0
M  V30 285 C 27.0387 1.14753 -1.25562 0
M  V30 286 O 28.2237 1.17906 -1.54311 0
M  V30 287 C 25.3537 1.76305 -2.99222 0
M  V30 288 C 24.3077 1.33191 -4.06748 0
M  V30 289 C 23.6337 2.5937 -4.6758 0
M  V30 290 C 24.9337 0.471775 -5.20165 0
M  V30 291 H 26.6277 -0.00763532 -2.99399 0
M  V30 292 H 24.1737 -0.00511229 -1.43999 0
M  V30 293 H 26.1267 2.38097 -3.47689 0
M  V30 294 H 24.8507 2.38223 -2.23422 0
M  V30 295 H 23.5097 0.737121 -3.59113 0
M  V30 296 H 23.1577 3.19576 -3.88433 0
M  V30 297 H 22.8577 2.31228 -5.40192 0
M  V30 298 H 24.3817 3.21985 -5.18804 0
M  V30 299 H 25.7957 0.995056 -5.64599 0
M  V30 300 H 24.1927 0.284639 -5.99425 0
M  V30 301 H 25.2627 -0.506041 -4.82252 0
M  V30 302 N 26.6058 1.57591 -0.0167156 0
M  V30 303 C 27.5358 2.12496 0.967858 0
M  V30 304 C 28.5168 1.03807 1.34752 0
M  V30 305 O 29.7018 1.31577 1.42833 0
M  V30 306 C 26.8318 2.64194 2.25431 0
M  V30 307 C 25.7858 3.77559 2.01576 0
M  V30 308 C 25.1118 4.15636 3.36379 0
M  V30 309 C 26.4118 5.04151 1.36489 0
M  V30 310 H 28.1058 2.95013 0.510643 0
M  V30 311 H 25.6518 1.41915 0.244181 0
M  V30 312 H 27.6048 3.01236 2.94678 0
M  V30 313 H 26.3288 1.78821 2.73296 0
M  V30 314 H 24.9878 3.40937 1.34751 0
M  V30 315 H 24.6358 3.27263 3.81979 0
M  V30 316 H 24.3358 4.92022 3.21229 0
M  V30 317 H 25.8598 4.5525 4.06915 0
M  V30 318 H 27.2738 5.38857 1.95718 0
M  V30 319 H 25.6708 5.85453 1.31776 0
M  V30 320 H 26.7408 4.83733 0.336219 0
M  V30 321 N 28.0839 -0.256276 1.55502 0
M  V30 322 C 29.4949 -0.826068 1.67431 0
M  V30 323 C 29.8459 -1.86396 0.612446 0
M  V30 324 O 28.9709 -2.15031 -0.243025 0
M  V30 325 C 29.5659 -1.50512 3.03532 0
M  V30 326 C 28.1249 -2.02273 3.17431 0
M  V30 327 C 27.2719 -0.870548 2.63281 0
M  V30 328 H 30.2229 -0.0322728 1.58667 0
M  V30 329 H 30.2439 -2.37279 2.97454 0
M  V30 330 H 29.7559 -0.749484 3.80794 0
M  V30 331 H 27.8569 -2.80746 2.44974 0
M  V30 332 H 27.9699 -2.22655 4.24219 0
M  V30 333 H 26.3339 -1.26851 2.20864 0
M  V30 334 H 27.1169 -0.128149 3.43061 0
M  V30 335 N 29.562 -1.4872 -0.521534 0
M  V30 336 C 30.978 -1.35028 -0.850855 0
M  V30 337 C 31.178 -0.367712 -1.98116 0
M  V30 338 O 30.234 0.208037 -2.51642 0
M  V30 339 C 31.547 -2.75263 -1.21041 0
M  V30 340 C 33.095 -2.83813 -1.31981 0
M  V30 341 C 33.57 -4.24769 -1.71276 0
M  V30 342 N 35.061 -4.27482 -1.78363 0
M  V30 343 C 35.796 -5.33494 -2.1017 0
M  V30 344 N 35.292 -6.49775 -2.40343 0
M  V30 345 N 37.085 -5.20894 -2.11248 0
M  V30 346 H 29.236 -2.11214 0.22413 0
M  V30 347 H 31.499 -0.947252 0.0376439 0
M  V30 348 H 31.205 -3.48765 -0.453415 0
M  V30 349 H 31.079 -3.09327 -2.15863 0
M  V30 350 H 33.466 -2.10561 -2.06756 0
M  V30 351 H 33.547 -2.53358 -0.352596 0
M  V30 352 H 33.191 -4.9854 -0.970588 0
M  V30 353 H 33.121 -4.52673 -2.69062 0
M  V30 354 H 35.612 -3.43611 -1.57288 0
M  V30 355 H 35.925 -7.26402 -2.63743 0
M  V30 356 H 34.27 -6.53035 -2.37844 0
M  V30 357 H 37.461 -4.29065 -1.87139 0
M  V30 358 H 37.634 -6.03612 -2.35704 0
M  V30 359 N 31.0401 0.771051 -1.3745 0
M  V30 360 C 32.2651 1.56529 -1.36065 0
M  V30 361 C 32.6901 1.88029 0.0515859 0
M  V30 362 O 32.0481 1.49282 1.02882 0
M  V30 363 C 32.0961 2.85187 -2.20683 0
M  V30 364 O 31.2001 3.79593 -1.61193 0
M  V30 365 H 30.5411 0.47411 -0.464883 0
M  V30 366 H 33.0711 0.954269 -1.80983 0
M  V30 367 H 33.0811 3.34283 -2.33921 0
M  V30 368 H 31.7561 2.61588 -3.23334 0
M  V30 369 H 30.3331 3.38239 -1.56999 0
M  V30 370 N 32.5182 1.22032 0.997298 0
M  V30 371 C 33.9292 1.0397 1.55071 0
M  V30 372 C 34.2802 -0.398192 1.92117 0
M  V30 373 O 33.4052 -1.28254 1.74298 0
M  V30 374 C 34.0002 1.88109 2.81781 0
M  V30 375 C 32.5592 1.74357 3.33581 0
M  V30 376 C 31.7062 1.84846 2.06706 0
M  V30 377 H 34.6572 1.35941 0.818883 0
M  V30 378 H 34.6782 1.39589 3.53971 0
M  V30 379 H 34.1902 2.92754 2.54787 0
M  V30 380 H 32.2912 0.72427 3.65493 0
M  V30 381 H 32.4042 2.56772 4.04481 0
M  V30 382 H 30.7682 1.28238 2.20062 0
M  V30 383 H 31.5512 2.91014 1.82114 0
M  V30 384 N 33.9963 -1.19345 1.0293 0
M  V30 385 C 35.2443 -1.88665 0.724574 0
M  V30 386 C 35.5653 -1.80036 -0.749144 0
M  V30 387 O 34.8353 -1.2111 -1.53978 0
M  V30 388 H 33.4153 -0.698406 0.265025 0
M  V30 389 H 36.0773 -1.44885 1.30362 0
M  V30 390 H 35.1733 -2.94987 1.01926 0
M  V30 391 N 35.4744 -0.807222 -1.35358 0
M  V30 392 C 36.8904 -0.491038 -1.51858 0
M  V30 393 C 37.0904 0.987648 -1.75635 0
M  V30 394 O 36.1464 1.77265 -1.79815 0
M  V30 395 C 37.4594 -1.33695 -2.69344 0
M  V30 396 C 39.0074 -1.33246 -2.83222 0
M  V30 397 C 39.4824 -2.1625 -4.03733 0
M  V30 398 N 40.9734 -2.1379 -4.10911 0
M  V30 399 C 41.7084 -2.74772 -5.03277 0
M  V30 400 N 41.2044 -3.44684 -6.0097 0
M  V30 401 N 42.9974 -2.6441 -4.96028 0
M  V30 402 H 35.1484 -1.76485 -1.18181 0
M  V30 403 H 37.4114 -0.751199 -0.578276 0
M  V30 404 H 37.1174 -2.38634 -2.58354 0
M  V30 405 H 36.9914 -0.990618 -3.6396 0
M  V30 406 H 39.3784 -0.290911 -2.93663 0
M  V30 407 H 39.4594 -1.71866 -1.89461 0
M  V30 408 H 39.1034 -3.20445 -3.94052 0
M  V30 409 H 39.0334 -1.74989 -4.96675 0
M  V30 410 H 41.5244 -1.62923 -3.40976 0
M  V30 411 H 41.8374 -3.88501 -6.68047 0
M  V30 412 H 40.1824 -3.48788 -6.01142 0
M  V30 413 H 43.3734 -2.0938 -4.18662 0
M  V30 414 H 43.5464 -3.12225 -5.6782 0
M  V30 415 N 36.9525 1.47285 -0.560781 0
M  V30 416 C 37.8995 2.30058 0.18491 0
M  V30 417 C 38.8695 1.39281 0.904986 0
M  V30 418 O 40.0545 1.68241 0.899979 0
M  V30 419 C 37.1945 3.23317 1.20666 0
M  V30 420 C 36.3075 4.29186 0.492285 0
M  V30 421 C 35.4425 5.09592 1.49964 0
M  V30 422 C 34.4815 6.07232 0.770439 0
M  V30 423 N 33.6185 6.80584 1.72479 0
M  V30 424 H 38.4585 2.93302 -0.527048 0
M  V30 425 H 35.9955 1.44568 -0.271738 0
M  V30 426 H 37.9535 3.75811 1.81168 0
M  V30 427 H 36.5835 2.61929 1.88661 0
M  V30 428 H 35.6355 3.7972 -0.227333 0
M  V30 429 H 36.9475 4.98738 -0.0787929 0
M  V30 430 H 36.1015 5.66254 2.17809 0
M  V30 431 H 34.8405 4.3995 2.10464 0
M  V30 432 H 33.8455 5.49745 0.0780846 0
M  V30 433 H 35.0705 6.78884 0.171134 0
M  V30 434 H 33.0165 6.1367 2.3183 0
M  V30 435 H 32.9335 7.46319 1.20596 0
M  V30 436 H 34.2015 7.41818 2.39428 0
M  V30 437 N 38.4306 0.297415 1.54768 0
M  V30 438 C 39.6766 -0.313376 2.00364 0
M  V30 439 C 40.0096 -1.53815 1.18553 0
M  V30 440 O 39.2846 -1.92739 0.261103 0
M  V30 441 C 39.5676 -0.673525 3.53745 0
M  V30 442 C 39.4206 0.560133 4.46299 0
M  V30 443 C 40.7396 -1.50143 4.13697 0
M  V30 444 H 37.8586 -0.112428 0.728374 0
M  V30 445 H 40.5006 0.4088 1.8555 0
M  V30 446 H 38.6506 -1.28881 3.665 0
M  V30 447 H 40.3226 1.19863 4.45455 0
M  V30 448 H 38.5656 1.19405 4.17043 0
M  V30 449 H 39.2366 0.26405 5.51368 0
M  V30 450 H 41.7126 -0.981588 4.04356 0
M  V30 451 H 40.5886 -1.72221 5.21182 0
M  V30 452 H 40.8496 -2.48952 3.65343 0
M  V30 453 N 39.9087 -1.5758 0.0250728 0
M  V30 454 C 40.8387 -2.13007 -0.956575 0
M  V30 455 C 41.8197 -1.0452 -1.342 0
M  V30 456 O 43.0047 -1.32332 -1.42133 0
M  V30 457 C 40.1347 -2.65386 -2.24026 0
M  V30 458 C 39.0887 -3.78623 -1.99571 0
M  V30 459 C 38.4147 -4.17414 -3.3417 0
M  V30 460 C 39.7147 -5.04867 -1.33814 0
M  V30 461 H 41.4087 -2.9528 -0.494991 0
M  V30 462 H 38.9547 -1.42042 -0.236651 0
M  V30 463 H 40.9077 -3.02794 -2.93076 0
M  V30 464 H 39.6317 -1.80268 -2.72343 0
M  V30 465 H 38.2907 -3.41646 -1.32941 0
M  V30 466 H 37.9387 -3.29284 -3.80238 0
M  V30 467 H 37.6387 -4.93719 -3.18615 0
M  V30 468 H 39.1627 -4.57402 -4.04495 0
M  V30 469 H 40.5767 -5.39888 -1.92857 0
M  V30 470 H 38.9737 -5.86144 -1.28669 0
M  V30 471 H 40.0437 -4.83904 -0.310561 0
M  V30 472 N 41.3868 0.248026 -1.55636 0
M  V30 473 C 42.3168 1.31079 -1.93237 0
M  V30 474 C 43.2978 1.50264 -0.797174 0
M  V30 475 O 44.4828 1.62891 -1.05737 0
M  V30 476 C 41.6128 2.66575 -2.22609 0
M  V30 477 C 40.5668 2.62087 -3.3837 0
M  V30 478 C 39.8928 4.01369 -3.53281 0
M  V30 479 C 41.1928 2.19171 -4.7409 0
M  V30 480 H 42.8868 0.998556 -2.82257 0
M  V30 481 H 40.4328 0.47891 -1.35803 0
M  V30 482 H 42.3858 3.41057 -2.47503 0
M  V30 483 H 41.1098 2.99432 -1.30414 0
M  V30 484 H 39.7688 1.90063 -3.13483 0
M  V30 485 H 39.4168 4.31489 -2.58508 0
M  V30 486 H 39.1168 3.99254 -4.31127 0
M  V30 487 H 40.6408 4.77552 -3.80495 0
M  V30 488 H 42.0548 2.83384 -4.98363 0
M  V30 489 H 40.4518 2.2817 -5.5503 0
M  V30 490 H 41.5218 1.14336 -4.71227 0
M  V30 491 N 42.8649 1.48995 0.513639 0
M  V30 492 C 43.8279 1.64229 1.59879 0
M  V30 493 C 44.8279 0.514696 1.5234 0
M  V30 494 O 46.0179 0.78087 1.55718 0
M  V30 495 C 43.1499 1.62783 2.99524 0
M  V30 496 H 44.3429 2.61004 1.47705 0
M  V30 497 H 41.8959 1.37837 0.736936 0
M  V30 498 H 42.6309 0.675461 3.17188 0
M  V30 499 H 42.4159 2.4466 3.06404 0
M  V30 500 H 43.9059 1.76669 3.78388 0
M  V30 501 N 44.343 -0.763751 1.37857 0
M  V30 502 C 45.591 -1.51957 1.33243 0
M  V30 503 C 45.912 -1.94835 -0.0801709 0
M  V30 504 O 45.182 -1.66894 -1.02582 0
M  V30 505 H 43.762 -0.563626 0.49024 0
M  V30 506 H 46.424 -0.908504 1.7243 0
M  V30 507 H 45.52 -2.41523 1.97669 0
M  V30 508 N 45.8211 -1.22559 -0.990812 0
M  V30 509 C 46.7841 -0.998863 -2.0629 0
M  V30 510 C 47.7841 0.0354834 -1.60761 0
M  V30 511 O 48.9741 -0.203231 -1.7301 0
M  V30 512 C 46.1061 -0.509203 -3.37076 0
M  V30 513 H 47.2991 -1.95014 -2.27837 0
M  V30 514 H 44.8521 -1.04456 -1.16269 0
M  V30 515 H 45.5871 0.446335 -3.21214 0
M  V30 516 H 45.3721 -1.25547 -3.71457 0
M  V30 517 H 46.8621 -0.370888 -4.1595 0
M  V30 518 N 47.2992 1.18797 -1.03562 0
M  V30 519 C 48.5242 1.9314 -0.755764 0
M  V30 520 C 48.9492 1.7537 0.68022 0
M  V30 521 O 48.3072 1.06046 1.47051 0
M  V30 522 C 48.3552 3.42747 -1.12058 0
M  V30 523 O 47.4592 4.11683 -0.243124 0
M  V30 524 H 46.8002 0.602724 -0.278604 0
M  V30 525 H 49.3302 1.50678 -1.3841 0
M  V30 526 H 49.3402 3.93437 -1.08035 0
M  V30 527 H 48.0152 3.55002 -2.16672 0
M  V30 528 H 46.5922 3.71323 -0.342539 0
M  V30 529 N 48.7773 0.814389 1.34928 0
M  V30 530 C 50.0023 0.410097 2.03305 0
M  V30 531 C 50.4273 -0.973464 1.60951 0
M  V30 532 O 49.7853 -1.63185 0.789964 0
M  V30 533 C 49.8333 0.51049 3.56968 0
M  V30 534 O 48.9373 -0.473035 4.09678 0
M  V30 535 H 48.2783 0.170088 0.641846 0
M  V30 536 H 50.8083 1.10244 1.72358 0
M  V30 537 H 50.8183 0.383135 4.06197 0
M  V30 538 H 49.4933 1.51963 3.87144 0
M  V30 539 H 48.0703 -0.305272 3.71648 0
M  V30 540 N 50.2554 -1.46986 0.568584 0
M  V30 541 C 51.1874 -2.28233 -0.210337 0
M  V30 542 C 52.2004 -1.37682 -0.868767 0
M  V30 543 O 53.3894 -1.62406 -0.740705 0
M  V30 544 C 50.4894 -3.12293 -1.3163 0
M  V30 545 C 49.6624 -4.30878 -0.7525 0
M  V30 546 C 48.7214 -4.96445 -1.74439 0
M  V30 547 O 47.7474 -5.54482 -1.286 0
M  V30 548 N 48.9494 -4.92171 -3.07812 0
M  V30 549 H 51.7144 -2.95723 0.486648 0
M  V30 550 H 49.2754 -1.56742 0.405409 0
M  V30 551 H 51.2674 -3.53022 -1.97883 0
M  V30 552 H 49.8374 -2.46971 -1.91636 0
M  V30 553 H 49.0574 -3.94104 0.0871128 0
M  V30 554 H 50.3454 -5.07558 -0.35536 0
M  V30 555 H 49.7434 -4.46239 -3.47688 0
M  V30 556 H 48.3004 -5.36884 -3.69592 0
M  V30 557 N 51.7335 -0.305618 -1.54608 0
M  V30 558 C 53.1495 0.0476228 -1.59529 0
M  V30 559 C 53.3495 1.52025 -1.32252 0
M  V30 560 O 52.4055 2.27368 -1.09818 0
M  V30 561 C 53.7185 -0.354471 -2.98603 0
M  V30 562 C 55.2665 -0.303622 -3.11524 0
M  V30 563 C 55.7415 -0.680608 -4.52915 0
M  V30 564 N 57.2325 -0.63332 -4.5885 0
M  V30 565 C 57.9675 -0.897432 -5.66334 0
M  V30 566 N 57.4635 -1.22775 -6.81834 0
M  V30 567 N 59.2565 -0.824186 -5.56025 0
M  V30 568 H 51.4075 -1.2653 -1.70599 0
M  V30 569 H 53.6705 -0.513291 -0.797017 0
M  V30 570 H 53.3765 -1.3798 -3.23503 0
M  V30 571 H 53.2505 0.289568 -3.76087 0
M  V30 572 H 55.6375 0.712472 -2.8637 0
M  V30 573 H 55.7185 -0.982348 -2.36185 0
M  V30 574 H 55.3625 -1.69453 -4.78799 0
M  V30 575 H 55.2925 0.0202385 -5.26596 0
M  V30 576 H 57.7835 -0.389138 -3.75891 0
M  V30 577 H 58.0965 -1.41513 -7.59733 0
M  V30 578 H 56.4415 -1.26583 -6.83375 0
M  V30 579 H 59.6325 -0.565748 -4.64669 0
M  V30 580 H 59.8055 -1.03338 -6.39707 0
M  V30 581 N 53.2116 1.57565 -0.0334293 0
M  V30 582 C 54.4366 1.96689 0.657895 0
M  V30 583 C 54.8616 0.910057 1.64619 0
M  V30 584 O 54.2196 -0.128598 1.80843 0
M  V30 585 C 54.2676 3.34905 1.33683 0
M  V30 586 O 53.3716 3.31574 2.45219 0
M  V30 587 H 52.7126 0.641205 0.172489 0
M  V30 588 H 55.2426 2.04372 -0.0965621 0
M  V30 589 H 55.2526 3.71234 1.69262 0
M  V30 590 H 53.9276 4.11366 0.612411 0
M  V30 591 H 52.5046 3.06968 2.11719 0
M  V30 592 N 54.6897 -0.239769 1.55765 0
M  V30 593 C 55.9357 -0.968234 1.78194 0
M  V30 594 C 56.2687 -1.84701 0.599938 0
M  V30 595 O 55.5437 -1.9031 -0.401524 0
M  V30 596 C 55.8267 -1.8227 3.10564 0
M  V30 597 C 55.6797 -0.971633 4.3918 0
M  V30 598 C 56.9987 -2.80388 3.39221 0
M  V30 599 H 54.1177 -0.350572 0.648281 0
M  V30 600 H 56.7597 -0.238259 1.885 0
M  V30 601 H 54.9097 -2.44507 3.01908 0
M  V30 602 H 56.5817 -0.367408 4.59835 0
M  V30 603 H 54.8247 -0.276276 4.32919 0
M  V30 604 H 55.4957 -1.60346 5.28198 0
M  V30 605 H 57.9717 -2.28287 3.47885 0
M  V30 606 H 56.8477 -3.3729 4.33044 0
M  V30 607 H 57.1087 -3.57212 2.60484 0
M  V30 608 N 56.1678 -1.49265 -0.50573 0
M  V30 609 C 57.1308 -1.65075 -1.59006 0
M  V30 610 C 58.1308 -0.522768 -1.52065 0
M  V30 611 O 59.3208 -0.789117 -1.55302 0
M  V30 612 C 56.4528 -1.64369 -2.98656 0
M  V30 613 H 57.6458 -2.61784 -1.46319 0
M  V30 614 H 55.1988 -1.38226 -0.729616 0
M  V30 615 H 55.9338 -0.692272 -3.16825 0
M  V30 616 H 55.7188 -2.46282 -3.05103 0
M  V30 617 H 57.2088 -1.78674 -3.77446 0
M  V30 618 N 57.6459 0.756429 -1.3826 0
M  V30 619 C 59.0619 1.0591 -1.19395 0
M  V30 620 C 59.2619 2.01459 -0.0406567 0
M  V30 621 O 58.3179 2.44909 0.614467 0
M  V30 622 C 59.6309 1.64191 -2.51916 0
M  V30 623 C 61.1789 1.76376 -2.58574 0
M  V30 624 C 61.6539 2.38069 -3.91264 0
M  V30 625 N 63.1449 2.45503 -3.92788 0
M  V30 626 C 63.8799 2.94126 -4.92217 0
M  V30 627 N 63.3759 3.42805 -6.02043 0
M  V30 628 N 65.1689 2.9314 -4.7961 0
M  V30 629 H 57.3199 0.122313 -2.12048 0
M  V30 630 H 59.5829 0.116892 -0.940766 0
M  V30 631 H 59.2889 1.01451 -3.3675 0
M  V30 632 H 59.1629 2.6329 -2.70108 0
M  V30 633 H 61.5499 2.38244 -1.74137 0
M  V30 634 H 61.6309 0.759894 -2.44252 0
M  V30 635 H 61.2749 1.76835 -4.76121 0
M  V30 636 H 61.2049 3.39091 -4.02895 0
M  V30 637 H 63.6959 2.1107 -3.13461 0
M  V30 638 H 64.0089 3.78354 -6.73846 0
M  V30 639 H 62.3539 3.4087 -6.05667 0
M  V30 640 H 65.5449 2.54419 -3.92923 0
M  V30 641 H 65.7179 3.30721 -5.5725 0
M  V30 642 N 59.124 1.23083 0.984299 0
M  V30 643 C 60.057 0.951786 2.07404 0
M  V30 644 C 61.035 -0.10848 1.62238 0
M  V30 645 O 62.219 0.0249467 1.88483 0
M  V30 646 C 59.346 0.433142 3.35919 0
M  V30 647 C 58.392 1.47941 4.0002 0
M  V30 648 S 59.225 3.05556 4.39768 0
M  V30 649 C 60.381 2.55351 5.71442 0
M  V30 650 H 60.614 1.87456 2.30754 0
M  V30 651 H 58.147 1.06284 1.11996 0
M  V30 652 H 60.105 0.140506 4.10259 0
M  V30 653 H 58.766 -0.468656 3.10584 0
M  V30 654 H 57.959 1.06658 4.92585 0
M  V30 655 H 57.561 1.7212 3.3204 0
M  V30 656 H 59.853 1.97128 6.48187 0
M  V30 657 H 60.796 3.46441 6.17563 0
M  V30 658 H 61.204 1.96339 5.29255 0
M  V30 659 N 60.6021 -1.18246 1.0419 0
M  V30 660 C 61.8791 -1.84121 0.660208 0
M  V30 661 C 62.2591 -1.92778 -0.860221 0
M  V30 662 O 61.6071 -1.45464 -1.76217 0
M  V30 663 C 61.8171 -3.22355 1.33747 0
M  V30 664 C 63.1651 -3.98376 1.46906 0
M  V30 665 O 64.1891 -3.31799 1.29568 0
M  V30 666 O 63.0481 -5.17665 1.75171 0
M  V30 667 H 60.1421 -0.794036 0.231161 0
M  V30 668 H 62.6881 -1.25628 1.14087 0
M  V30 669 H 61.4601 -3.10964 2.37522 0
M  V30 670 H 61.0831 -3.88506 0.845515 0
M  V30 671 N 62.0802 -0.821533 -1.34494 0
M  V30 672 C 63.3282 -0.408139 -1.97936 0
M  V30 673 C 63.6492 1.03193 -1.65457 0
M  V30 674 O 62.9192 1.71622 -0.944595 0
M  V30 675 H 61.4992 -0.147928 -0.732206 0
M  V30 676 H 64.1612 -1.05067 -1.64155 0
M  V30 677 H 63.2572 -0.52601 -3.07635 0
M  V30 678 N 63.5583 1.46682 -0.576371 0
M  V30 679 C 64.8353 1.95599 0.00703437 0
M  V30 680 C 65.2153 1.51904 1.46589 0
M  V30 681 O 64.5633 0.766755 2.15251 0
M  V30 682 C 64.7733 3.4864 -0.158404 0
M  V30 683 C 66.1213 4.24594 -0.0229439 0
M  V30 684 O 67.1453 3.56094 -0.0869173 0
M  V30 685 O 66.0043 5.46373 0.118015 0
M  V30 686 H 63.0983 0.825275 0.053384 0
M  V30 687 H 65.6443 1.56996 -0.644244 0
M  V30 688 H 64.4163 3.7331 -1.17282 0
M  V30 689 H 64.0393 3.94057 0.5296 0
M  V30 690 N 65.0364 0.313813 1.54444 0
M  V30 691 C 66.2824 -0.292108 2.00685 0
M  V30 692 C 66.6154 -1.52548 1.20177 0
M  V30 693 O 65.8904 -1.92452 0.281531 0
M  V30 694 C 66.1734 -0.635968 3.5444 0
M  V30 695 C 66.0264 0.607437 4.4568 0
M  V30 696 C 67.3454 -1.45747 4.15266 0
M  V30 697 H 64.4644 -0.104697 0.729526 0
M  V30 698 H 67.1064 0.428457 1.85106 0
M  V30 699 H 65.2564 -1.24986 3.67846 0
M  V30 700 H 66.9284 1.24581 4.44159 0
M  V30 701 H 65.1714 1.23822 4.15753 0
M  V30 702 H 65.8424 0.322515 5.51057 0
M  V30 703 H 68.3184 -0.938645 4.05375 0
M  V30 704 H 67.1944 -1.66683 5.2298 0
M  V30 705 H 67.4554 -2.45063 3.67963 0
M  V30 706 N 66.5145 -1.57545 0.0417849 0
M  V30 707 C 67.7635 -1.91494 -0.633492 0
M  V30 708 C 68.0765 -0.921084 -1.72556 0
M  V30 709 O 69.2825 -1.15228 -2.45835 0
M  V30 710 C 67.7385 -3.40072 -1.17808 0
M  V30 711 C 67.3465 -4.47843 -0.118633 0
M  V30 712 C 69.0905 -3.8307 -1.82915 0
M  V30 713 C 66.9975 -5.87529 -0.675578 0
M  V30 714 H 65.9275 -0.714653 -0.24039 0
M  V30 715 H 68.5785 -1.83175 0.109148 0
M  V30 716 H 66.9605 -3.43364 -1.97274 0
M  V30 717 H 68.1345 -4.56128 0.654494 0
M  V30 718 H 66.4495 -4.14128 0.434414 0
M  V30 719 H 69.0465 -4.84794 -2.25563 0
M  V30 720 H 69.3895 -3.1881 -2.67705 0
M  V30 721 H 69.9225 -3.82255 -1.10119 0
M  V30 722 H 66.6615 -6.55362 0.134475 0
M  V30 723 H 66.1815 -5.82824 -1.4169 0
M  V30 724 H 67.8605 -6.36491 -1.1614 0
M  V30 725 N 67.9926 0.231505 -1.5589 0
M  V30 726 C 69.2416 0.955346 -1.7764 0
M  V30 727 C 69.5546 1.85893 -0.608546 0
M  V30 728 O 70.7606 2.62067 -0.70943 0
M  V30 729 C 69.2166 1.74886 -3.14552 0
M  V30 730 C 68.8246 0.891915 -4.39032 0
M  V30 731 C 70.5686 2.46452 -3.45633 0
M  V30 732 C 68.4756 1.68221 -5.66971 0
M  V30 733 H 67.4056 0.360446 -0.662265 0
M  V30 734 H 70.0566 0.209516 -1.823 0
M  V30 735 H 68.4386 2.53723 -3.04041 0
M  V30 736 H 69.6126 0.144793 -4.60572 0
M  V30 737 H 67.9276 0.288863 -4.15397 0
M  V30 738 H 70.5246 3.06061 -4.38441 0
M  V30 739 H 70.8676 3.18841 -2.67668 0
M  V30 740 H 71.4006 1.74613 -3.57428 0
M  V30 741 H 68.1396 1.00178 -6.478 0
M  V30 742 H 67.6596 2.4042 -5.49507 0
M  V30 743 H 69.3386 2.24544 -6.06786 0
M  V30 744 N 69.4707 1.49531 0.497807 0
M  V30 745 C 70.7187 1.58865 1.24926 0
M  V30 746 C 71.0397 0.278721 1.92998 0
M  V30 747 O 70.3097 -0.702144 1.82885 0
M  V30 748 H 68.8897 0.585343 0.464094 0
M  V30 749 H 71.5517 1.86174 0.57666 0
M  V30 750 H 70.6477 2.38633 2.01149 0
M  V30 751 N 70.9488 -0.749086 1.3866 0
M  V30 752 C 71.9118 -1.84457 1.36045 0
M  V30 753 C 72.9118 -1.58682 0.260122 0
M  V30 754 O 74.1018 -1.66343 0.517261 0
M  V30 755 C 71.2338 -3.22008 1.11911 0
M  V30 756 H 72.4268 -1.88182 2.33512 0
M  V30 757 H 69.9798 -0.951266 1.24019 0
M  V30 758 H 70.7148 -3.2395 0.150686 0
M  V30 759 H 70.4998 -3.42111 1.91579 0
M  V30 760 H 71.9898 -4.0208 1.12788 0
M  V30 761 N 72.4269 -1.23603 -0.977757 0
M  V30 762 C 73.3569 -1.04401 -2.0886 0
M  V30 763 C 74.3379 0.0399052 -1.70053 0
M  V30 764 O 75.5229 -0.125246 -1.93796 0
M  V30 765 C 72.6529 -0.637269 -3.41403 0
M  V30 766 C 71.6069 -1.66883 -3.94124 0
M  V30 767 C 70.9329 -1.11745 -5.22893 0
M  V30 768 C 72.2329 -3.06247 -4.23096 0
M  V30 769 H 73.9269 -1.97316 -2.25182 0
M  V30 770 H 71.4729 -0.950096 -1.08209 0
M  V30 771 H 73.4259 -0.48998 -4.18542 0
M  V30 772 H 72.1499 0.327557 -3.24953 0
M  V30 773 H 70.8089 -1.80416 -3.19133 0
M  V30 774 H 70.4569 -0.143527 -5.02795 0
M  V30 775 H 70.1569 -1.80672 -5.59134 0
M  V30 776 H 71.6809 -0.982067 -6.02651 0
M  V30 777 H 73.0949 -2.96001 -4.90975 0
M  V30 778 H 71.4919 -3.72436 -4.70544 0
M  V30 779 H 72.5619 -3.55041 -3.30263 0
M  V30 780 N 73.905 1.17692 -1.04816 0
M  V30 781 C 75.152 1.87859 -0.75599 0
M  V30 782 C 75.48 1.80812 0.716752 0
M  V30 783 O 74.735 1.20819 1.53952 0
M  V30 784 C 75.034 3.37462 -1.17703 0
M  V30 785 C 74.7 3.64713 -2.65133 0
M  V30 786 C 73.362 3.71859 -3.05408 0
M  V30 787 C 75.714 3.76492 -3.60421 0
M  V30 788 C 73.042 3.88271 -4.39843 0
M  V30 789 C 75.394 3.94421 -4.94585 0
M  V30 790 C 74.058 3.99806 -5.3452 0
M  V30 791 H 73.328 0.687425 -0.276636 0
M  V30 792 H 75.975 1.39255 -1.31455 0
M  V30 793 H 74.28 3.88097 -0.537395 0
M  V30 794 H 75.977 3.90109 -0.928218 0
M  V30 795 H 72.567 3.59772 -2.32942 0
M  V30 796 H 76.751 3.70295 -3.30447 0
M  V30 797 H 72.007 3.90687 -4.70291 0
M  V30 798 H 76.181 4.02477 -5.68318 0
M  V30 799 H 73.808 4.12276 -6.38696 0
M  V30 800 N 75.3831 0.828654 1.34056 0
M  V30 801 C 76.6081 0.431637 2.02859 0
M  V30 802 C 77.0331 -0.956339 1.61975 0
M  V30 803 O 76.3911 -1.62338 0.807228 0
M  V30 804 C 76.4391 0.548323 3.56407 0
M  V30 805 O 75.5431 -0.429556 4.10157 0
M  V30 806 H 74.8841 0.176886 0.640006 0
M  V30 807 H 77.4141 1.12066 1.71179 0
M  V30 808 H 77.4241 0.426196 4.05768 0
M  V30 809 H 76.0991 1.5606 3.8551 0
M  V30 810 H 74.6761 -0.265836 3.71951 0
M  V30 811 N 76.8612 -1.46375 0.584142 0
M  V30 812 C 78.1072 -2.02678 0.0703716 0
M  V30 813 C 78.4402 -1.4545 -1.28678 0
M  V30 814 O 77.7152 -0.62014 -1.84349 0
M  V30 815 C 77.9982 -3.60099 0.00614674 0
M  V30 816 C 77.8512 -4.27709 1.3923 0
M  V30 817 C 79.1702 -4.34598 -0.693742 0
M  V30 818 H 76.2892 -0.736504 0.027047 0
M  V30 819 H 78.9312 -1.74501 0.751615 0
M  V30 820 H 77.0812 -3.84236 -0.574009 0
M  V30 821 H 78.7532 -4.14832 2.01773 0
M  V30 822 H 76.9962 -3.87016 1.95962 0
M  V30 823 H 77.6672 -5.36478 1.29982 0
M  V30 824 H 80.1432 -4.15615 -0.200869 0
M  V30 825 H 79.0192 -5.44318 -0.707714 0
M  V30 826 H 79.2802 -4.05759 -1.75533 0
M  V30 827 N 78.3393 -0.321999 -1.54275 0
M  V30 828 C 79.2893 0.560185 -2.21011 0
M  V30 829 C 80.2733 1.08283 -1.19011 0
M  V30 830 O 81.4653 1.02011 -1.44647 0
M  V30 831 C 78.5943 1.72137 -2.97025 0
M  V30 832 C 77.6803 1.21369 -4.06363 0
M  V30 833 N 78.0713 0.425566 -5.04007 0
M  V30 834 C 76.3693 1.49255 -4.20284 0
M  V30 835 C 77.0703 0.152601 -5.815 0
M  V30 836 N 76.0463 0.738294 -5.38563 0
M  V30 837 H 79.8483 -0.049265 -2.93859 0
M  V30 838 H 77.3623 -0.127779 -1.61897 0
M  V30 839 H 79.3593 2.36512 -3.43319 0
M  V30 840 H 78.0193 2.33431 -2.25699 0
M  V30 841 H 79.0303 0.068551 -5.17855 0
M  V30 842 H 75.7073 2.11145 -3.60172 0
M  V30 843 H 77.0973 -0.481764 -6.70171 0
M  V30 844 N 79.8174 1.5752 -0.0501392 0
M  V30 845 C 80.7674 2.07981 0.934231 0
M  V30 846 C 81.7514 0.984745 1.27246 0
M  V30 847 O 82.9434 1.24809 1.25506 0
M  V30 848 C 80.0724 2.62751 2.20945 0
M  V30 849 C 79.1584 3.79225 1.89865 0
M  V30 850 N 79.5494 4.89036 1.29142 0
M  V30 851 C 77.8474 3.88111 2.19741 0
M  V30 852 C 78.5484 5.70084 1.15669 0
M  V30 853 N 77.5244 5.17659 1.65923 0
M  V30 854 H 81.3264 2.90277 0.460053 0
M  V30 855 H 78.8404 1.61665 0.15434 0
M  V30 856 H 80.8374 2.97205 2.9236 0
M  V30 857 H 79.4974 1.81894 2.6897 0
M  V30 858 H 80.5084 5.08854 0.963756 0
M  V30 859 H 77.1854 3.18194 2.70293 0
M  V30 860 H 78.5754 6.68395 0.685356 0
M  V30 861 N 81.2955 -0.223234 1.56011 0
M  V30 862 C 82.2275 -1.30006 1.88762 0
M  V30 863 C 83.2405 -1.43129 0.775746 0
M  V30 864 O 84.4295 -1.44057 1.05403 0
M  V30 865 C 81.5295 -2.67589 2.07965 0
M  V30 866 C 80.7025 -2.76434 3.38973 0
M  V30 867 C 79.7615 -3.95019 3.47629 0
M  V30 868 O 78.7875 -3.83436 4.20672 0
M  V30 869 N 79.9895 -5.09249 2.78649 0
M  V30 870 H 82.7545 -1.02238 2.81722 0
M  V30 871 H 80.3155 -0.413278 1.56536 0
M  V30 872 H 82.3075 -3.45297 2.11073 0
M  V30 873 H 80.8775 -2.87964 1.21638 0
M  V30 874 H 80.0975 -1.85216 3.47978 0
M  V30 875 H 81.3855 -2.79313 4.25278 0
M  V30 876 H 80.7835 -5.21556 2.19081 0
M  V30 877 H 79.3405 -5.85007 2.8742 0
M  V30 878 N 82.7736 -1.49793 -0.48987 0
M  V30 879 C 84.1846 -1.52914 -1.07118 0
M  V30 880 C 84.5356 -0.321738 -1.93544 0
M  V30 881 O 83.6606 0.567338 -2.08831 0
M  V30 882 C 84.2556 -2.771 -1.94938 0
M  V30 883 C 82.8146 -2.82963 -2.48212 0
M  V30 884 C 81.9616 -2.46972 -1.26096 0
M  V30 885 H 84.9126 -1.56329 -0.273289 0
M  V30 886 H 84.9336 -2.57892 -2.79771 0
M  V30 887 H 84.4456 -3.64959 -1.32009 0
M  V30 888 H 82.5466 -1.99411 -3.14748 0
M  V30 889 H 82.6596 -3.85406 -2.84603 0
M  V30 890 H 81.0236 -1.98994 -1.58976 0
M  V30 891 H 81.8066 -3.37118 -0.648581 0
M  V30 892 N 84.2517 0.741722 -1.39055 0
M  V30 893 C 85.6627 1.31966 -1.32068 0
M  V30 894 C 86.0137 1.96192 0.0180797 0
M  V30 895 O 85.1387 1.95861 0.920196 0
M  V30 896 C 85.7337 2.39954 -2.39181 0
M  V30 897 C 84.2927 2.93438 -2.35735 0
M  V30 898 C 83.4397 1.66936 -2.21422 0
M  V30 899 H 86.3907 0.539721 -1.4924 0
M  V30 900 H 86.4117 3.20182 -2.05581 0
M  V30 901 H 85.9237 1.9318 -3.36605 0
M  V30 902 H 84.0247 3.4451 -1.41929 0
M  V30 903 H 84.1377 3.4701 -3.30335 0
M  V30 904 H 82.5017 1.91016 -1.68478 0
M  V30 905 H 83.2847 1.22224 -3.20806 0
M  V30 906 N 85.7298 1.2412 0.971189 0
M  V30 907 C 86.6928 1.03156 2.04674 0
M  V30 908 C 87.6928 -0.00990322 1.60797 0
M  V30 909 O 88.8828 0.230729 1.72665 0
M  V30 910 C 86.0148 0.562765 3.36223 0
M  V30 911 H 87.2078 1.98614 2.24705 0
M  V30 912 H 84.7608 1.06293 1.14593 0
M  V30 913 H 85.4958 -0.395176 3.21883 0
M  V30 914 H 85.2808 1.31441 3.69413 0
M  V30 915 H 86.7708 0.437015 4.15307 0
M  V30 916 N 87.2079 -1.17134 1.05439 0
M  V30 917 C 88.1179 -2.24878 0.668365 0
M  V30 918 C 89.1339 -1.71186 -0.311687 0
M  V30 919 O 90.3099 -2.00738 -0.163161 0
M  V30 920 C 87.3749 -3.46662 0.051648 0
M  V30 921 C 86.4359 -4.15429 1.08246 0
M  V30 922 C 85.6689 -5.31399 0.495082 0
M  V30 923 O 85.8919 -5.66153 -0.694743 0
M  V30 924 O 84.8259 -5.89187 1.23056 0
M  V30 925 H 88.6519 -2.60189 1.56637 0
M  V30 926 H 86.2369 -1.24482 0.826104 0
M  V30 927 H 88.1189 -4.20394 -0.290966 0
M  V30 928 H 86.7939 -3.13142 -0.819971 0
M  V30 929 H 85.7009 -3.43704 1.47711 0
M  V30 930 H 87.0339 -4.52982 1.92532 0
M  V30 931 N 88.686 -0.835752 -1.33615 0
M  V30 932 C 89.633 -0.26473 -2.29277 0
M  V30 933 C 90.603 0.617712 -1.54187 0
M  V30 934 O 91.788 0.556641 -1.825 0
M  V30 935 C 88.928 0.556777 -3.40579 0
M  V30 936 C 88.041 -0.349339 -4.30585 0
M  V30 937 C 87.176 0.482969 -5.29 0
M  V30 938 C 86.215 -0.421732 -6.10645 0
M  V30 939 N 85.352 0.372262 -7.01112 0
M  V30 940 H 90.192 -1.08582 -2.77514 0
M  V30 941 H 87.729 -0.546927 -1.36554 0
M  V30 942 H 89.687 1.04852 -4.03809 0
M  V30 943 H 88.317 1.34286 -2.93542 0
M  V30 944 H 87.369 -0.959372 -3.68104 0
M  V30 945 H 88.681 -1.04445 -4.87742 0
M  V30 946 H 87.835 1.03866 -5.97743 0
M  V30 947 H 86.574 1.21153 -4.72412 0
M  V30 948 H 85.579 -0.989464 -5.40823 0
M  V30 949 H 86.804 -1.14861 -6.69316 0
M  V30 950 H 84.75 1.08426 -6.46977 0
M  V30 951 H 84.667 -0.264198 -7.55538 0
M  V30 952 H 85.935 0.910293 -7.74167 0
M  V30 953 N 90.1641 1.46063 -0.591896 0
M  V30 954 C 91.4101 2.02638 -0.0811191 0
M  V30 955 C 91.7431 1.4613 1.27905 0
M  V30 956 O 91.0181 0.629908 1.84017 0
M  V30 957 C 91.3011 3.60091 -0.0252436 0
M  V30 958 C 91.1541 4.26965 -1.41496 0
M  V30 959 C 92.4731 4.3496 0.670685 0
M  V30 960 H 89.5921 0.73635 -0.0309524 0
M  V30 961 H 92.2341 1.741 -0.760859 0
M  V30 962 H 90.3841 3.84535 0.553624 0
M  V30 963 H 92.0561 4.13756 -2.0397 0
M  V30 964 H 90.2991 3.85971 -1.98011 0
M  V30 965 H 90.9701 5.35781 -1.32825 0
M  V30 966 H 93.4461 4.15716 0.178825 0
M  V30 967 H 92.3221 5.44686 0.678837 0
M  V30 968 H 92.5831 4.06685 1.73379 0
M  V30 969 N 91.6422 0.330177 1.54103 0
M  V30 970 C 93.0532 -0.15652 1.86043 0
M  V30 971 C 93.4042 -1.51086 1.2517 0
M  V30 972 O 92.5292 -2.09023 0.560217 0
M  V30 973 C 93.1242 -0.290784 3.3755 0
M  V30 974 C 91.6832 -0.721705 3.69416 0
M  V30 975 C 90.8302 0.152622 2.7688 0
M  V30 976 H 93.7812 0.550237 1.48856 0
M  V30 977 H 93.8022 -1.12058 3.63625 0
M  V30 978 H 93.3142 0.695068 3.81825 0
M  V30 979 H 91.4152 -1.71706 3.30678 0
M  V30 980 H 91.5282 -0.520869 4.7626 0
M  V30 981 H 89.8922 -0.372894 2.51956 0
M  V30 982 H 90.6752 1.13536 3.23982 0
M  V30 983 N 93.1203 -1.57491 0.0584922 0
M  V30 984 C 94.0303 -2.15448 -0.928414 0
M  V30 985 C 95.0463 -1.11416 -1.3365 0
M  V30 986 O 96.2223 -1.4362 -1.41193 0
M  V30 987 C 93.2873 -2.69393 -2.18239 0
M  V30 988 C 92.3483 -3.88249 -1.83196 0
M  V30 989 C 91.5813 -4.39613 -3.02616 0
M  V30 990 O 91.8043 -3.90023 -4.16219 0
M  V30 991 O 90.7383 -5.31111 -2.83204 0
M  V30 992 H 94.5643 -3.00112 -0.465483 0
M  V30 993 H 92.1493 -1.48499 -0.163826 0
M  V30 994 H 94.0313 -3.04026 -2.91798 0
M  V30 995 H 92.7063 -1.87796 -2.63656 0
M  V30 996 H 91.6133 -3.58492 -1.06931 0
M  V30 997 H 92.9463 -4.71098 -1.42573 0
M  V30 998 N 94.5984 0.214957 -1.56127 0
M  V30 999 C 96.0144 0.564948 -1.49267 0
M  V30 1000 C 96.2144 1.86827 -0.754838 0
M  V30 1001 O 95.2704 2.50745 -0.297198 0
M  V30 1002 C 96.5834 0.638071 -2.93852 0
M  V30 1003 C 98.1314 0.728253 -3.0441 0
M  V30 1004 C 98.6064 0.832663 -4.50367 0
M  V30 1005 N 100.097 0.896712 -4.54437 0
M  V30 1006 C 100.832 0.997324 -5.6466 0
M  V30 1007 N 100.328 1.06147 -6.8462 0
M  V30 1008 N 102.121 1.03297 -5.52527 0
M  V30 1009 H 94.2724 -0.640211 -2.02522 0
M  V30 1010 H 96.5354 -0.225507 -0.920788 0
M  V30 1011 H 96.2414 -0.250126 -3.50809 0
M  V30 1012 H 96.1154 1.49947 -3.46115 0
M  V30 1013 H 98.5024 1.60689 -2.47514 0
M  V30 1014 H 98.5834 -0.158952 -2.55306 0
M  V30 1015 H 98.2274 -0.0415417 -5.07883 0
M  V30 1016 H 98.1574 1.73538 -4.97184 0
M  V30 1017 H 100.648 0.857188 -3.6805 0
M  V30 1018 H 100.961 1.1382 -7.64372 0
M  V30 1019 H 99.3064 1.03049 -6.87318 0
M  V30 1020 H 102.497 0.979558 -4.57736 0
M  V30 1021 H 102.67 1.10793 -6.38458 0
M  V30 1022 N 96.0765 1.50051 0.48192 0
M  V30 1023 C 97.0235 1.68122 1.58125 0
M  V30 1024 C 97.9935 0.522545 1.57666 0
M  V30 1025 O 99.1785 0.751844 1.75362 0
M  V30 1026 C 96.3185 1.77142 2.96167 0
M  V30 1027 C 95.4315 3.0444 3.06497 0
M  V30 1028 C 94.5665 3.04321 4.35387 0
M  V30 1029 C 93.6055 4.26118 4.3942 0
M  V30 1030 N 92.7425 4.238 5.59766 0
M  V30 1031 H 97.5825 2.6198 1.42022 0
M  V30 1032 H 95.1195 1.29877 0.690687 0
M  V30 1033 H 97.0775 1.80352 3.76203 0
M  V30 1034 H 95.7075 0.867329 3.1093 0
M  V30 1035 H 94.7595 3.10752 2.19402 0
M  V30 1036 H 96.0715 3.94426 3.05336 0
M  V30 1037 H 95.2255 3.062 5.23762 0
M  V30 1038 H 93.9645 2.12147 4.39141 0
M  V30 1039 H 92.9695 4.24463 3.49444 0
M  V30 1040 H 94.1945 5.19507 4.37366 0
M  V30 1041 H 92.1405 3.34474 5.64326 0
M  V30 1042 H 92.0575 5.07542 5.60301 0
M  V30 1043 H 93.3255 4.2981 6.50295 0
M  V30 1044 N 97.5546 -0.734337 1.39446 0
M  V30 1045 C 98.7946 -1.50655 1.38139 0
M  V30 1046 C 99.1586 -1.91986 -0.0228701 0
M  V30 1047 O 100.36 -2.68318 -0.160947 0
M  V30 1048 C 98.6306 -2.71251 2.32718 0
M  V30 1049 S 100.19 -3.60892 2.49605 0
M  V30 1050 H 97.0076 -0.515315 0.489869 0
M  V30 1051 H 99.6096 -0.860392 1.75549 0
M  V30 1052 H 98.3136 -2.39027 3.33608 0
M  V30 1053 H 97.8446 -3.40795 1.96526 0
M  V30 1054 H 99.8596 -4.64899 1.73446 0
M  V30 1055 N 99.0327 -1.24633 -0.964593 0
M  V30 1056 C 100.281 -1.08573 -1.70459 0
M  V30 1057 C 100.602 0.375655 -1.91347 0
M  V30 1058 O 99.8717 1.26779 -1.49345 0
M  V30 1059 H 98.4517 -0.398784 -0.631649 0
M  V30 1060 H 101.114 -1.56601 -1.16026 0
M  V30 1061 H 100.21 -1.58623 -2.68785 0
M  V30 1062 N 100.511 1.16574 -1.06058 0
M  V30 1063 C 101.421 2.2452 -0.680282 0
M  V30 1064 C 102.437 1.71348 0.302604 0
M  V30 1065 O 103.613 2.00822 0.152513 0
M  V30 1066 C 100.678 3.46629 -0.0700315 0
M  V30 1067 C 99.7388 4.14849 -1.10448 0
M  V30 1068 C 98.9718 5.31129 -0.523256 0
M  V30 1069 O 99.1948 5.66514 0.664709 0
M  V30 1070 O 98.1288 5.88526 -1.26179 0
M  V30 1071 H 101.955 2.59355 -1.58015 0
M  V30 1072 H 99.5398 1.24043 -0.832694 0
M  V30 1073 H 101.422 4.20543 0.268667 0
M  V30 1074 H 100.097 3.13573 0.803353 0
M  V30 1075 H 99.0038 3.42916 -1.49532 0
M  V30 1076 H 100.337 4.51954 -1.94931 0
M  V30 1077 N 101.989 0.842826 1.3317 0
M  V30 1078 C 103.238 0.436738 1.96915 0
M  V30 1079 C 103.551 -1.01025 1.67491 0
M  V30 1080 O 104.757 -1.5212 2.24881 0
M  V30 1081 C 103.213 0.730021 3.52418 0
M  V30 1082 C 102.821 2.19195 3.90714 0
M  V30 1083 C 104.565 0.391076 4.22695 0
M  V30 1084 C 102.472 2.42907 5.39212 0
M  V30 1085 H 101.402 0.15958 0.736919 0
M  V30 1086 H 104.053 1.03196 1.51733 0
M  V30 1087 H 102.435 0.0643755 3.95948 0
M  V30 1088 H 103.609 2.8984 3.58231 0
M  V30 1089 H 101.924 2.49425 3.33431 0
M  V30 1090 H 104.521 0.545817 5.31907 0
M  V30 1091 H 104.864 -0.666294 4.10933 0
M  V30 1092 H 105.397 1.01212 3.84709 0
M  V30 1093 H 102.136 3.47224 5.55982 0
M  V30 1094 H 101.656 1.76827 5.73142 0
M  V30 1095 H 103.335 2.2626 6.06148 0
M  V30 1096 N 103.467 -1.45747 0.599634 0
M  V30 1097 C 104.883 -1.57424 0.26264 0
M  V30 1098 C 105.083 -1.59222 -1.23493 0
M  V30 1099 O 104.139 -1.51825 -2.01756 0
M  V30 1100 C 105.452 -2.86061 0.926795 0
M  V30 1101 C 107 -2.99722 0.901967 0
M  V30 1102 C 107.475 -4.31119 1.54598 0
M  V30 1103 N 108.966 -4.37858 1.5111 0
M  V30 1104 C 109.701 -5.3818 1.97863 0
M  V30 1105 N 109.197 -6.45083 2.52666 0
M  V30 1106 N 110.99 -5.29487 1.88679 0
M  V30 1107 H 103.141 -1.42823 1.57211 0
M  V30 1108 H 105.404 -0.68235 0.658105 0
M  V30 1109 H 105.11 -2.90605 1.98095 0
M  V30 1110 H 104.984 -3.74563 0.445238 0
M  V30 1111 H 107.371 -2.9475 -0.143617 0
M  V30 1112 H 107.452 -2.12652 1.42171 0
M  V30 1113 H 107.096 -4.36849 2.59085 0
M  V30 1114 H 107.026 -5.16992 1.00132 0
M  V30 1115 H 109.517 -3.61209 1.11068 0
M  V30 1116 H 109.83 -7.17869 2.86155 0
M  V30 1117 H 108.175 -6.45856 2.56701 0
M  V30 1118 H 111.366 -4.44877 1.4561 0
M  V30 1119 H 111.539 -6.07524 2.25429 0
M  V30 1120 N 104.945 -0.338344 -1.53925 0
M  V30 1121 C 105.855 0.529421 -2.28548 0
M  V30 1122 C 106.871 1.11645 -1.3346 0
M  V30 1123 O 108.047 1.13325 -1.66492 0
M  V30 1124 C 105.112 1.66713 -3.03987 0
M  V30 1125 C 104.173 1.11041 -4.14691 0
M  V30 1126 C 103.406 2.19389 -4.86522 0
M  V30 1127 O 103.629 3.40013 -4.57982 0
M  V30 1128 O 102.563 1.83976 -5.73094 0
M  V30 1129 H 106.389 -0.0770399 -3.03602 0
M  V30 1130 H 103.974 -0.103555 -1.49041 0
M  V30 1131 H 105.856 2.32918 -3.5118 0
M  V30 1132 H 104.531 2.25949 -2.31794 0
M  V30 1133 H 103.438 0.413024 -3.71813 0
M  V30 1134 H 104.771 0.562975 -4.8897 0
M  V30 1135 N 106.423 1.57458 -0.0668435 0
M  V30 1136 C 107.355 2.09413 0.931601 0
M  V30 1137 C 108.368 1.02522 1.26464 0
M  V30 1138 O 109.557 1.30049 1.22269 0
M  V30 1139 C 106.657 2.53537 2.24882 0
M  V30 1140 C 105.83 3.83944 2.09537 0
M  V30 1141 C 104.889 4.14214 3.2452 0
M  V30 1142 O 103.915 4.83891 2.9973 0
M  V30 1143 N 105.117 3.67367 4.49469 0
M  V30 1144 H 107.882 2.95699 0.488048 0
M  V30 1145 H 105.443 1.61462 0.119009 0
M  V30 1146 H 107.435 2.70853 3.00701 0
M  V30 1147 H 106.005 1.72415 2.60753 0
M  V30 1148 H 105.225 3.76057 1.18215 0
M  V30 1149 H 106.513 4.69312 1.96529 0
M  V30 1150 H 105.911 3.11068 4.72497 0
M  V30 1151 H 104.468 3.89891 5.2233 0
M  V30 1152 N 107.901 -0.206675 1.56239 0
M  V30 1153 C 109.131 -0.943975 1.83773 0
M  V30 1154 C 109.539 -1.77841 0.645703 0
M  V30 1155 O 108.882 -1.79403 -0.395008 0
M  V30 1156 C 108.944 -1.899 3.05251 0
M  V30 1157 C 108.608 -1.24764 4.39639 0
M  V30 1158 C 109.605 -0.630216 5.16066 0
M  V30 1159 C 107.29 -1.25496 4.8637 0
M  V30 1160 C 109.284 -0.0287946 6.37393 0
M  V30 1161 C 106.971 -0.649698 6.07637 0
M  V30 1162 C 107.969 -0.0376845 6.8299 0
M  V30 1163 O 107.657 0.55812 8.0196 0
M  V30 1164 H 107.389 -0.281508 0.614597 0
M  V30 1165 H 109.943 -0.222458 2.04192 0
M  V30 1166 H 108.173 -2.6599 2.80689 0
M  V30 1167 H 109.862 -2.5031 3.1953 0
M  V30 1168 H 110.628 -0.616785 4.81062 0
M  V30 1169 H 106.507 -1.72072 4.27683 0
M  V30 1170 H 110.051 0.449518 6.9615 0
M  V30 1171 H 105.948 -0.660592 6.42111 0
M  V30 1172 H 106.716 0.453891 8.17241 0
M  V30 1173 N 109.379 -1.50304 -0.473955 0
M  V30 1174 C 110.627 -1.60832 -1.22382 0
M  V30 1175 C 110.948 -0.30939 -1.9253 0
M  V30 1176 O 110.218 0.67296 -1.83978 0
M  V30 1177 H 108.798 -0.592652 -0.454723 0
M  V30 1178 H 111.46 -1.87068 -0.546968 0
M  V30 1179 H 110.556 -2.41803 -1.97327 0
M  V30 1180 N 110.857 0.726932 -1.39834 0
M  V30 1181 C 112.106 1.48214 -1.36805 0
M  V30 1182 C 112.419 1.95576 0.0305291 0
M  V30 1183 O 113.625 2.7088 0.183417 0
M  V30 1184 C 112.081 2.67854 -2.40379 0
M  V30 1185 C 111.689 2.27408 -3.85992 0
M  V30 1186 C 113.433 3.45641 -2.46439 0
M  V30 1187 C 111.34 3.43819 -4.81189 0
M  V30 1188 H 110.27 0.556606 -0.508631 0
M  V30 1189 H 112.921 0.792216 -1.65518 0
M  V30 1190 H 111.303 3.3896 -2.04749 0
M  V30 1191 H 112.477 1.63795 -4.30706 0
M  V30 1192 H 110.792 1.62692 -3.83302 0
M  V30 1193 H 113.389 4.32244 -3.14753 0
M  V30 1194 H 113.732 3.88669 -1.49139 0
M  V30 1195 H 114.265 2.8157 -2.81004 0
M  V30 1196 H 111.004 3.05834 -5.79781 0
M  V30 1197 H 110.524 4.06385 -4.41148 0
M  V30 1198 H 112.203 4.10043 -5.00474 0
M  V30 1199 N 112.336 1.25143 0.95797 0
M  V30 1200 C 113.268 1.01023 2.05735 0
M  V30 1201 C 114.281 -0.0236902 1.62783 0
M  V30 1202 O 115.47 0.21448 1.77207 0
M  V30 1203 C 112.57 0.504595 3.35122 0
M  V30 1204 C 111.743 1.6039 4.06932 0
M  V30 1205 C 110.802 1.09922 5.14591 0
M  V30 1206 O 109.828 1.79293 5.40225 0
M  V30 1207 N 111.03 -0.0612545 5.80468 0
M  V30 1208 H 113.795 1.95683 2.26998 0
M  V30 1209 H 111.356 1.16303 1.12629 0
M  V30 1210 H 113.348 0.151516 4.04416 0
M  V30 1211 H 111.918 -0.347989 3.10657 0
M  V30 1212 H 111.138 2.12872 3.31782 0
M  V30 1213 H 112.426 2.34252 4.51667 0
M  V30 1214 H 111.824 -0.640985 5.62057 0
M  V30 1215 H 110.381 -0.355395 6.5083 0
M  V30 1216 N 113.814 -1.1601 1.06675 0
M  V30 1217 C 115.23 -1.38622 0.790948 0
M  V30 1218 C 115.43 -1.92109 -0.607965 0
M  V30 1219 O 114.486 -2.12239 -1.36787 0
M  V30 1220 C 115.799 -2.36347 1.85905 0
M  V30 1221 C 117.347 -2.50023 1.88301 0
M  V30 1222 C 117.822 -3.51033 2.94176 0
M  V30 1223 N 119.313 -3.58563 2.93235 0
M  V30 1224 C 120.048 -4.36521 3.71803 0
M  V30 1225 N 119.544 -5.17869 4.602 0
M  V30 1226 N 121.337 -4.31541 3.60178 0
M  V30 1227 H 113.488 -0.796294 1.96908 0
M  V30 1228 H 115.751 -0.412597 0.853503 0
M  V30 1229 H 115.457 -2.04147 2.86386 0
M  V30 1230 H 115.331 -3.36042 1.71334 0
M  V30 1231 H 117.718 -2.81524 0.884769 0
M  V30 1232 H 117.799 -1.5035 2.06951 0
M  V30 1233 H 117.443 -3.20268 3.94196 0
M  V30 1234 H 117.373 -4.50445 2.72776 0
M  V30 1235 H 119.864 -3.00496 2.29152 0
M  V30 1236 H 120.177 -5.74578 5.16797 0
M  V30 1237 H 118.522 -5.17199 4.64253 0
M  V30 1238 H 121.713 -3.67051 2.90502 0
M  V30 1239 H 121.886 -4.9205 4.21653 0
M  V30 1240 N 115.292 -0.849877 -1.32721 0
M  V30 1241 C 116.538 -0.451591 -1.97708 0
M  V30 1242 C 116.871 0.989175 -1.6712 0
M  V30 1243 O 116.146 1.69334 -0.956891 0
M  V30 1244 C 116.429 -0.685598 -3.53513 0
M  V30 1245 C 116.282 -2.17444 -3.93749 0
M  V30 1246 C 117.601 -0.138874 -4.39881 0
M  V30 1247 H 114.72 -0.16555 -0.718166 0
M  V30 1248 H 117.362 -1.06742 -1.57182 0
M  V30 1249 H 115.512 -0.161416 -3.88165 0
M  V30 1250 H 117.184 -2.76433 -3.693 0
M  V30 1251 H 115.427 -2.65476 -3.43081 0
M  V30 1252 H 116.098 -2.28888 -5.02309 0
M  V30 1253 H 118.574 -0.587068 -4.11938 0
M  V30 1254 H 117.45 -0.332213 -5.47894 0
M  V30 1255 H 117.711 0.95806 -4.31594 0
M  V30 1256 N 116.77 1.45427 -0.607355 0
M  V30 1257 C 117.68 2.34325 0.113463 0
M  V30 1258 C 118.696 1.51226 0.860617 0
M  V30 1259 O 119.872 1.84029 0.818255 0
M  V30 1260 C 116.937 3.28839 1.09844 0
M  V30 1261 C 115.998 4.27844 0.353271 0
M  V30 1262 C 115.231 5.17842 1.29133 0
M  V30 1263 O 115.454 5.11264 2.52913 0
M  V30 1264 O 114.388 5.96713 0.788523 0
M  V30 1265 H 118.214 2.97364 -0.617094 0
M  V30 1266 H 115.799 1.44807 -0.367619 0
M  V30 1267 H 117.681 3.8708 1.66575 0
M  V30 1268 H 116.356 2.68365 1.81003 0
M  V30 1269 H 115.263 3.7322 -0.256494 0
M  V30 1270 H 116.596 4.91173 -0.317822 0
M  V30 1271 N 118.248 0.346503 1.53744 0
M  V30 1272 C 119.211 -0.496439 2.23759 0
M  V30 1273 C 120.211 -1.0252 1.2388 0
M  V30 1274 O 121.401 -0.913974 1.48297 0
M  V30 1275 C 118.533 -1.69187 2.95954 0
M  V30 1276 H 119.726 0.115952 2.99676 0
M  V30 1277 H 117.279 0.0978939 1.55993 0
M  V30 1278 H 118.014 -2.34288 2.24231 0
M  V30 1279 H 117.799 -1.31989 3.69217 0
M  V30 1280 H 119.289 -2.28969 3.49232 0
M  V30 1281 N 119.726 -1.57421 0.075193 0
M  V30 1282 C 120.659 -2.08528 -0.926904 0
M  V30 1283 C 121.637 -0.991171 -1.28898 0
M  V30 1284 O 122.821 -1.26479 -1.39769 0
M  V30 1285 C 119.948 -2.54576 -2.23402 0
M  V30 1286 C 118.994 -3.75454 -2.02327 0
M  V30 1287 S 119.827 -5.19989 -1.27951 0
M  V30 1288 C 120.983 -5.69372 -2.59935 0
M  V30 1289 H 121.216 -2.932 -0.492048 0
M  V30 1290 H 118.749 -1.53785 -0.137651 0
M  V30 1291 H 120.707 -2.81767 -2.98526 0
M  V30 1292 H 119.368 -1.70166 -2.64012 0
M  V30 1293 H 118.561 -4.05675 -2.99071 0
M  V30 1294 H 118.163 -3.48654 -1.35339 0
M  V30 1295 H 120.455 -5.76424 -3.56008 0
M  V30 1296 H 121.398 -6.68207 -2.34319 0
M  V30 1297 H 121.806 -4.97205 -2.67296 0
M  V30 1298 N 121.204 0.198386 -1.56346 0
M  V30 1299 C 122.451 0.919286 -1.80431 0
M  V30 1300 C 122.779 1.83393 -0.647866 0
M  V30 1301 O 122.034 1.92236 0.366556 0
M  V30 1302 C 122.333 1.77031 -3.10475 0
M  V30 1303 C 121.999 1.00693 -4.39513 0
M  V30 1304 C 120.661 0.796145 -4.74568 0
M  V30 1305 C 123.013 0.469559 -5.19081 0
M  V30 1306 C 120.341 0.0364588 -5.86689 0
M  V30 1307 C 122.693 -0.2769 -6.31994 0
M  V30 1308 C 121.357 -0.49873 -6.65634 0
M  V30 1309 H 120.627 0.336391 -0.660244 0
M  V30 1310 H 123.274 0.185872 -1.90596 0
M  V30 1311 H 121.579 2.5723 -2.95533 0
M  V30 1312 H 123.276 2.33065 -3.26315 0
M  V30 1313 H 119.866 1.18122 -4.12001 0
M  V30 1314 H 124.05 0.619816 -4.92414 0
M  V30 1315 H 119.306 -0.145412 -6.11227 0
M  V30 1316 H 123.48 -0.700684 -6.92866 0
M  V30 1317 H 121.107 -1.0893 -7.52355 0
M  V30 1318 N 122.682 1.50554 0.465978 0
M  V30 1319 C 123.632 1.66177 1.56106 0
M  V30 1320 C 124.616 0.516265 1.52393 0
M  V30 1321 O 125.808 0.770906 1.5933 0
M  V30 1322 C 122.937 1.76396 2.94515 0
M  V30 1323 C 122.023 2.9664 3.03093 0
M  V30 1324 N 122.414 4.20245 2.81474 0
M  V30 1325 C 120.712 2.95304 3.34233 0
M  V30 1326 C 121.413 5.01259 2.95151 0
M  V30 1327 N 120.389 4.35318 3.25576 0
M  V30 1328 H 124.191 2.59434 1.38099 0
M  V30 1329 H 121.705 1.47808 0.6728 0
M  V30 1330 H 123.702 1.85694 3.73261 0
M  V30 1331 H 122.362 0.843017 3.13565 0
M  V30 1332 H 123.373 4.4966 2.56956 0
M  V30 1333 H 120.05 2.12729 3.59239 0
M  V30 1334 H 121.44 6.09564 2.82632 0
M  V30 1335 N 124.16 -0.719506 1.40217 0
M  V30 1336 C 125.388 -1.50864 1.41589 0
M  V30 1337 C 125.803 -1.88794 0.0145275 0
M  V30 1338 O 125.16 -1.55174 -0.960594 0
M  V30 1339 C 125.211 -2.78646 2.30302 0
M  V30 1340 O 124.932 -2.42321 3.64983 0
M  V30 1341 C 126.433 -3.72569 2.40224 0
M  V30 1342 H 123.653 -0.465709 0.48307 0
M  V30 1343 H 126.197 -0.88785 1.84221 0
M  V30 1344 H 124.352 -3.37019 1.91042 0
M  V30 1345 H 124.766 -3.24514 4.12057 0
M  V30 1346 H 126.24 -4.5908 3.06512 0
M  V30 1347 H 126.717 -4.15403 1.42608 0
M  V30 1348 H 127.323 -3.20109 2.80019 0
M  V30 1349 N 125.638 -1.25649 -0.95132 0
M  V30 1350 C 126.568 -1.08808 -2.06599 0
M  V30 1351 C 127.549 0.00382547 -1.701 0
M  V30 1352 O 128.734 -0.166325 -1.93486 0
M  V30 1353 C 125.864 -0.709542 -3.39975 0
M  V30 1354 C 124.818 -1.75206 -3.90496 0
M  V30 1355 C 124.144 -1.22811 -5.20405 0
M  V30 1356 C 125.444 -3.15153 -4.16504 0
M  V30 1357 H 127.138 -2.02048 -2.20946 0
M  V30 1358 H 124.684 -0.972835 -1.06169 0
M  V30 1359 H 126.637 -0.578649 -4.17408 0
M  V30 1360 H 125.361 0.258556 -3.25575 0
M  V30 1361 H 124.02 -1.87145 -3.15234 0
M  V30 1362 H 123.668 -0.250145 -5.02378 0
M  V30 1363 H 123.368 -1.92492 -5.55176 0
M  V30 1364 H 124.892 -1.10968 -6.00432 0
M  V30 1365 H 126.306 -3.06349 -4.84586 0
M  V30 1366 H 124.703 -3.82333 -4.62538 0
M  V30 1367 H 125.773 -3.61966 -3.22658 0
M  V30 1368 N 127.117 1.15442 -1.07289 0
M  V30 1369 C 128.394 1.82306 -0.708792 0
M  V30 1370 C 128.774 1.94991 0.808807 0
M  V30 1371 O 128.122 1.50085 1.72298 0
M  V30 1372 C 128.332 3.18695 -1.42247 0
M  V30 1373 C 129.68 3.94341 -1.57417 0
M  V30 1374 O 130.704 3.28247 -1.38319 0
M  V30 1375 O 129.563 5.12839 -1.88834 0
M  V30 1376 H 126.657 0.787628 -0.252132 0
M  V30 1377 H 129.203 1.22559 -1.17377 0
M  V30 1378 H 127.975 3.04557 -2.45684 0
M  V30 1379 H 127.598 3.86128 -0.948223 0
M  V30 1380 N 128.595 0.856903 1.32268 0
M  V30 1381 C 129.542 0.301172 2.28827 0
M  V30 1382 C 130.512 -0.593104 1.5515 0
M  V30 1383 O 131.697 -0.527537 1.83362 0
M  V30 1384 C 128.837 -0.502523 3.41422 0
M  V30 1385 C 127.95 0.417797 4.29975 0
M  V30 1386 C 127.085 -0.398749 5.29701 0
M  V30 1387 C 126.124 0.518827 6.09897 0
M  V30 1388 N 125.261 -0.260674 7.01616 0
M  V30 1389 H 130.101 1.12983 2.75751 0
M  V30 1390 H 127.638 0.568582 1.35667 0
M  V30 1391 H 129.596 -0.984141 4.05426 0
M  V30 1392 H 128.226 -1.29599 2.95642 0
M  V30 1393 H 127.278 1.01781 3.66531 0
M  V30 1394 H 128.59 1.12191 4.86019 0
M  V30 1395 H 127.744 -0.943435 5.9932 0
M  V30 1396 H 126.483 -1.13622 4.7428 0
M  V30 1397 H 125.488 1.07538 5.39181 0
M  V30 1398 H 126.713 1.25495 6.67404 0
M  V30 1399 H 124.659 -0.981198 6.4862 0
M  V30 1400 H 124.576 0.384364 7.55022 0
M  V30 1401 H 125.844 -0.787014 7.75517 0
M  V30 1402 N 130.073 -1.45103 0.615059 0
M  V30 1403 C 131.322 -2.01396 0.110718 0
M  V30 1404 C 131.635 -1.48834 -1.26916 0
M  V30 1405 O 132.841 -1.97152 -1.86664 0
M  V30 1406 C 131.297 -3.59599 0.14723 0
M  V30 1407 C 130.905 -4.21158 1.52743 0
M  V30 1408 C 132.649 -4.23428 -0.30148 0
M  V30 1409 C 130.556 -5.71535 1.51992 0
M  V30 1410 H 129.486 -0.753061 0.0376241 0
M  V30 1411 H 132.137 -1.66494 0.77149 0
M  V30 1412 H 130.519 -3.91724 -0.580339 0
M  V30 1413 H 131.693 -4.00594 2.2773 0
M  V30 1414 H 130.008 -3.69552 1.91886 0
M  V30 1415 H 132.605 -5.33703 -0.326392 0
M  V30 1416 H 132.948 -3.94629 -1.32565 0
M  V30 1417 H 133.481 -3.96047 0.373065 0
M  V30 1418 H 130.22 -6.05044 2.52193 0
M  V30 1419 H 129.74 -5.94268 0.81274 0
M  V30 1420 H 131.419 -6.34873 1.24681 0
M  V30 1421 N 131.551 -0.354651 -1.53558 0
M  V30 1422 C 132.499 0.512195 -2.26891 0
M  V30 1423 C 133.493 1.09263 -1.29452 0
M  V30 1424 O 134.699 1.03709 -1.47121 0
M  V30 1425 H 131.074 0.183878 -0.729173 0
M  V30 1426 H 133.045 -0.128202 -2.98124 0
M  V30 1427 C 131.794 1.64563 -3.06291 0
M  V30 1428 H 131.117 1.20829 -3.81104 0
M  V30 1429 H 132.557 2.22711 -3.60799 0
M  V30 1430 C 131.016 2.58158 -2.16462 0
M  V30 1431 O 131.546 3.60695 -1.76811 0
M  V30 1432 N 129.752 2.27096 -1.81317 0
M  V30 1433 H 129.299 1.43751 -2.1376 0
M  V30 1434 H 129.257 2.89975 -1.21498 0
M  V30 1435 N 133.029 1.57378 -0.0835403 0
M  V30 1436 C 133.992 2.12252 0.864959 0
M  V30 1437 C 134.992 1.04916 1.21858 0
M  V30 1438 O 136.182 1.30853 1.14991 0
M  V30 1439 C 133.314 2.63358 2.16461 0
M  V30 1440 H 134.507 2.97371 0.388676 0
M  V30 1441 H 132.06 1.55423 0.165317 0
M  V30 1442 H 132.795 1.81727 2.686 0
M  V30 1443 H 132.58 3.41826 1.92087 0
M  V30 1444 H 134.07 3.05847 2.84337 0
M  V30 1445 N 134.507 -0.190092 1.56449 0
M  V30 1446 C 135.784 -0.935886 1.71757 0
M  V30 1447 C 136.164 -2.01173 0.639726 0
M  V30 1448 O 135.512 -2.25827 -0.348502 0
M  V30 1449 C 135.722 -1.51775 3.1427 0
M  V30 1450 C 137.07 -1.99794 3.74656 0
M  V30 1451 O 138.094 -1.61607 3.1743 0
M  V30 1452 O 136.953 -2.70079 4.751 0
M  V30 1453 H 134.047 -0.439229 0.700719 0
M  V30 1454 H 136.593 -0.179395 1.68749 0
M  V30 1455 H 135.365 -0.742505 3.84191 0
M  V30 1456 H 134.988 -2.33894 3.21527 0
M  V30 1457 N 135.985 -1.50799 -0.457987 0
M  V30 1458 C 137.396 -1.55152 -1.0385 0
M  V30 1459 C 137.747 -0.362719 -1.92818 0
M  V30 1460 O 136.872 0.522915 -2.09987 0
M  V30 1461 C 137.467 -2.81173 -1.89017 0
M  V30 1462 C 136.026 -2.88164 -2.42154 0
M  V30 1463 C 135.173 -2.49591 -1.20829 0
M  V30 1464 H 138.124 -1.56874 -0.240068 0
M  V30 1465 H 138.145 -2.63769 -2.74238 0
M  V30 1466 H 137.657 -3.67677 -1.24238 0
M  V30 1467 H 135.758 -2.06042 -3.10447 0
M  V30 1468 H 135.871 -3.91356 -2.76364 0
M  V30 1469 H 134.235 -2.02322 -1.54719 0
M  V30 1470 H 135.018 -3.38418 -0.576927 0
M  V30 1471 N 137.463 0.71206 -1.40597 0
M  V30 1472 C 138.709 1.47416 -1.39271 0
M  V30 1473 C 139.042 1.942 0.00388791 0
M  V30 1474 O 138.317 1.68403 0.973179 0
M  V30 1475 C 138.6 2.69774 -2.38525 0
M  V30 1476 C 138.453 2.28861 -3.87224 0
M  V30 1477 C 139.772 3.71939 -2.35264 0
M  V30 1478 H 136.891 0.534713 -0.5072 0
M  V30 1479 H 139.533 0.812375 -1.71757 0
M  V30 1480 H 137.683 3.26238 -2.10953 0
M  V30 1481 H 139.355 1.77852 -4.25636 0
M  V30 1482 H 137.598 1.60824 -4.02887 0
M  V30 1483 H 138.269 3.16584 -4.52193 0
M  V30 1484 H 140.745 3.25113 -2.59694 0
M  V30 1485 H 139.621 4.55186 -3.06753 0
M  V30 1486 H 139.882 4.20484 -1.36549 0
M  V30 1487 N 138.941 1.26152 0.944643 0
M  V30 1488 C 139.871 1.09902 2.06019 0
M  V30 1489 C 140.852 0.00519538 1.70099 0
M  V30 1490 O 142.037 0.176583 1.93396 0
M  V30 1491 C 139.167 0.727562 3.39594 0
M  V30 1492 C 138.121 1.77274 3.89561 0
M  V30 1493 C 137.447 1.25569 5.19747 0
M  V30 1494 C 138.747 3.17357 4.14827 0
M  V30 1495 H 140.441 2.03217 2.19871 0
M  V30 1496 H 137.987 0.978452 1.05652 0
M  V30 1497 H 139.94 0.600777 4.17095 0
M  V30 1498 H 138.664 -0.241287 3.25707 0
M  V30 1499 H 137.323 1.88814 3.14237 0
M  V30 1500 H 136.971 0.276783 5.02238 0
M  V30 1501 H 136.671 1.95433 5.54148 0
M  V30 1502 H 138.195 1.1415 5.99835 0
M  V30 1503 H 139.609 3.08914 4.82954 0
M  V30 1504 H 138.006 3.84781 4.60504 0
M  V30 1505 H 139.076 3.63673 3.20734 0
M  V30 1506 N 140.419 -1.14872 1.07899 0
M  V30 1507 C 141.349 -2.2193 0.725887 0
M  V30 1508 C 142.33 -1.67622 -0.28927 0
M  V30 1509 O 143.515 -1.93533 -0.160787 0
M  V30 1510 C 140.645 -3.47061 0.128856 0
M  V30 1511 C 139.599 -4.14363 1.07178 0
M  V30 1512 C 138.925 -5.33636 0.337229 0
M  V30 1513 C 140.225 -4.63492 2.40775 0
M  V30 1514 H 141.919 -2.51724 1.62097 0
M  V30 1515 H 139.465 -1.20991 0.780838 0
M  V30 1516 H 141.418 -4.21199 -0.130147 0
M  V30 1517 H 140.142 -3.16617 -0.80134 0
M  V30 1518 H 138.801 -3.42173 1.3158 0
M  V30 1519 H 138.449 -4.99449 -0.596606 0
M  V30 1520 H 138.149 -5.79609 0.965788 0
M  V30 1521 H 139.673 -6.10539 0.0861567 0
M  V30 1522 H 141.087 -5.2913 2.20669 0
M  V30 1523 H 139.484 -5.20148 2.99276 0
M  V30 1524 H 140.554 -3.78834 3.02676 0
M  V30 1525 N 141.898 -0.863906 -1.31812 0
M  V30 1526 C 143.309 -0.52522 -1.7916 0
M  V30 1527 C 143.66 0.957518 -1.71248 0
M  V30 1528 O 142.785 1.74734 -1.27659 0
M  V30 1529 C 143.38 -0.9466 -3.25307 0
M  V30 1530 C 141.939 -0.659668 -3.70574 0
M  V30 1531 C 141.086 -1.14126 -2.52726 0
M  V30 1532 H 144.037 -1.05022 -1.1898 0
M  V30 1533 H 144.058 -0.266766 -3.79564 0
M  V30 1534 H 143.57 -2.02579 -3.31034 0
M  V30 1535 H 141.671 0.408416 -3.70355 0
M  V30 1536 H 141.784 -1.23245 -4.62977 0
M  V30 1537 H 140.148 -0.561216 -2.4844 0
M  V30 1538 H 140.931 -2.22775 -2.61201 0
M  V30 1539 N 143.376 1.44774 -0.622745 0
M  V30 1540 C 144.324 2.32387 0.0994683 0
M  V30 1541 C 145.318 1.46859 0.844326 0
M  V30 1542 O 146.524 1.63254 0.758174 0
M  V30 1543 H 142.899 0.750273 0.0509291 0
M  V30 1544 H 144.87 2.91062 -0.65767 0
M  V30 1545 C 143.619 3.30723 1.07319 0
M  V30 1546 H 142.942 3.96541 0.509462 0
M  V30 1547 H 144.382 3.94725 1.54817 0
M  V30 1548 C 142.841 2.59021 2.15429 0
M  V30 1549 O 143.371 2.38286 3.23393 0
M  V30 1550 N 141.577 2.189 1.91131 0
M  V30 1551 H 141.124 2.35964 1.03337 0
M  V30 1552 H 141.082 1.71251 2.63668 0
M  V30 1553 N 144.854 0.36279 1.53368 0
M  V30 1554 C 146.103 -0.22888 2.00397 0
M  V30 1555 C 146.416 -1.50096 1.25421 0
M  V30 1556 O 147.622 -2.17106 1.63025 0
M  V30 1557 C 146.078 -0.458417 3.56969 0
M  V30 1558 C 145.686 0.798877 4.4082 0
M  V30 1559 C 147.43 -1.00789 4.12361 0
M  V30 1560 C 145.337 0.539078 5.88938 0
M  V30 1561 H 144.267 -0.089305 0.748693 0
M  V30 1562 H 146.918 0.481099 1.77081 0
M  V30 1563 H 145.3 -1.22959 3.76427 0
M  V30 1564 H 146.474 1.57262 4.33134 0
M  V30 1565 H 144.789 1.27137 3.96516 0
M  V30 1566 H 147.386 -1.21754 5.20653 0
M  V30 1567 H 147.729 -1.9692 3.66781 0
M  V30 1568 H 148.262 -0.296961 3.9669 0
M  V30 1569 H 145.001 1.47064 6.3879 0
M  V30 1570 H 144.521 -0.196222 5.99479 0
M  V30 1571 H 146.2 0.163542 6.46793 0
M  V30 1572 N 146.332 -1.57332 0.0918853 0
M  V30 1573 C 147.56 -1.98574 -0.581048 0
M  V30 1574 C 147.975 -0.970903 -1.61923 0
M  V30 1575 O 147.332 0.0399054 -1.82456 0
M  V30 1576 C 147.383 -3.39872 -1.23164 0
M  V30 1577 O 147.104 -4.37469 -0.234989 0
M  V30 1578 C 148.605 -3.96099 -1.99049 0
M  V30 1579 H 145.825 -0.65261 -0.156018 0
M  V30 1580 H 148.369 -2.0379 0.170225 0
M  V30 1581 H 146.524 -3.35679 -1.93386 0
M  V30 1582 H 146.938 -5.19751 -0.70418 0
M  V30 1583 H 148.412 -4.97127 -2.39934 0
M  V30 1584 H 148.889 -3.3374 -2.85507 0
M  V30 1585 H 149.495 -4.03755 -1.3365 0
M  V30 1586 N 147.81 0.181792 -1.56548 0
M  V30 1587 C 148.74 1.22765 -1.98623 0
M  V30 1588 C 149.721 1.46747 -0.860189 0
M  V30 1589 O 150.906 1.58259 -1.12551 0
M  V30 1590 C 148.036 2.56894 -2.33715 0
M  V30 1591 C 146.99 2.475 -3.49182 0
M  V30 1592 C 146.316 3.86023 -3.69986 0
M  V30 1593 C 147.616 1.98866 -4.82959 0
M  V30 1594 H 149.31 0.877942 -2.86239 0
M  V30 1595 H 146.856 0.42088 -1.37712 0
M  V30 1596 H 148.809 3.30253 -2.61746 0
M  V30 1597 H 147.533 2.93632 -1.42997 0
M  V30 1598 H 146.192 1.76596 -3.21262 0
M  V30 1599 H 145.84 4.20136 -2.76576 0
M  V30 1600 H 145.54 3.80609 -4.47672 0
M  V30 1601 H 147.064 4.60984 -4.00407 0
M  V30 1602 H 148.478 2.61992 -5.09934 0
M  V30 1603 H 146.875 2.04424 -5.64208 0
M  V30 1604 H 147.945 0.942465 -4.75653 0
M  V30 1605 N 149.288 1.51039 0.449983 0
M  V30 1606 C 150.536 1.62759 1.19808 0
M  V30 1607 C 150.857 0.339981 1.92013 0
M  V30 1608 O 150.127 -0.643606 1.85026 0
M  V30 1609 H 148.707 0.599811 0.445237 0
M  V30 1610 H 151.369 1.87914 0.517138 0
M  V30 1611 H 150.465 2.44911 1.93455 0
M  V30 1612 N 150.766 -0.704594 1.40972 0
M  V30 1613 C 151.991 -1.49858 1.43378 0
M  V30 1614 C 152.416 -1.88061 0.038184 0
M  V30 1615 O 151.774 -1.5402 -0.956425 0
M  V30 1616 C 151.822 -2.74333 2.34038 0
M  V30 1617 O 150.926 -3.7147 1.7912 0
M  V30 1618 H 150.267 -0.45139 0.486974 0
M  V30 1619 H 152.797 -0.866832 1.8533 0
M  V30 1620 H 152.807 -3.22741 2.49604 0
M  V30 1621 H 151.482 -2.45863 3.35446 0
M  V30 1622 H 150.059 -3.30363 1.72958 0
M  V30 1623 N 152.244 -1.26651 -0.937939 0
M  V30 1624 C 153.154 -1.10276 -2.07066 0
M  V30 1625 C 154.17 -0.0354197 -1.73964 0
M  V30 1626 O 155.346 -0.239816 -1.99967 0
M  V30 1627 C 152.411 -0.740887 -3.38691 0
M  V30 1628 C 151.472 -1.88799 -3.85556 0
M  V30 1629 C 150.705 -1.54329 -5.10899 0
M  V30 1630 O 150.928 -0.446494 -5.6865 0
M  V30 1631 O 149.862 -2.37911 -5.52885 0
M  V30 1632 H 153.688 -2.05309 -2.23789 0
M  V30 1633 H 151.273 -1.05743 -1.0554 0
M  V30 1634 H 153.155 -0.55195 -4.1777 0
M  V30 1635 H 151.83 0.180022 -3.23199 0
M  V30 1636 H 150.737 -2.13191 -3.07409 0
M  V30 1637 H 152.07 -2.78874 -4.05574 0
M  V30 1638 N 153.722 1.14298 -1.08507 0
M  V30 1639 C 154.971 1.84708 -0.810305 0
M  V30 1640 C 155.284 1.83903 0.666271 0
M  V30 1641 O 156.49 2.50112 1.05624 0
M  V30 1642 C 154.946 3.31572 -1.39957 0
M  V30 1643 C 154.554 3.40791 -2.90801 0
M  V30 1644 C 156.298 4.07087 -1.20334 0
M  V30 1645 C 154.205 4.81872 -3.4286 0
M  V30 1646 H 153.135 0.691985 -0.299454 0
M  V30 1647 H 155.786 1.28841 -1.30661 0
M  V30 1648 H 154.168 3.87183 -0.830976 0
M  V30 1649 H 155.342 2.95225 -3.53806 0
M  V30 1650 H 153.657 2.78732 -3.0935 0
M  V30 1651 H 156.254 5.11225 -1.56693 0
M  V30 1652 H 156.597 4.16054 -0.143237 0
M  V30 1653 H 157.13 3.57779 -1.73893 0
M  V30 1654 H 153.869 4.78094 -4.48449 0
M  V30 1655 H 153.389 5.27972 -2.84615 0
M  V30 1656 H 155.068 5.50765 -3.39509 0
M  V30 1657 N 155.201 0.870884 1.31352 0
M  V30 1658 C 156.617 0.562932 1.49343 0
M  V30 1659 C 156.817 -0.902725 1.80148 0
M  V30 1660 O 155.873 -1.68484 1.88067 0
M  V30 1661 C 157.186 1.46393 2.62659 0
M  V30 1662 C 158.734 1.46607 2.76542 0
M  V30 1663 C 159.209 2.35266 3.92955 0
M  V30 1664 N 160.7 2.33151 4.00243 0
M  V30 1665 C 161.435 2.98471 4.89594 0
M  V30 1666 N 160.931 3.72964 5.8384 0
M  V30 1667 N 162.724 2.87775 4.82848 0
M  V30 1668 H 154.875 1.81923 1.09626 0
M  V30 1669 H 157.138 0.777934 0.541777 0
M  V30 1670 H 156.844 2.50689 2.46674 0
M  V30 1671 H 156.718 1.16314 3.58819 0
M  V30 1672 H 159.105 0.43069 2.9194 0
M  V30 1673 H 159.186 1.8071 1.81046 0
M  V30 1674 H 158.83 3.38881 3.78315 0
M  V30 1675 H 158.76 1.98487 4.87761 0
M  V30 1676 H 161.251 1.79006 3.32814 0
M  V30 1677 H 161.564 4.19932 6.4875 0
M  V30 1678 H 159.909 3.77073 5.83816 0
M  V30 1679 H 163.1 2.29116 4.08195 0
M  V30 1680 H 163.273 3.38961 5.52277 0
M  V30 1681 N 156.679 -1.44442 0.630414 0
M  V30 1682 C 157.956 -1.9549 0.0655657 0
M  V30 1683 C 158.336 -1.5724 -1.40851 0
M  V30 1684 O 157.684 -0.846116 -2.12257 0
M  V30 1685 C 157.894 -3.47812 0.287691 0
M  V30 1686 C 159.242 -4.24216 0.180513 0
M  V30 1687 O 160.266 -3.55526 0.219019 0
M  V30 1688 O 159.125 -5.46434 0.0848493 0
M  V30 1689 H 156.219 -0.826688 -0.0227177 0
M  V30 1690 H 158.765 -1.54496 0.702068 0
M  V30 1691 H 157.537 -3.687 1.31056 0
M  V30 1692 H 157.16 -3.95751 -0.382984 0
M  V30 1693 N 158.157 -0.370918 -1.53173 0
M  V30 1694 C 159.382 0.220293 -2.06227 0
M  V30 1695 C 159.807 1.41243 -1.24225 0
M  V30 1696 O 159.165 1.79387 -0.262645 0
M  V30 1697 C 159.213 0.586663 -3.55796 0
M  V30 1698 O 158.317 1.68317 -3.76488 0
M  V30 1699 H 157.658 0.0308099 -0.663285 0
M  V30 1700 H 160.188 -0.533068 -1.97534 0
M  V30 1701 H 160.198 0.85617 -3.98916 0
M  V30 1702 H 158.873 -0.285013 -4.14922 0
M  V30 1703 H 157.45 1.40881 -3.45264 0
M  V30 1704 N 159.635 1.57281 -0.100228 0
M  V30 1705 C 160.875 1.96419 0.56558 0
M  V30 1706 C 161.239 0.981265 1.65031 0
M  V30 1707 O 162.44 1.26133 2.37369 0
M  V30 1708 C 160.711 3.39996 1.10171 0
M  V30 1709 S 162.27 4.01134 1.77867 0
M  V30 1710 H 159.088 0.68667 0.184406 0
M  V30 1711 H 161.69 1.94662 -0.180851 0
M  V30 1712 H 160.394 4.09296 0.300803 0
M  V30 1713 H 159.925 3.45361 1.88385 0
M  V30 1714 H 161.94 3.90358 3.06326 0
M  V30 1715 N 161.113 -0.173488 1.56642 0
M  V30 1716 C 162.359 -0.887108 1.83035 0
M  V30 1717 C 162.714 -1.79965 0.680461 0
M  V30 1718 O 162.007 -1.88854 -0.323225 0
M  V30 1719 C 162.201 -1.72069 3.13252 0
M  V30 1720 C 162.03 -0.89035 4.40798 0
M  V30 1721 C 160.8 -0.566282 5.02117 0
M  V30 1722 C 162.998 -0.232921 5.13772 0
M  V30 1723 N 160.98 0.280427 6.13259 0
M  V30 1724 C 162.351 0.475046 6.18177 0
M  V30 1725 C 164.406 -0.150863 4.97671 0
M  V30 1726 C 163.109 1.25729 7.08227 0
M  V30 1727 C 165.135 0.618039 5.88162 0
M  V30 1728 C 164.497 1.31438 6.92029 0
M  V30 1729 H 160.596 -0.303303 0.720785 0
M  V30 1730 H 163.18 -0.154244 1.94088 0
M  V30 1731 H 161.351 -2.42499 3.03395 0
M  V30 1732 H 163.083 -2.37545 3.2765 0
M  V30 1733 H 159.838 -0.895852 4.6505 0
M  V30 1734 H 160.262 0.694027 6.73433 0
M  V30 1735 H 164.904 -0.674868 4.17379 0
M  V30 1736 H 162.622 1.79265 7.87966 0
M  V30 1737 H 166.208 0.683173 5.77775 0
M  V30 1738 H 165.088 1.89981 7.6084 0
M  V30 1739 N 162.591 -1.51276 -0.441967 0
M  V30 1740 C 163.541 -1.6864 -1.53442 0
M  V30 1741 C 164.525 -0.540444 -1.51552 0
M  V30 1742 O 165.717 -0.796157 -1.58083 0
M  V30 1743 C 162.846 -1.8106 -2.91672 0
M  V30 1744 C 161.932 -3.01424 -2.98336 0
M  V30 1745 N 162.323 -4.2467 -2.74752 0
M  V30 1746 C 160.621 -3.00584 -3.29493 0
M  V30 1747 C 161.322 -5.05891 -2.87139 0
M  V30 1748 N 160.298 -4.40442 -3.18609 0
M  V30 1749 H 164.1 -2.61598 -1.33954 0
M  V30 1750 H 161.614 -1.4886 -0.6492 0
M  V30 1751 H 163.611 -1.91609 -3.70259 0
M  V30 1752 H 162.271 -0.892795 -3.12185 0
M  V30 1753 H 163.282 -4.53691 -2.49769 0
M  V30 1754 H 159.959 -2.18417 -3.55809 0
M  V30 1755 H 161.349 -6.13983 -2.72899 0
M  V30 1756 N 164.069 0.697108 -1.41344 0
M  V30 1757 C 165.294 1.49096 -1.44171 0
M  V30 1758 C 165.719 1.88038 -0.0481568 0
M  V30 1759 O 165.077 1.54525 0.948243 0
M  V30 1760 C 165.125 2.73088 -2.3549 0
M  V30 1761 O 164.229 3.70514 -1.81088 0
M  V30 1762 H 163.57 0.448801 -0.489361 0
M  V30 1763 H 166.1 0.856992 -1.85787 0
M  V30 1764 H 166.11 3.21413 -2.51312 0
M  V30 1765 H 164.785 2.44081 -3.36745 0
M  V30 1766 H 163.362 3.29441 -1.74708 0
M  V30 1767 N 165.547 1.27147 0.931209 0
M  V30 1768 C 166.772 1.16191 1.71797 0
M  V30 1769 C 167.197 -0.278004 1.86034 0
M  V30 1770 O 166.555 -1.20137 1.35782 0
M  V30 1771 C 166.603 1.84673 3.09723 0
M  V30 1772 O 165.707 1.14231 3.96264 0
M  V30 1773 H 165.048 0.404303 0.526721 0
M  V30 1774 H 167.578 1.68152 1.1656 0
M  V30 1775 H 167.588 1.91893 3.60057 0
M  V30 1776 H 166.263 2.89421 2.98677 0
M  V30 1777 H 164.84 1.15056 3.54706 0
M  V30 1778 N 167.025 -1.13721 1.09112 0
M  V30 1779 C 168.271 -1.85198 0.826414 0
M  V30 1780 C 168.604 -1.83129 -0.646319 0
M  V30 1781 O 167.879 -1.2671 -1.47563 0
M  V30 1782 C 168.162 -3.33507 1.35812 0
M  V30 1783 C 168.015 -3.44108 2.89672 0
M  V30 1784 C 169.334 -4.28838 0.989256 0
M  V30 1785 H 166.453 -0.67243 0.301675 0
M  V30 1786 H 169.095 -1.33499 1.35197 0
M  V30 1787 H 167.245 -3.77666 0.911082 0
M  V30 1788 H 168.917 -3.08684 3.428 0
M  V30 1789 H 167.16 -2.85087 3.26967 0
M  V30 1790 H 167.831 -4.48388 3.21951 0
M  V30 1791 H 170.307 -3.92734 1.37475 0
M  V30 1792 H 169.183 -5.31051 1.38838 0
M  V30 1793 H 169.444 -4.4198 -0.102924 0
M  V30 1794 N 168.503 -0.877838 -1.30888 0
M  V30 1795 C 169.466 -0.344265 -2.266 0
M  V30 1796 C 170.466 0.50922 -1.52524 0
M  V30 1797 O 171.656 0.317398 -1.71284 0
M  V30 1798 C 168.788 0.510198 -3.37061 0
M  V30 1799 H 169.981 -1.1893 -2.7531 0
M  V30 1800 H 167.534 -0.654088 -1.41956 0
M  V30 1801 H 168.269 1.37612 -2.93655 0
M  V30 1802 H 168.054 -0.101047 -3.9197 0
M  V30 1803 H 169.544 0.875537 -4.08319 0
M  V30 1804 N 169.982 1.44106 -0.638065 0
M  V30 1805 C 170.912 2.33448 0.0494287 0
M  V30 1806 C 171.893 1.48606 0.827672 0
M  V30 1807 O 173.078 1.77308 0.792173 0
M  V30 1808 C 170.208 3.31771 1.02691 0
M  V30 1809 C 169.162 4.26485 0.359823 0
M  V30 1810 C 168.488 5.14729 1.44769 0
M  V30 1811 C 169.788 5.17056 -0.738296 0
M  V30 1812 H 171.482 2.91183 -0.696636 0
M  V30 1813 H 169.028 1.40014 -0.336456 0
M  V30 1814 H 170.981 3.93161 1.51666 0
M  V30 1815 H 169.705 2.7226 1.80395 0
M  V30 1816 H 168.364 3.66437 -0.10934 0
M  V30 1817 H 168.012 4.51566 2.21578 0
M  V30 1818 H 167.712 5.78913 1.00668 0
M  V30 1819 H 169.236 5.78991 1.93911 0
M  V30 1820 H 170.65 5.72342 -0.331354 0
M  V30 1821 H 169.047 5.89879 -1.10286 0
M  V30 1822 H 170.117 4.57652 -1.60258 0
M  V30 1823 N 171.46 0.379036 1.52974 0
M  V30 1824 C 172.37 -0.468639 2.29872 0
M  V30 1825 C 173.386 -1.08067 1.36373 0
M  V30 1826 O 174.562 -1.08871 1.69438 0
M  V30 1827 C 171.627 -1.58594 3.083 0
M  V30 1828 C 170.688 -1.00007 4.17489 0
M  V30 1829 C 169.921 -2.06413 4.92168 0
M  V30 1830 O 170.144 -3.27751 4.66835 0
M  V30 1831 O 169.078 -1.68717 5.7777 0
M  V30 1832 H 172.904 0.157508 3.03291 0
M  V30 1833 H 170.489 0.143035 1.48714 0
M  V30 1834 H 172.371 -2.23525 3.57232 0
M  V30 1835 H 171.046 -2.19724 2.37703 0
M  V30 1836 H 169.953 -0.314299 3.72777 0
M  V30 1837 H 171.286 -0.433135 4.90291 0
M  V30 1838 N 172.938 -1.57226 0.108567 0
M  V30 1839 C 173.87 -2.11809 -0.875752 0
M  V30 1840 C 174.883 -1.05839 -1.23701 0
M  V30 1841 O 176.072 -1.33245 -1.18778 0
M  V30 1842 C 173.172 -2.59411 -2.18081 0
M  V30 1843 C 172.345 -3.89364 -1.99284 0
M  V30 1844 C 171.404 -4.22672 -3.13424 0
M  V30 1845 O 170.43 -4.91668 -2.86795 0
M  V30 1846 N 171.632 -3.79154 -4.3957 0
M  V30 1847 H 174.397 -2.9689 -0.409477 0
M  V30 1848 H 171.958 -1.61721 -0.076158 0
M  V30 1849 H 173.95 -2.7873 -2.93414 0
M  V30 1850 H 172.52 -1.79268 -2.5609 0
M  V30 1851 H 171.74 -3.79059 -1.08203 0
M  V30 1852 H 173.028 -4.74358 -1.84017 0
M  V30 1853 H 172.426 -3.23486 -4.64083 0
M  V30 1854 H 170.983 -4.03602 -5.11809 0
M  V30 1855 N 174.416 0.165178 -1.56732 0
M  V30 1856 C 175.641 0.900253 -1.86843 0
M  V30 1857 C 176.066 1.74766 -0.695596 0
M  V30 1858 O 175.424 1.77786 0.35522 0
M  V30 1859 C 175.472 1.74777 -3.15413 0
M  V30 1860 O 174.576 2.85007 -2.98068 0
M  V30 1861 H 173.917 0.251832 -0.614391 0
M  V30 1862 H 176.447 0.161468 -2.03962 0
M  V30 1863 H 176.457 2.14646 -3.46974 0
M  V30 1864 H 175.132 1.12537 -4.00385 0
M  V30 1865 H 173.709 2.48676 -2.77875 0
M  V30 1866 N 175.894 1.51508 0.433938 0
M  V30 1867 C 177.143 1.63578 1.18005 0
M  V30 1868 C 177.456 0.359514 1.92268 0
M  V30 1869 O 178.662 0.359632 2.69108 0
M  V30 1870 C 177.118 2.88901 2.14626 0
M  V30 1871 C 176.726 4.23544 1.45995 0
M  V30 1872 C 178.47 3.10328 2.89649 0
M  V30 1873 C 176.377 5.40014 2.4112 0
M  V30 1874 H 175.307 0.609277 0.444182 0
M  V30 1875 H 177.958 1.77978 0.446773 0
M  V30 1876 H 176.34 2.68142 2.91403 0
M  V30 1877 H 177.514 4.54696 0.747532 0
M  V30 1878 H 175.829 4.08021 0.831115 0
M  V30 1879 H 178.426 3.94518 3.60915 0
M  V30 1880 H 178.769 2.23544 3.51189 0
M  V30 1881 H 179.302 3.31443 2.19978 0
M  V30 1882 H 176.041 6.29068 1.84264 0
M  V30 1883 H 175.561 5.13233 3.10406 0
M  V30 1884 H 177.24 5.72099 3.02177 0
M  V30 1885 N 177.372 -0.689602 1.41712 0
M  V30 1886 C 178.282 -1.83314 1.46401 0
M  V30 1887 C 179.298 -1.7036 0.35405 0
M  V30 1888 O 180.474 -1.92171 0.602692 0
M  V30 1889 C 177.539 -3.19344 1.34982 0
M  V30 1890 C 176.6 -3.44363 2.56344 0
M  V30 1891 C 175.833 -4.73904 2.45461 0
M  V30 1892 O 176.056 -5.508 1.48241 0
M  V30 1893 O 174.99 -4.99839 3.35328 0
M  V30 1894 H 178.816 -1.82314 2.42889 0
M  V30 1895 H 176.401 -0.843438 1.23315 0
M  V30 1896 H 178.283 -4.00547 1.3092 0
M  V30 1897 H 176.958 -3.21014 0.41612 0
M  V30 1898 H 175.865 -2.63067 2.65982 0
M  V30 1899 H 177.198 -3.47512 3.48563 0
M  V30 1900 N 178.85 -1.27639 -0.924453 0
M  V30 1901 C 180.097 -1.14167 -1.67249 0
M  V30 1902 C 180.425 0.311863 -1.91984 0
M  V30 1903 O 179.68 1.24425 -1.51053 0
M  V30 1904 C 179.979 -1.87407 -3.04325 0
M  V30 1905 C 179.645 -3.37249 -2.99289 0
M  V30 1906 C 178.307 -3.7812 -2.97622 0
M  V30 1907 C 180.659 -4.32845 -2.90336 0
M  V30 1908 C 177.987 -5.12944 -2.8479 0
M  V30 1909 C 180.339 -5.6773 -2.79045 0
M  V30 1910 C 179.003 -6.07889 -2.7573 0
M  V30 1911 H 178.273 -0.417766 -0.612007 0
M  V30 1912 H 180.92 -1.58286 -1.07786 0
M  V30 1913 H 179.225 -1.35805 -3.67511 0
M  V30 1914 H 180.922 -1.74408 -3.61086 0
M  V30 1915 H 177.512 -3.04748 -3.01374 0
M  V30 1916 H 181.696 -4.02239 -2.90719 0
M  V30 1917 H 176.952 -5.432 -2.80612 0
M  V30 1918 H 181.126 -6.41472 -2.71083 0
M  V30 1919 H 178.753 -7.12314 -2.65544 0
M  V30 1920 N 180.328 1.1314 -1.09713 0
M  V30 1921 C 181.577 1.83838 -0.829851 0
M  V30 1922 C 181.89 1.84599 0.646728 0
M  V30 1923 O 183.096 2.51218 1.02965 0
M  V30 1924 C 181.552 3.30069 -1.43466 0
M  V30 1925 C 181.16 3.37688 -2.94399 0
M  V30 1926 C 182.904 4.05788 -1.24645 0
M  V30 1927 C 180.811 4.78209 -3.47952 0
M  V30 1928 H 179.741 0.68877 -0.306777 0
M  V30 1929 H 182.392 1.27448 -1.3202 0
M  V30 1930 H 180.774 3.8628 -0.871996 0
M  V30 1931 H 181.948 2.91456 -3.56918 0
M  V30 1932 H 180.263 2.75436 -3.12289 0
M  V30 1933 H 182.86 5.09535 -1.62107 0
M  V30 1934 H 183.203 4.15878 -0.187357 0
M  V30 1935 H 183.736 3.55915 -1.77678 0
M  V30 1936 H 180.475 4.73311 -4.53495 0
M  V30 1937 H 179.995 5.24924 -2.90198 0
M  V30 1938 H 181.674 5.47133 -3.45332 0
M  V30 1939 N 181.806 0.884767 1.30421 0
M  V30 1940 C 183.222 0.57874 1.48737 0
M  V30 1941 C 183.422 -0.883567 1.81095 0
M  V30 1942 O 182.478 -1.6648 1.89844 0
M  V30 1943 C 183.791 1.49171 2.61091 0
M  V30 1944 C 185.339 1.49532 2.74971 0
M  V30 1945 C 185.814 2.39421 3.90438 0
M  V30 1946 N 187.305 2.37383 3.97748 0
M  V30 1947 C 188.04 3.03647 4.86401 0
M  V30 1948 N 187.536 3.79136 5.79852 0
M  V30 1949 N 189.329 2.9288 4.79768 0
M  V30 1950 H 181.48 1.83075 1.0769 0
M  V30 1951 H 183.743 0.783637 0.533495 0
M  V30 1952 H 183.449 2.53291 2.44001 0
M  V30 1953 H 183.323 1.20113 3.57565 0
M  V30 1954 H 185.71 0.46163 2.91467 0
M  V30 1955 H 185.791 1.8262 1.79119 0
M  V30 1956 H 185.435 3.42874 3.74699 0
M  V30 1957 H 185.365 2.03649 4.85628 0
M  V30 1958 H 187.856 1.82525 3.30897 0
M  V30 1959 H 188.169 4.26789 6.4426 0
M  V30 1960 H 186.514 3.83243 5.79784 0
M  V30 1961 H 189.705 2.33433 4.05742 0
M  V30 1962 H 189.878 3.448 5.4865 0
M  V30 1963 N 183.284 -1.43765 0.645699 0
M  V30 1964 C 184.561 -1.9541 0.0862963 0
M  V30 1965 C 184.941 -1.58725 -1.39175 0
M  V30 1966 O 184.289 -0.868581 -2.11348 0
M  V30 1967 C 184.499 -3.47488 0.324565 0
M  V30 1968 C 185.847 -4.24001 0.225497 0
M  V30 1969 O 186.871 -3.55274 0.256715 0
M  V30 1970 O 185.73 -5.46313 0.142801 0
M  V30 1971 H 182.824 -0.826882 -0.0139483 0
M  V30 1972 H 185.37 -1.53743 0.718415 0
M  V30 1973 H 184.142 -3.67289 1.3496 0
M  V30 1974 H 183.765 -3.96135 -0.340987 0
M  V30 1975 N 184.763 -0.387143 -1.52771 0
M  V30 1976 C 185.988 0.198407 -2.06449 0
M  V30 1977 C 186.413 1.39918 -1.25716 0
M  V30 1978 O 185.771 1.79099 -0.281657 0
M  V30 1979 C 185.819 0.548893 -3.56398 0
M  V30 1980 O 184.923 1.64315 -3.78252 0
M  V30 1981 H 184.264 0.0237731 -0.663574 0
M  V30 1982 H 186.794 -0.553989 -1.96957 0
M  V30 1983 H 186.804 0.813812 -3.99801 0
M  V30 1984 H 185.479 -0.329005 -4.14597 0
M  V30 1985 H 184.056 1.37211 -3.46738 0
M  V30 1986 N 186.241 1.57166 -0.116904 0
M  V30 1987 C 187.171 2.18222 0.830759 0
M  V30 1988 C 188.152 1.12167 1.27877 0
M  V30 1989 O 189.337 1.40394 1.34176 0
M  V30 1990 C 186.467 2.77996 2.08172 0
M  V30 1991 C 185.421 3.89614 1.77157 0
M  V30 1992 C 184.747 4.36187 3.09265 0
M  V30 1993 C 186.047 5.1181 1.04151 0
M  V30 1994 H 187.741 2.97664 0.321992 0
M  V30 1995 H 185.287 1.4318 0.153434 0
M  V30 1996 H 187.24 3.19366 2.74924 0
M  V30 1997 H 185.964 1.9584 2.6137 0
M  V30 1998 H 184.623 3.48816 1.12796 0
M  V30 1999 H 184.271 3.50893 3.60393 0
M  V30 2000 H 183.971 5.11455 2.89288 0
M  V30 2001 H 185.495 4.80207 3.77139 0
M  V30 2002 H 186.909 5.50214 1.61052 0
M  V30 2003 H 185.306 5.92648 0.942762 0
M  V30 2004 H 186.376 4.84892 0.0279022 0
M  V30 2005 N 187.719 -0.156864 1.56817 0
M  V30 2006 C 188.968 -0.869504 1.81996 0
M  V30 2007 C 189.281 -1.82777 0.696545 0
M  V30 2008 O 190.487 -2.58384 0.833658 0
M  V30 2009 C 188.943 -1.59679 3.22538 0
M  V30 2010 C 188.551 -0.681431 4.42787 0
M  V30 2011 C 190.295 -2.2968 3.56997 0
M  V30 2012 C 188.202 -1.40978 5.74351 0
M  V30 2013 H 187.132 -0.328438 0.678708 0
M  V30 2014 H 189.783 -0.1223 1.83092 0
M  V30 2015 H 188.165 -2.38927 3.158 0
M  V30 2016 H 189.339 0.0751166 4.60739 0
M  V30 2017 H 187.654 -0.0903431 4.16302 0
M  V30 2018 H 190.251 -2.84794 4.52544 0
M  V30 2019 H 190.594 -3.05707 2.82576 0
M  V30 2020 H 191.127 -1.57361 3.65352 0
M  V30 2021 H 187.866 -0.691561 6.51842 0
M  V30 2022 H 187.386 -2.13929 5.60352 0
M  V30 2023 H 189.065 -1.95337 6.16808 0
M  V30 2024 N 189.197 -1.51736 -0.425897 0
M  V30 2025 C 190.422 -1.69082 -1.20108 0
M  V30 2026 C 190.847 -0.392398 -1.83962 0
M  V30 2027 O 190.205 0.64858 -1.69302 0
M  V30 2028 C 190.253 -2.81604 -2.25237 0
M  V30 2029 O 189.357 -2.46004 -3.30992 0
M  V30 2030 H 188.698 -0.563408 -0.35138 0
M  V30 2031 H 191.228 -1.98358 -0.501512 0
M  V30 2032 H 191.238 -3.06025 -2.69838 0
M  V30 2033 H 189.913 -3.75817 -1.78142 0
M  V30 2034 H 188.49 -2.32195 -2.91787 0
M  V30 2035 N 190.675 0.682077 -1.42076 0
M  V30 2036 C 191.924 1.43786 -1.41451 0
M  V30 2037 C 192.237 1.95574 -0.0317074 0
M  V30 2038 O 193.443 2.71326 0.0971462 0
M  V30 2039 C 191.899 2.60071 -2.48779 0
M  V30 2040 C 191.507 2.15013 -3.93031 0
M  V30 2041 C 193.251 3.37626 -2.57311 0
M  V30 2042 C 191.158 3.28336 -4.91883 0
M  V30 2043 H 190.088 0.540143 -0.526082 0
M  V30 2044 H 192.739 0.739157 -1.67955 0
M  V30 2045 H 191.121 3.32275 -2.15429 0
M  V30 2046 H 192.295 1.5001 -4.35699 0
M  V30 2047 H 190.61 1.50416 -3.88284 0
M  V30 2048 H 193.207 4.22012 -3.28345 0
M  V30 2049 H 193.55 3.83727 -1.61429 0
M  V30 2050 H 194.083 2.72488 -2.89819 0
M  V30 2051 H 190.822 2.87234 -5.89217 0
M  V30 2052 H 190.342 3.92145 -4.53853 0
M  V30 2053 H 192.021 3.93913 -5.13265 0
M  V30 2054 N 192.153 1.28127 0.917671 0
M  V30 2055 C 193.569 1.05749 1.19538 0
M  V30 2056 C 193.769 -0.202633 2.00479 0
M  V30 2057 O 192.825 -0.905382 2.3571 0
M  V30 2058 C 194.138 2.30273 1.93378 0
M  V30 2059 C 195.686 2.35412 2.06277 0
M  V30 2060 C 196.161 3.59692 2.83524 0
M  V30 2061 N 197.652 3.60309 2.91087 0
M  V30 2062 C 198.387 4.53147 3.51348 0
M  V30 2063 N 197.883 5.563 4.12919 0
M  V30 2064 N 199.676 4.40751 3.48849 0
M  V30 2065 H 191.827 2.09024 0.377184 0
M  V30 2066 H 194.09 0.919798 0.22951 0
M  V30 2067 H 193.796 3.22055 1.41328 0
M  V30 2068 H 193.67 2.36378 2.93947 0
M  V30 2069 H 196.057 1.4413 2.57508 0
M  V30 2070 H 196.138 2.33304 1.04895 0
M  V30 2071 H 195.782 4.51316 2.32973 0
M  V30 2072 H 195.712 3.59054 3.85211 0
M  V30 2073 H 198.203 2.85714 2.47338 0
M  V30 2074 H 198.516 6.2329 4.56869 0
M  V30 2075 H 196.861 5.60131 4.11435 0
M  V30 2076 H 200.052 3.59367 2.99955 0
M  V30 2077 H 200.225 5.13291 3.9552 0
M  V30 2078 N 193.631 -1.12557 1.10312 0
M  V30 2079 C 194.908 -1.80363 0.756878 0
M  V30 2080 C 195.288 -1.97067 -0.756824 0
M  V30 2081 O 194.636 -1.54601 -1.68259 0
M  V30 2082 C 194.846 -3.14812 1.50647 0
M  V30 2083 C 196.194 -3.90029 1.67817 0
M  V30 2084 O 197.218 -3.24464 1.46974 0
M  V30 2085 O 196.077 -5.07652 2.02365 0
M  V30 2086 H 193.171 -0.780667 0.272926 0
M  V30 2087 H 195.717 -1.19404 1.20586 0
M  V30 2088 H 194.489 -2.97936 2.53672 0
M  V30 2089 H 194.112 -3.83478 1.05026 0
M  V30 2090 N 195.109 -0.891671 -1.2995 0
M  V30 2091 C 196.019 -0.367691 -2.31701 0
M  V30 2092 C 197.035 0.533486 -1.6562 0
M  V30 2093 O 198.211 0.424997 -1.96865 0
M  V30 2094 C 195.276 0.403406 -3.44345 0
M  V30 2095 C 194.337 -0.528328 -4.26037 0
M  V30 2096 C 193.57 0.206063 -5.33302 0
M  V30 2097 O 193.793 1.43119 -5.52153 0
M  V30 2098 O 192.727 -0.447281 -6.00236 0
M  V30 2099 H 196.553 -1.21163 -2.78484 0
M  V30 2100 H 194.138 -0.655725 -1.34241 0
M  V30 2101 H 196.02 0.839753 -4.12948 0
M  V30 2102 H 194.695 1.22354 -2.99685 0
M  V30 2103 H 193.602 -1.01362 -3.60106 0
M  V30 2104 H 194.935 -1.31465 -4.74318 0
M  V30 2105 N 196.587 1.43421 -0.653314 0
M  V30 2106 C 197.534 2.30768 0.0382271 0
M  V30 2107 C 198.504 1.44755 0.814576 0
M  V30 2108 O 199.689 1.73624 0.791162 0
M  V30 2109 C 196.829 3.30336 0.998599 0
M  V30 2110 C 195.942 4.31448 0.218342 0
M  V30 2111 C 195.077 5.18098 1.17252 0
M  V30 2112 C 194.116 6.10902 0.382702 0
M  V30 2113 N 193.253 6.90176 1.28848 0
M  V30 2114 H 198.093 2.89357 -0.712511 0
M  V30 2115 H 195.63 1.42548 -0.363128 0
M  V30 2116 H 197.588 3.86572 1.56901 0
M  V30 2117 H 196.218 2.73397 1.71621 0
M  V30 2118 H 195.27 3.77506 -0.46836 0
M  V30 2119 H 196.582 4.97227 -0.395812 0
M  V30 2120 H 195.736 5.7896 1.81356 0
M  V30 2121 H 194.475 4.52444 1.82058 0
M  V30 2122 H 193.48 5.49128 -0.27169 0
M  V30 2123 H 194.705 6.78598 -0.260957 0
M  V30 2124 H 192.651 6.27171 1.92334 0
M  V30 2125 H 192.568 7.52478 0.728887 0
M  V30 2126 H 193.836 7.55543 1.91766 0
M  V30 2127 N 198.065 0.39524 1.52563 0
M  V30 2128 C 199.342 -0.242908 1.94086 0
M  V30 2129 C 199.722 -1.63841 1.33114 0
M  V30 2130 O 199.07 -2.22928 0.501529 0
M  V30 2131 C 199.28 -0.26327 3.48006 0
M  V30 2132 C 200.628 -0.489354 4.21771 0
M  V30 2133 O 201.652 -0.343226 3.54543 0
M  V30 2134 O 200.511 -0.776169 5.4096 0
M  V30 2135 H 197.605 -0.152536 0.812811 0
M  V30 2136 H 200.151 0.450178 1.6362 0
M  V30 2137 H 198.923 0.713985 3.84731 0
M  V30 2138 H 198.546 -1.00103 3.84792 0
M  V30 2139 N 199.544 -1.57102 0.125237 0
M  V30 2140 C 200.792 -1.95021 -0.530198 0
M  V30 2141 C 201.113 -1.00982 -1.66816 0
M  V30 2142 O 200.383 -0.0672693 -1.95784 0
M  V30 2143 H 198.963 -0.720046 -0.198853 0
M  V30 2144 H 201.625 -1.93916 0.19564 0
M  V30 2145 H 200.721 -2.98211 -0.920681 0
M  V30 2146 N 201.022 0.148545 -1.56898 0
M  V30 2147 C 202.271 0.85984 -1.82454 0
M  V30 2148 C 202.584 1.82406 -0.706229 0
M  V30 2149 O 203.79 2.57938 -0.847349 0
M  V30 2150 C 202.246 1.57967 -3.2338 0
M  V30 2151 C 201.854 0.65794 -4.43142 0
M  V30 2152 C 203.598 2.27784 -3.58211 0
M  V30 2153 C 201.505 1.3793 -5.75091 0
M  V30 2154 H 200.435 0.324834 -0.68044 0
M  V30 2155 H 203.086 0.112588 -1.83154 0
M  V30 2156 H 201.468 2.37249 -3.17063 0
M  V30 2157 H 202.642 -0.0995497 -4.60692 0
M  V30 2158 H 200.957 0.0682643 -4.16344 0
M  V30 2159 H 203.554 2.8239 -4.54048 0
M  V30 2160 H 203.897 3.04204 -2.84193 0
M  V30 2161 H 204.43 1.55421 -3.66182 0
M  V30 2162 H 201.169 0.656982 -6.52199 0
M  V30 2163 H 200.689 2.10954 -5.61479 0
M  V30 2164 H 202.368 1.92063 -6.17835 0
M  V30 2165 N 202.5 1.5196 0.417844 0
M  V30 2166 C 203.448 1.75278 1.52907 0
M  V30 2167 C 204.442 0.619611 1.57662 0
M  V30 2168 O 205.648 0.801457 1.61173 0
M  V30 2169 H 202.023 0.554141 0.508362 0
M  V30 2170 H 203.994 2.68389 1.30422 0
M  V30 2171 C 202.743 1.91262 2.90369 0
M  V30 2172 H 202.066 2.77872 2.8745 0
M  V30 2173 H 203.506 2.11581 3.67436 0
M  V30 2174 C 201.965 0.677431 3.30019 0
M  V30 2175 O 202.495 -0.158799 4.01386 0
M  V30 2176 N 200.701 0.515851 2.85985 0
M  V30 2177 H 200.248 1.19744 2.28077 0
M  V30 2178 H 200.206 -0.309315 3.12875 0
M  V30 2179 N 203.978 -0.674533 1.42435 0
M  V30 2180 C 205.394 -0.98769 1.25367 0
M  V30 2181 C 205.594 -2.00879 0.158044 0
M  V30 2182 O 204.65 -2.48075 -0.470633 0
M  V30 2183 C 205.963 -1.49224 2.6106 0
M  V30 2184 C 207.511 -1.61 2.68417 0
M  V30 2185 C 207.986 -2.14852 4.04478 0
M  V30 2186 N 209.477 -2.22185 4.06434 0
M  V30 2187 C 210.212 -2.64928 5.08528 0
M  V30 2188 N 209.708 -3.07121 6.21006 0
M  V30 2189 N 211.501 -2.64679 4.95885 0
M  V30 2190 H 203.652 0.00152503 2.124 0
M  V30 2191 H 205.915 -0.0618434 0.945981 0
M  V30 2192 H 205.621 -0.816453 3.42092 0
M  V30 2193 H 205.495 -2.47094 2.84999 0
M  V30 2194 H 207.882 -2.27686 1.87732 0
M  V30 2195 H 207.963 -0.616195 2.48267 0
M  V30 2196 H 207.607 -1.48775 4.85622 0
M  V30 2197 H 207.537 -3.15024 4.2198 0
M  V30 2198 H 210.028 -1.92435 3.25234 0
M  V30 2199 H 210.341 -3.38423 6.94759 0
M  V30 2200 H 208.686 -3.04978 6.24511 0
M  V30 2201 H 211.877 -2.31078 4.07088 0
M  V30 2202 H 212.05 -2.9767 5.75584 0
M  V30 2203 N 205.456 -1.28612 -0.910864 0
M  V30 2204 C 206.696 -1.1719 -1.67469 0
M  V30 2205 C 207.06 0.274441 -1.90028 0
M  V30 2206 O 208.261 0.511425 -2.6389 0
M  V30 2207 C 206.532 -1.95137 -2.99427 0
M  V30 2208 S 208.091 -2.00122 -3.90508 0
M  V30 2209 H 204.909 -0.41806 -0.575106 0
M  V30 2210 H 207.511 -1.6275 -1.08317 0
M  V30 2211 H 206.215 -2.99381 -2.80712 0
M  V30 2212 H 205.746 -1.50137 -3.63624 0
M  V30 2213 H 207.761 -1.10981 -4.8363 0
M  V30 2214 N 206.934 1.1197 -1.10907 0
M  V30 2215 C 207.864 2.19928 -0.784473 0
M  V30 2216 C 208.845 1.6833 0.244726 0
M  V30 2217 O 210.03 1.93892 0.109418 0
M  V30 2218 C 207.16 3.46597 -0.220827 0
M  V30 2219 C 206.114 4.11376 -1.18127 0
M  V30 2220 C 205.44 5.32554 -0.478594 0
M  V30 2221 C 206.74 4.56945 -2.52979 0
M  V30 2222 H 208.434 2.47337 -1.68715 0
M  V30 2223 H 205.98 1.18879 -0.812642 0
M  V30 2224 H 207.933 4.21396 0.0184278 0
M  V30 2225 H 206.657 3.1863 0.717113 0
M  V30 2226 H 205.316 3.38564 -1.40606 0
M  V30 2227 H 204.964 5.00856 0.463976 0
M  V30 2228 H 204.664 5.76844 -1.11912 0
M  V30 2229 H 206.188 6.10096 -0.248 0
M  V30 2230 H 207.602 5.23093 -2.3462 0
M  V30 2231 H 205.999 5.1203 -3.12962 0
M  V30 2232 H 207.069 3.70676 -3.12614 0
M  V30 2233 N 208.412 0.89855 1.29475 0
M  V30 2234 C 209.823 0.572537 1.77705 0
M  V30 2235 C 210.174 -0.911778 1.73727 0
M  V30 2236 O 209.299 -1.71288 1.32247 0
M  V30 2237 C 209.894 1.03252 3.22683 0
M  V30 2238 C 208.453 0.757687 3.68695 0
M  V30 2239 C 207.6 1.20787 2.49612 0
M  V30 2240 H 210.551 1.08139 1.16153 0
M  V30 2241 H 210.572 0.367307 3.78723 0
M  V30 2242 H 210.084 2.11285 3.25546 0
M  V30 2243 H 208.185 -0.310079 3.71308 0
M  V30 2244 H 208.298 1.35476 4.59547 0
M  V30 2245 H 206.662 0.626888 2.46865 0
M  V30 2246 H 207.445 2.29622 2.55203 0
M  V30 2247 N 209.89 -1.43072 0.660911 0
M  V30 2248 C 211.167 -1.95307 0.107017 0
M  V30 2249 C 211.547 -1.60192 -1.37484 0
M  V30 2250 O 210.895 -0.890949 -2.10415 0
M  V30 2251 C 211.105 -3.47124 0.361402 0
M  V30 2252 C 212.453 -4.23738 0.270455 0
M  V30 2253 O 213.477 -3.54981 0.294382 0
M  V30 2254 O 212.336 -5.46131 0.200737 0
M  V30 2255 H 209.43 -0.826984 -0.00517729 0
M  V30 2256 H 211.976 -1.52972 0.734681 0
M  V30 2257 H 210.748 -3.65837 1.38848 0
M  V30 2258 H 210.371 -3.96475 -0.298953 0
M  V30 2259 N 211.368 -0.403325 -1.52352 0
M  V30 2260 C 212.616 0.174003 -2.0135 0
M  V30 2261 C 212.937 1.46139 -1.29106 0
M  V30 2262 O 212.207 1.91448 -0.415253 0
M  V30 2263 H 210.787 0.0672911 -0.743963 0
M  V30 2264 H 213.449 -0.538235 -1.87321 0
M  V30 2265 H 212.545 0.374254 -3.09848 0
M  V30 2266 N 212.846 1.57033 -0.133567 0
M  V30 2267 C 213.778 2.13176 0.841944 0
M  V30 2268 C 214.791 1.07794 1.22001 0
M  V30 2269 O 215.98 1.35117 1.16643 0
M  V30 2270 C 213.08 2.62847 2.13926 0
M  V30 2271 C 212.253 3.92486 1.93064 0
M  V30 2272 C 211.312 4.27605 3.0666 0
M  V30 2273 O 210.338 4.96168 2.78937 0
M  V30 2274 N 211.54 3.861 4.33483 0
M  V30 2275 H 214.305 2.97503 0.362192 0
M  V30 2276 H 211.866 1.61821 0.05042 0
M  V30 2277 H 213.858 2.83363 2.88942 0
M  V30 2278 H 212.428 1.83319 2.53205 0
M  V30 2279 H 211.648 3.80732 1.02159 0
M  V30 2280 H 212.936 4.77225 1.76447 0
M  V30 2281 H 212.334 3.30828 4.58878 0
M  V30 2282 H 210.891 4.11694 5.05323 0
M  V30 2283 N 214.325 -0.140222 1.56975 0
M  V30 2284 C 215.55 -0.870414 1.88251 0
M  V30 2285 C 215.975 -1.73637 0.723312 0
M  V30 2286 O 215.333 -1.78329 -0.32689 0
M  V30 2287 C 215.381 -1.69737 3.18154 0
M  V30 2288 O 214.485 -2.80229 3.02565 0
M  V30 2289 H 213.826 -0.242025 0.61832 0
M  V30 2290 H 216.356 -0.128999 2.04193 0
M  V30 2291 H 216.366 -2.09099 3.50345 0
M  V30 2292 H 215.041 -1.06152 4.02125 0
M  V30 2293 H 213.618 -2.44224 2.81796 0
M  V30 2294 N 215.803 -1.52179 -0.40978 0
M  V30 2295 C 216.733 -1.78435 -1.5061 0
M  V30 2296 C 217.714 -0.635295 -1.57791 0
M  V30 2297 O 218.899 -0.880823 -1.73076 0
M  V30 2298 C 216.029 -1.93444 -2.88439 0
M  V30 2299 C 214.983 -3.09038 -2.96108 0
M  V30 2300 C 214.309 -3.09268 -4.36185 0
M  V30 2301 C 215.609 -4.48508 -2.67652 0
M  V30 2302 H 217.303 -2.70237 -1.28889 0
M  V30 2303 H 214.849 -1.30036 -0.618605 0
M  V30 2304 H 216.802 -2.10394 -3.65119 0
M  V30 2305 H 215.526 -0.983129 -3.11452 0
M  V30 2306 H 214.185 -2.91837 -2.21872 0
M  V30 2307 H 213.833 -2.11861 -4.56206 0
M  V30 2308 H 213.533 -3.86907 -4.42241 0
M  V30 2309 H 215.057 -3.28348 -5.14801 0
M  V30 2310 H 216.471 -4.65918 -3.34056 0
M  V30 2311 H 214.868 -5.28059 -2.85085 0
M  V30 2312 H 215.938 -4.56649 -1.63095 0
M  V30 2313 N 217.281 0.66697 -1.42791 0
M  V30 2314 C 218.692 1.2478 -1.38877 0
M  V30 2315 C 219.043 1.96012 -0.0859426 0
M  V30 2316 O 218.168 2.00463 0.815081 0
M  V30 2317 C 218.763 2.26938 -2.51564 0
M  V30 2318 C 217.322 2.80529 -2.50959 0
M  V30 2319 C 216.469 1.54965 -2.29959 0
M  V30 2320 H 219.42 0.459853 -1.51892 0
M  V30 2321 H 219.441 3.08834 -2.22265 0
M  V30 2322 H 218.953 1.75065 -3.46372 0
M  V30 2323 H 217.054 3.36502 -1.59991 0
M  V30 2324 H 217.167 3.29012 -3.48265 0
M  V30 2325 H 215.531 1.81817 -1.78366 0
M  V30 2326 H 216.314 1.05047 -3.26833 0
M  V30 2327 N 218.759 1.29093 0.90403 0
M  V30 2328 C 220.17 1.15186 1.46932 0
M  V30 2329 C 220.521 -0.254587 1.94541 0
M  V30 2330 O 219.646 -1.14972 1.83332 0
M  V30 2331 C 220.241 2.08492 2.67051 0
M  V30 2332 C 218.8 1.98621 3.19729 0
M  V30 2333 C 217.947 1.9967 1.92425 0
M  V30 2334 H 220.898 1.41641 0.715789 0
M  V30 2335 H 220.919 1.65461 3.42641 0
M  V30 2336 H 220.431 3.10847 2.3237 0
M  V30 2337 H 218.532 0.993389 3.59114 0
M  V30 2338 H 218.645 2.86068 3.8432 0
M  V30 2339 H 217.009 1.44208 2.09943 0
M  V30 2340 H 217.792 3.03721 1.60026 0
M  V30 2341 N 220.237 -1.11381 1.11499 0
M  V30 2342 C 221.485 -1.8277 0.862524 0
M  V30 2343 C 221.806 -1.85097 -0.613534 0
M  V30 2344 O 221.076 -1.32198 -1.4457 0
M  V30 2345 H 219.656 -0.676823 0.316101 0
M  V30 2346 H 222.318 -1.34816 1.4075 0
M  V30 2347 H 221.414 -2.86614 1.23527 0
M  V30 2348 N 221.715 -0.905404 -1.28997 0
M  V30 2349 C 223.131 -0.60233 -1.47798 0
M  V30 2350 C 223.331 0.854645 -1.82478 0
M  V30 2351 O 222.387 1.63439 -1.92468 0
M  V30 2352 C 223.7 -1.53306 -2.58685 0
M  V30 2353 C 225.248 -1.53887 -2.72558 0
M  V30 2354 C 225.723 -2.45602 -3.86579 0
M  V30 2355 N 227.214 -2.43681 -3.93921 0
M  V30 2356 C 227.949 -3.11347 -4.81509 0
M  V30 2357 N 227.445 -3.88313 -5.73746 0
M  V30 2358 N 229.238 -3.00476 -4.75048 0
M  V30 2359 H 221.389 -1.84765 -1.04764 0
M  V30 2360 H 223.652 -0.792025 -0.520961 0
M  V30 2361 H 223.358 -2.57141 -2.39941 0
M  V30 2362 H 223.232 -1.25787 -3.55609 0
M  V30 2363 H 225.619 -0.507941 -2.90696 0
M  V30 2364 H 225.7 -1.85447 -1.76191 0
M  V30 2365 H 225.344 -3.48792 -3.69197 0
M  V30 2366 H 225.274 -2.11349 -4.82327 0
M  V30 2367 H 227.765 -1.87767 -3.27951 0
M  V30 2368 H 228.078 -4.36985 -6.37389 0
M  V30 2369 H 226.423 -3.92419 -5.73614 0
M  V30 2370 H 229.614 -2.39858 -4.01977 0
M  V30 2371 H 229.787 -3.53485 -5.43095 0
M  V30 2372 N 223.193 1.4272 -0.668489 0
M  V30 2373 C 224.421 2.05966 -0.196348 0
M  V30 2374 C 224.836 1.50191 1.14403 0
M  V30 2375 O 224.193 0.639208 1.7094 0
M  V30 2376 C 224.244 3.61314 -0.115815 0
M  V30 2377 O 223.965 4.1502 -1.40322 0
M  V30 2378 C 225.466 4.41663 0.380579 0
M  V30 2379 H 222.686 0.663954 -0.0969829 0
M  V30 2380 H 225.23 1.82966 -0.913446 0
M  V30 2381 H 223.385 3.83448 0.551931 0
M  V30 2382 H 223.799 5.08832 -1.27243 0
M  V30 2383 H 225.273 5.5065 0.385848 0
M  V30 2384 H 225.75 4.15792 1.41471 0
M  V30 2385 H 226.356 4.24534 -0.255209 0
M  V30 2386 N 224.671 0.411399 1.52136 0
M  V30 2387 C 225.618 -0.412975 2.27075 0
M  V30 2388 C 226.588 -1.03912 1.29582 0
M  V30 2389 O 227.773 -1.06296 1.58448 0
M  V30 2390 C 224.913 -1.52247 3.09701 0
M  V30 2391 C 224.026 -0.917021 4.22155 0
M  V30 2392 C 223.161 -1.9994 4.92135 0
M  V30 2393 C 222.2 -1.37101 5.96548 0
M  V30 2394 N 221.337 -2.39364 6.60038 0
M  V30 2395 H 226.177 0.232499 2.97092 0
M  V30 2396 H 223.714 0.126496 1.46555 0
M  V30 2397 H 225.672 -2.17674 3.55913 0
M  V30 2398 H 224.302 -2.13794 2.41851 0
M  V30 2399 H 223.354 -0.151742 3.80097 0
M  V30 2400 H 224.666 -0.418006 4.97045 0
M  V30 2401 H 223.82 -2.73088 5.41763 0
M  V30 2402 H 222.559 -2.53208 4.16818 0
M  V30 2403 H 221.564 -0.624873 5.46237 0
M  V30 2404 H 222.789 -0.845998 6.7381 0
M  V30 2405 H 220.735 -2.91759 5.87548 0
M  V30 2406 H 220.652 -1.9428 7.3061 0
M  V30 2407 H 221.92 -3.12074 7.14304 0
M  V30 2408 N 226.149 -1.5696 0.141893 0
M  V30 2409 C 227.096 -2.16501 -0.799737 0
M  V30 2410 C 228.066 -1.09643 -1.24771 0
M  V30 2411 O 229.251 -1.3766 -1.32115 0
M  V30 2412 C 226.391 -2.78679 -2.03549 0
M  V30 2413 C 225.504 -3.99914 -1.6338 0
M  V30 2414 C 224.639 -4.50106 -2.82096 0
M  V30 2415 C 223.678 -5.63819 -2.38275 0
M  V30 2416 N 222.815 -6.08651 -3.49983 0
M  V30 2417 H 227.655 -2.96632 -0.285179 0
M  V30 2418 H 225.192 -1.46533 -0.129053 0
M  V30 2419 H 227.15 -3.1287 -2.75986 0
M  V30 2420 H 225.78 -2.012 -2.52425 0
M  V30 2421 H 224.832 -3.71735 -0.807279 0
M  V30 2422 H 226.144 -4.82311 -1.27192 0
M  V30 2423 H 225.298 -4.86325 -3.62729 0
M  V30 2424 H 224.037 -3.66706 -3.21525 0
M  V30 2425 H 223.042 -5.2718 -1.56081 0
M  V30 2426 H 224.267 -6.49 -1.99938 0
M  V30 2427 H 222.213 -5.28188 -3.89042 0
M  V30 2428 H 222.13 -6.85961 -3.17794 0
M  V30 2429 H 223.398 -6.49515 -4.30988 0
M  V30 2430 N 227.627 0.131896 -1.57047 0
M  V30 2431 C 229.038 0.690407 -1.73465 0
M  V30 2432 C 229.389 1.8094 -0.758629 0
M  V30 2433 O 228.514 2.16282 0.0713813 0
M  V30 2434 C 229.109 1.25916 -3.14532 0
M  V30 2435 C 227.668 1.76409 -3.32501 0
M  V30 2436 C 226.815 0.658579 -2.69366 0
M  V30 2437 H 229.766 -0.0939144 -1.58422 0
M  V30 2438 H 229.787 2.12892 -3.15369 0
M  V30 2439 H 229.299 0.444515 -3.85546 0
M  V30 2440 H 227.4 2.60391 -2.66509 0
M  V30 2441 H 227.513 1.88241 -4.4057 0
M  V30 2442 H 225.877 1.08899 -2.30246 0
M  V30 2443 H 226.66 -0.14487 -3.42994 0
M  V30 2444 N 229.106 1.52395 0.401703 0
M  V30 2445 C 230.355 1.66044 1.14509 0
M  V30 2446 C 230.668 0.400216 1.91462 0
M  V30 2447 O 231.874 0.416632 2.68284 0
M  V30 2448 C 230.33 2.93388 2.0845 0
M  V30 2449 C 229.938 4.26545 1.36978 0
M  V30 2450 C 231.682 3.16402 2.83001 0
M  V30 2451 C 229.589 5.45007 2.29611 0
M  V30 2452 H 228.519 0.618562 0.431158 0
M  V30 2453 H 231.17 1.78886 0.40892 0
M  V30 2454 H 229.552 2.74263 2.8565 0
M  V30 2455 H 230.726 4.56179 0.650916 0
M  V30 2456 H 229.041 4.09692 0.74438 0
M  V30 2457 H 231.638 4.02085 3.52465 0
M  V30 2458 H 231.981 2.30943 3.46368 0
M  V30 2459 H 232.514 3.36034 2.12898 0
M  V30 2460 H 229.253 6.32835 1.70879 0
M  V30 2461 H 228.773 5.19702 2.9945 0
M  V30 2462 H 230.452 5.7838 2.89974 0
M  V30 2463 N 230.584 -0.659388 1.43143 0
M  V30 2464 C 231.547 -1.75432 1.47501 0
M  V30 2465 C 232.547 -1.56707 0.360512 0
M  V30 2466 O 233.737 -1.62717 0.622002 0
M  V30 2467 C 230.869 -3.14239 1.32162 0
M  V30 2468 H 232.062 -1.7295 2.45006 0
M  V30 2469 H 229.615 -0.870469 1.29817 0
M  V30 2470 H 230.35 -3.22336 0.356401 0
M  V30 2471 H 230.135 -3.29235 2.12948 0
M  V30 2472 H 231.625 -3.94094 1.3813 0
M  V30 2473 N 232.062 -1.29571 -0.897171 0
M  V30 2474 C 233.31 -1.17456 -1.64464 0
M  V30 2475 C 233.631 0.273698 -1.9307 0
M  V30 2476 O 232.901 1.18684 -1.55855 0
M  V30 2477 H 231.481 -0.431706 -0.609622 0
M  V30 2478 H 234.143 -1.62531 -1.07562 0
M  V30 2479 H 233.239 -1.72648 -2.59998 0
M  V30 2480 N 233.54 1.10788 -1.12088 0
M  V30 2481 C 234.786 1.82942 -0.875226 0
M  V30 2482 C 235.119 1.84779 0.597538 0
M  V30 2483 O 234.394 1.30578 1.44152 0
M  V30 2484 C 234.677 3.29789 -1.44606 0
M  V30 2485 C 234.53 3.36307 -2.98693 0
M  V30 2486 C 235.849 4.26064 -1.10261 0
M  V30 2487 H 232.968 0.664195 -0.319397 0
M  V30 2488 H 235.61 1.29867 -1.38689 0
M  V30 2489 H 233.76 3.75118 -1.01089 0
M  V30 2490 H 235.432 2.99487 -3.50864 0
M  V30 2491 H 233.675 2.76318 -3.34411 0
M  V30 2492 H 234.346 4.39694 -3.33726 0
M  V30 2493 H 236.822 3.88951 -1.4784 0
M  V30 2494 H 235.698 5.27183 -1.52869 0
M  V30 2495 H 235.959 4.42098 -0.0142953 0
M  V30 2496 N 235.018 0.912232 1.28515 0
M  V30 2497 C 236.267 0.540504 1.94323 0
M  V30 2498 C 236.58 -0.920044 1.72611 0
M  V30 2499 O 237.786 -1.39986 2.32629 0
M  V30 2500 C 236.242 0.915803 3.48053 0
M  V30 2501 C 235.85 2.39598 3.78546 0
M  V30 2502 C 237.594 0.614588 4.20027 0
M  V30 2503 C 235.501 2.71148 5.25578 0
M  V30 2504 H 234.431 0.198418 0.727424 0
M  V30 2505 H 237.082 1.11094 1.46049 0
M  V30 2506 H 235.464 0.274168 3.9505 0
M  V30 2507 H 236.638 3.08422 3.42364 0
M  V30 2508 H 234.953 2.66749 3.1974 0
M  V30 2509 H 237.55 0.827002 5.28266 0
M  V30 2510 H 237.893 -0.447531 4.13887 0
M  V30 2511 H 238.426 1.21462 3.78803 0
M  V30 2512 H 235.165 3.76207 5.36794 0
M  V30 2513 H 234.685 2.0696 5.62963 0
M  V30 2514 H 236.364 2.58072 5.93302 0
M  V30 2515 N 236.496 -1.42363 0.676048 0
M  V30 2516 C 237.744 -2.01123 0.198437 0
M  V30 2517 C 238.065 -1.53731 -1.19966 0
M  V30 2518 O 237.335 -0.759518 -1.80577 0
M  V30 2519 H 235.915 -0.743678 0.0703721 0
M  V30 2520 H 238.577 -1.74263 0.872837 0
M  V30 2521 H 237.673 -3.11454 0.200686 0
M  V30 2522 N 237.974 -0.419461 -1.51915 0
M  V30 2523 C 239.385 0.0477853 -1.86639 0
M  V30 2524 C 239.736 1.43531 -1.33766 0
M  V30 2525 O 238.861 2.05401 -0.68113 0
M  V30 2526 C 239.456 0.0934885 -3.38671 0
M  V30 2527 C 238.015 0.505097 -3.72996 0
M  V30 2528 C 237.162 -0.313792 -2.75519 0
M  V30 2529 H 240.113 -0.636088 -1.45395 0
M  V30 2530 H 240.134 0.906667 -3.6954 0
M  V30 2531 H 239.646 -0.916501 -3.77123 0
M  V30 2532 H 237.747 1.52135 -3.40126 0
M  V30 2533 H 237.86 0.242309 -4.78487 0
M  V30 2534 H 236.224 0.225363 -2.53701 0
M  V30 2535 H 237.007 -1.32232 -3.16812 0
M  V30 2536 N 239.452 1.56882 -0.150215 0
M  V30 2537 C 240.7 1.9584 0.499105 0
M  V30 2538 C 241.021 1.03623 1.65188 0
M  V30 2539 O 240.291 0.0984084 1.95653 0
M  V30 2540 H 238.871 0.723119 0.187373 0
M  V30 2541 H 241.533 1.9358 -0.226466 0
M  V30 2542 H 240.629 2.99638 0.873122 0
M  V30 2543 N 240.93 -0.123565 1.57115 0
M  V30 2544 C 242.155 -0.850398 1.89164 0
M  V30 2545 C 242.58 -1.7286 0.741688 0
M  V30 2546 O 241.938 -1.78665 -0.307958 0
M  V30 2547 C 241.986 -1.66353 3.19936 0
M  V30 2548 O 241.09 -2.77004 3.0552 0
M  V30 2549 H 240.431 -0.235454 0.620852 0
M  V30 2550 H 242.961 -0.107335 2.04318 0
M  V30 2551 H 242.971 -2.05372 3.52543 0
M  V30 2552 H 241.646 -1.01881 4.03228 0
M  V30 2553 H 240.223 -2.41221 2.84371 0
M  V30 2554 N 242.408 -1.52605 -0.393616 0
M  V30 2555 C 243.633 -1.71592 -1.16495 0
M  V30 2556 C 244.058 -0.43133 -1.83088 0
M  V30 2557 O 243.416 0.612523 -1.7064 0
M  V30 2558 C 243.464 -2.86318 -2.19213 0
M  V30 2559 O 242.568 -2.52969 -3.257 0
M  V30 2560 H 241.909 -0.570734 -0.33935 0
M  V30 2561 H 244.439 -1.99377 -0.459324 0
M  V30 2562 H 244.449 -3.1168 -2.63286 0
M  V30 2563 H 243.124 -3.79511 -1.7013 0
M  V30 2564 H 241.701 -2.38332 -2.86797 0
M  V30 2565 N 243.887 0.651787 -1.4349 0
M  V30 2566 C 245.112 1.44434 -1.48841 0
M  V30 2567 C 245.537 1.8779 -0.107955 0
M  V30 2568 O 244.895 1.57464 0.898602 0
M  V30 2569 C 244.943 2.65458 -2.44059 0
M  V30 2570 O 244.047 3.64566 -1.92784 0
M  V30 2571 H 243.388 0.433005 -0.503391 0
M  V30 2572 H 245.918 0.797451 -1.88419 0
M  V30 2573 H 245.928 3.13255 -2.6141 0
M  V30 2574 H 244.603 2.33244 -3.4434 0
M  V30 2575 H 243.18 3.23716 -1.851 0
M  V30 2576 N 245.365 1.30045 0.890287 0
M  V30 2577 C 246.611 1.18737 1.64406 0
M  V30 2578 C 246.944 -0.258525 1.92472 0
M  V30 2579 O 246.219 -1.18562 1.54186 0
M  V30 2580 C 246.502 2.01087 2.98724 0
M  V30 2581 C 246.355 3.53867 2.77665 0
M  V30 2582 C 247.674 1.84457 3.9958 0
M  V30 2583 H 244.793 0.432698 0.596608 0
M  V30 2584 H 247.435 1.5962 1.0306 0
M  V30 2585 H 245.585 1.66349 3.51084 0
M  V30 2586 H 247.257 3.98637 2.32133 0
M  V30 2587 H 245.5 3.78318 2.12269 0
M  V30 2588 H 246.171 4.06772 3.7315 0
M  V30 2589 H 248.647 2.14817 3.56361 0
M  V30 2590 H 247.523 2.44411 4.91482 0
M  V30 2591 H 247.784 0.802276 4.3476 0
M  V30 2592 N 246.843 -1.10192 1.12674 0
M  V30 2593 C 247.806 -2.14786 0.799979 0
M  V30 2594 C 248.806 -1.59711 -0.18685 0
M  V30 2595 O 249.996 -1.74156 0.0392558 0
M  V30 2596 C 247.128 -3.40374 0.189228 0
M  V30 2597 H 248.321 -2.45203 1.72671 0
M  V30 2598 H 245.874 -1.25597 0.930326 0
M  V30 2599 H 246.609 -3.15577 -0.747107 0
M  V30 2600 H 246.394 -3.81637 0.899766 0
M  V30 2601 H 247.884 -4.17594 -0.0228143 0
M  V30 2602 N 248.321 -0.919034 -1.28029 0
M  V30 2603 C 249.57 -0.550802 -1.94034 0
M  V30 2604 C 249.883 0.910877 -1.73096 0
M  V30 2605 O 251.089 1.3875 -2.33368 0
M  V30 2606 C 249.545 -0.934249 -3.47563 0
M  V30 2607 C 249.153 -2.41602 -3.7727 0
M  V30 2608 C 250.897 -0.636854 -4.19696 0
M  V30 2609 C 248.804 -2.73932 -5.24133 0
M  V30 2610 H 247.734 -0.202273 -0.726362 0
M  V30 2611 H 250.385 -1.11867 -1.45458 0
M  V30 2612 H 248.767 -0.295115 -3.94899 0
M  V30 2613 H 249.941 -3.10233 -3.40723 0
M  V30 2614 H 248.256 -2.68441 -3.18321 0
M  V30 2615 H 250.853 -0.855005 -5.2782 0
M  V30 2616 H 251.196 0.425575 -4.14119 0
M  V30 2617 H 251.729 -1.23469 -3.78154 0
M  V30 2618 H 248.468 -3.79049 -5.34792 0
M  V30 2619 H 247.988 -2.09942 -5.61858 0
M  V30 2620 H 249.667 -2.61215 -5.91925 0
M  V30 2621 N 249.799 1.42003 -0.683588 0
M  V30 2622 C 250.731 2.29183 0.0283068 0
M  V30 2623 C 251.744 1.4415 0.756611 0
M  V30 2624 O 252.933 1.67779 0.609306 0
M  V30 2625 C 250.033 3.21765 1.06398 0
M  V30 2626 C 249.206 4.35496 0.407723 0
M  V30 2627 C 248.265 5.08737 1.34437 0
M  V30 2628 O 247.291 5.62948 0.841318 0
M  V30 2629 N 248.493 5.15075 2.67728 0
M  V30 2630 H 251.258 2.9092 -0.720105 0
M  V30 2631 H 248.819 1.53025 -0.528682 0
M  V30 2632 H 250.811 3.6763 1.69204 0
M  V30 2633 H 249.381 2.61418 1.71404 0
M  V30 2634 H 248.601 3.92165 -0.400012 0
M  V30 2635 H 249.889 5.08776 -0.0490956 0
M  V30 2636 H 249.287 4.72457 3.11129 0
M  V30 2637 H 247.844 5.64556 3.2576 0
M  V30 2638 N 251.277 0.427512 1.51691 0
M  V30 2639 C 252.523 -0.142439 2.02299 0
M  V30 2640 C 252.856 -1.43214 1.31162 0
M  V30 2641 O 252.131 -1.89833 0.423511 0
M  V30 2642 C 252.414 -0.371301 3.58181 0
M  V30 2643 C 252.267 0.936358 4.39946 0
M  V30 2644 C 253.586 -1.14542 4.24933 0
M  V30 2645 H 250.705 -0.0502937 0.735282 0
M  V30 2646 H 253.347 0.564584 1.81418 0
M  V30 2647 H 251.497 -0.973559 3.76104 0
M  V30 2648 H 253.169 1.57184 4.33694 0
M  V30 2649 H 251.412 1.5432 4.05423 0
M  V30 2650 H 252.083 0.730388 5.47147 0
M  V30 2651 H 254.559 -0.635362 4.11221 0
M  V30 2652 H 253.435 -1.27431 5.33903 0
M  V30 2653 H 253.696 -2.17093 3.85127 0
M  V30 2654 N 252.755 -1.56801 0.158532 0
M  V30 2655 C 253.687 -2.14488 -0.807923 0
M  V30 2656 C 254.7 -1.09721 -1.20271 0
M  V30 2657 O 255.889 -1.36956 -1.14478 0
M  V30 2658 C 252.989 -2.66217 -2.09718 0
M  V30 2659 C 252.162 -3.95507 -1.86796 0
M  V30 2660 C 251.221 -4.3243 -2.99818 0
M  V30 2661 O 250.247 -5.00543 -2.71008 0
M  V30 2662 N 251.449 -3.92947 -4.27285 0
M  V30 2663 H 254.214 -2.98042 -0.314816 0
M  V30 2664 H 251.775 -1.61881 -0.0246692 0
M  V30 2665 H 253.767 -2.87924 -2.84398 0
M  V30 2666 H 252.337 -1.87324 -2.50257 0
M  V30 2667 H 251.557 -3.82309 -0.96089 0
M  V30 2668 H 252.845 -4.79972 -1.68833 0
M  V30 2669 H 252.243 -3.38087 -4.53557 0
M  V30 2670 H 250.8 -4.19681 -4.9871 0
M  V30 2671 N 254.233 0.115231 -1.57178 0
M  V30 2672 C 255.181 1.16014 -2.01602 0
M  V30 2673 C 256.175 1.42653 -0.913587 0
M  V30 2674 O 257.381 1.42571 -1.09879 0
M  V30 2675 H 253.756 0.391252 -0.642204 0
M  V30 2676 H 255.727 0.758998 -2.88586 0
M  V30 2677 C 254.476 2.47767 -2.4394 0
M  V30 2678 H 253.799 2.28108 -3.28339 0
M  V30 2679 H 255.239 3.19432 -2.78818 0
M  V30 2680 C 253.698 3.10617 -1.30455 0
M  V30 2681 O 254.228 3.96846 -0.622585 0
M  V30 2682 N 252.434 2.70553 -1.06064 0
M  V30 2683 H 251.981 2.00527 -1.61699 0
M  V30 2684 H 251.939 3.12934 -0.303284 0
M  V30 2685 N 255.711 1.52812 0.385517 0
M  V30 2686 C 256.641 1.80808 1.47752 0
M  V30 2687 C 257.622 0.660318 1.5676 0
M  V30 2688 O 258.807 0.908246 1.71652 0
M  V30 2689 C 255.937 1.98008 2.85324 0
M  V30 2690 C 254.891 3.13709 2.91154 0
M  V30 2691 C 254.217 3.16169 4.31209 0
M  V30 2692 C 255.517 4.52709 2.60483 0
M  V30 2693 H 257.211 2.72253 1.24573 0
M  V30 2694 H 254.757 1.31003 0.597839 0
M  V30 2695 H 256.71 2.16176 3.61726 0
M  V30 2696 H 255.434 1.03255 3.09848 0
M  V30 2697 H 254.093 2.95329 2.17201 0
M  V30 2698 H 253.741 2.19092 4.52778 0
M  V30 2699 H 253.441 3.93894 4.36029 0
M  V30 2700 H 254.965 3.36496 5.09512 0
M  V30 2701 H 256.379 4.71173 3.26602 0
M  V30 2702 H 254.776 5.32528 2.76648 0
M  V30 2703 H 255.846 4.59186 1.55809 0
M  V30 2704 N 257.189 -0.644168 1.43834 0
M  V30 2705 C 258.119 -1.76814 1.52509 0
M  V30 2706 C 259.1 -1.65823 0.379052 0
M  V30 2707 O 260.285 -1.84781 0.597466 0
M  V30 2708 C 257.415 -3.15288 1.4564 0
M  V30 2709 C 256.369 -3.41053 2.58586 0
M  V30 2710 C 255.695 -4.79421 2.36769 0
M  V30 2711 C 256.995 -3.34902 4.00797 0
M  V30 2712 H 258.689 -1.69812 2.46586 0
M  V30 2713 H 256.235 -0.815542 1.1868 0
M  V30 2714 H 258.188 -3.93681 1.50311 0
M  V30 2715 H 256.912 -3.23043 0.480725 0
M  V30 2716 H 255.571 -2.65035 2.53282 0
M  V30 2717 H 255.219 -4.83863 1.37424 0
M  V30 2718 H 254.919 -4.9762 3.12487 0
M  V30 2719 H 256.443 -5.6006 2.43238 0
M  V30 2720 H 257.857 -4.03218 4.07539 0
M  V30 2721 H 256.254 -3.64637 4.76613 0
M  V30 2722 H 257.324 -2.32928 4.25291 0
M  V30 2723 N 258.668 -1.30515 -0.883378 0
M  V30 2724 C 259.6 -1.12846 -1.99496 0
M  V30 2725 C 260.613 -0.0712571 -1.62644 0
M  V30 2726 O 261.802 -0.317432 -1.75655 0
M  V30 2727 C 258.902 -0.699123 -3.3161 0
M  V30 2728 C 258.075 -1.83842 -3.96889 0
M  V30 2729 C 257.134 -1.39737 -5.07307 0
M  V30 2730 O 256.16 -2.10485 -5.28852 0
M  V30 2731 N 257.362 -0.277279 -5.79837 0
M  V30 2732 H 260.127 -2.08585 -2.15203 0
M  V30 2733 H 257.688 -1.22672 -1.05656 0
M  V30 2734 H 259.68 -0.387044 -4.02845 0
M  V30 2735 H 258.25 0.166276 -3.12157 0
M  V30 2736 H 257.47 -2.31853 -3.18807 0
M  V30 2737 H 258.758 -2.60187 -4.37241 0
M  V30 2738 H 258.156 0.3122 -5.64838 0
M  V30 2739 H 256.713 -0.0246623 -6.51795 0
M  V30 2740 N 260.146 1.09593 -1.13257 0
M  V30 2741 C 261.076 2.18214 -0.830946 0
M  V30 2742 C 262.057 1.68812 0.208966 0
M  V30 2743 O 263.242 1.9408 0.0682666 0
M  V30 2744 C 260.372 3.46051 -0.294296 0
M  V30 2745 C 259.326 4.08778 -1.26826 0
M  V30 2746 C 258.652 5.31419 -0.591449 0
M  V30 2747 C 259.952 4.51476 -2.62615 0
M  V30 2748 H 261.646 2.43703 -1.73923 0
M  V30 2749 H 259.192 1.17128 -0.837675 0
M  V30 2750 H 261.145 4.2134 -0.0709606 0
M  V30 2751 H 259.869 3.20079 0.649366 0
M  V30 2752 H 258.528 3.35505 -1.47756 0
M  V30 2753 H 258.176 5.01727 0.357633 0
M  V30 2754 H 257.876 5.74341 -1.24123 0
M  V30 2755 H 259.4 6.09433 -0.377355 0
M  V30 2756 H 260.814 5.17999 -2.45663 0
M  V30 2757 H 259.211 5.05277 -3.23752 0
M  V30 2758 H 260.281 3.63962 -3.20406 0
M  V30 2759 N 261.624 0.925811 1.2754 0
M  V30 2760 C 262.871 0.565255 1.94451 0
M  V30 2761 C 263.199 -0.89316 1.7278 0
M  V30 2762 O 262.454 -1.65213 1.04895 0
M  V30 2763 C 262.753 0.835296 3.47502 0
M  V30 2764 C 262.419 2.27515 3.89291 0
M  V30 2765 C 261.081 2.66879 4.00411 0
M  V30 2766 C 263.433 3.21158 4.10496 0
M  V30 2767 C 260.761 3.99014 4.30122 0
M  V30 2768 C 263.113 4.52871 4.4169 0
M  V30 2769 C 261.777 4.92072 4.51023 0
M  V30 2770 H 261.047 0.206841 0.711546 0
M  V30 2771 H 263.694 1.16942 1.51647 0
M  V30 2772 H 261.999 0.148442 3.91519 0
M  V30 2773 H 263.696 0.535322 3.97411 0
M  V30 2774 H 260.286 1.95976 3.81171 0
M  V30 2775 H 264.47 2.9195 4.01346 0
M  V30 2776 H 259.726 4.2907 4.35556 0
M  V30 2777 H 263.9 5.25436 4.57045 0
M  V30 2778 H 261.527 5.9449 4.738 0
M  V30 2779 N 263.102 -1.41638 0.69111 0
M  V30 2780 C 264.379 -1.95036 0.148421 0
M  V30 2781 C 264.759 -1.63072 -1.34055 0
M  V30 2782 O 264.107 -0.93538 -2.08478 0
M  V30 2783 C 264.317 -3.46279 0.434951 0
M  V30 2784 C 265.665 -4.23069 0.360275 0
M  V30 2785 O 266.689 -3.54277 0.369613 0
M  V30 2786 O 265.548 -5.45583 0.316534 0
M  V30 2787 H 262.642 -0.826908 0.0123654 0
M  V30 2788 H 265.188 -1.5138 0.766963 0
M  V30 2789 H 263.96 -3.6281 1.46576 0
M  V30 2790 H 263.583 -3.97019 -0.214787 0
M  V30 2791 N 264.58 -0.43555 -1.51462 0
M  V30 2792 C 265.829 0.133007 -2.01261 0
M  V30 2793 C 266.142 1.43942 -1.32439 0
M  V30 2794 O 267.348 2.09081 -1.73198 0
M  V30 2795 C 265.804 0.287581 -3.58749 0
M  V30 2796 C 265.412 -1.00829 -4.36506 0
M  V30 2797 C 267.156 0.810004 -4.167 0
M  V30 2798 C 265.063 -0.819454 -5.85695 0
M  V30 2799 H 263.993 0.0534822 -0.752101 0
M  V30 2800 H 266.644 -0.565038 -1.74584 0
M  V30 2801 H 265.026 1.04859 -3.81865 0
M  V30 2802 H 266.2 -1.77749 -4.25138 0
M  V30 2803 H 264.515 -1.45911 -3.89999 0
M  V30 2804 H 267.112 0.967743 -5.2587 0
M  V30 2805 H 267.455 1.79196 -3.75758 0
M  V30 2806 H 267.988 0.107357 -3.97655 0
M  V30 2807 H 264.727 -1.77374 -6.31046 0
M  V30 2808 H 264.247 -0.0900208 -5.99732 0
M  V30 2809 H 265.926 -0.471949 -6.45276 0
M  V30 2810 N 266.058 1.56714 -0.166846 0
M  V30 2811 C 267.469 1.83378 0.350646 0
M  V30 2812 C 267.82 1.08646 1.63372 0
M  V30 2813 O 266.945 0.338058 2.13743 0
M  V30 2814 C 267.54 3.32643 0.642963 0
M  V30 2815 C 266.099 3.59818 1.10491 0
M  V30 2816 C 265.246 2.76954 0.138411 0
M  V30 2817 H 268.197 1.53803 -0.391193 0
M  V30 2818 H 268.218 3.49878 1.49551 0
M  V30 2819 H 267.73 3.87007 -0.291055 0
M  V30 2820 H 265.831 3.1086 2.05418 0
M  V30 2821 H 265.944 4.68178 1.01716 0
M  V30 2822 H 264.308 2.4666 0.634911 0
M  V30 2823 H 265.091 3.34097 -0.789549 0
M  V30 2824 N 267.536 -0.106894 1.57237 0
M  V30 2825 C 268.468 -1.15646 1.97885 0
M  V30 2826 C 269.481 -1.36981 0.879779 0
M  V30 2827 O 270.67 -1.35841 1.15799 0
M  V30 2828 C 267.77 -2.51425 2.27241 0
M  V30 2829 C 266.943 -2.50529 3.58545 0
M  V30 2830 C 266.002 -3.68145 3.75973 0
M  V30 2831 O 265.028 -3.51176 4.47956 0
M  V30 2832 N 266.23 -4.87177 3.15656 0
M  V30 2833 H 268.995 -0.81059 2.8853 0
M  V30 2834 H 266.556 -0.296024 1.59171 0
M  V30 2835 H 268.548 -3.28689 2.36105 0
M  V30 2836 H 267.118 -2.78147 1.42663 0
M  V30 2837 H 266.338 -1.58894 3.60758 0
M  V30 2838 H 267.626 -2.46997 4.44826 0
M  V30 2839 H 267.024 -5.03868 2.57165 0
M  V30 2840 H 265.581 -5.62075 3.30023 0
M  V30 2841 N 269.014 -1.53014 -0.377408 0
M  V30 2842 C 270.263 -1.67845 -1.11853 0
M  V30 2843 C 270.576 -0.430625 -1.90801 0
M  V30 2844 O 271.782 -0.459261 -2.67587 0
M  V30 2845 C 270.238 -2.96668 -2.03756 0
M  V30 2846 C 269.846 -4.28671 -1.30175 0
M  V30 2847 C 271.59 -3.20865 -2.77932 0
M  V30 2848 C 269.497 -5.48591 -2.20911 0
M  V30 2849 H 268.427 -0.625343 -0.421263 0
M  V30 2850 H 271.078 -1.79514 -0.380409 0
M  V30 2851 H 269.46 -2.78773 -2.8125 0
M  V30 2852 H 270.634 -4.57157 -0.578259 0
M  V30 2853 H 268.949 -4.10825 -0.679108 0
M  V30 2854 H 271.546 -4.07642 -3.46024 0
M  V30 2855 H 271.889 -2.36424 -3.4265 0
M  V30 2856 H 272.422 -3.39379 -2.07525 0
M  V30 2857 H 269.161 -6.35474 -1.6079 0
M  V30 2858 H 268.681 -5.244 -2.91144 0
M  V30 2859 H 270.36 -5.8292 -2.80736 0
M  V30 2860 N 270.492 0.636531 -1.44174 0
M  V30 2861 C 271.455 1.73063 -1.50273 0
M  V30 2862 C 272.455 1.56113 -0.385397 0
M  V30 2863 O 273.645 1.61707 -0.64781 0
M  V30 2864 C 270.777 3.12096 -1.37145 0
M  V30 2865 H 271.97 1.69031 -2.47727 0
M  V30 2866 H 269.523 0.849706 -1.31186 0
M  V30 2867 H 270.258 3.21728 -0.407636 0
M  V30 2868 H 270.043 3.25805 -2.18159 0
M  V30 2869 H 271.533 3.91846 -1.44382 0
M  V30 2870 N 271.97 1.30982 0.876444 0
M  V30 2871 C 273.2 1.23063 1.65949 0
M  V30 2872 C 273.608 -0.207537 1.88058 0
M  V30 2873 O 272.951 -1.14781 1.43426 0
M  V30 2874 C 273.013 1.89768 3.05333 0
M  V30 2875 C 272.677 3.39106 3.0636 0
M  V30 2876 C 273.674 4.3496 2.84791 0
M  V30 2877 C 271.359 3.80693 3.27686 0
M  V30 2878 C 273.353 5.70375 2.84519 0
M  V30 2879 C 271.04 5.16223 3.27043 0
M  V30 2880 C 272.038 6.10875 3.05485 0
M  V30 2881 O 271.726 7.43928 3.04674 0
M  V30 2882 H 271.458 0.426685 0.524324 0
M  V30 2883 H 274.012 1.7329 1.10271 0
M  V30 2884 H 272.242 1.34082 3.6271 0
M  V30 2885 H 273.931 1.75853 3.65829 0
M  V30 2886 H 274.697 4.0416 2.68103 0
M  V30 2887 H 270.576 3.07457 3.43499 0
M  V30 2888 H 274.12 6.44228 2.67611 0
M  V30 2889 H 270.017 5.4666 3.43269 0
M  V30 2890 H 270.785 7.53022 3.2078 0
M  V30 2891 N 273.449 -1.08991 1.13837 0
M  V30 2892 C 274.674 -1.85551 0.926585 0
M  V30 2893 C 275.099 -1.80782 -0.519566 0
M  V30 2894 O 274.457 -1.18855 -1.36906 0
M  V30 2895 C 274.505 -3.31266 1.42462 0
M  V30 2896 O 273.609 -4.07822 0.612789 0
M  V30 2897 H 272.95 -0.575192 0.331738 0
M  V30 2898 H 275.48 -1.37604 1.51414 0
M  V30 2899 H 275.49 -3.82112 1.43019 0
M  V30 2900 H 274.165 -3.34052 2.47754 0
M  V30 2901 H 272.742 -3.66731 0.675463 0
M  V30 2902 N 274.927 -0.932562 -1.27047 0
M  V30 2903 C 275.89 -0.440064 -2.24936 0
M  V30 2904 C 276.89 0.444071 -1.54547 0
M  V30 2905 O 278.08 0.244465 -1.72476 0
M  V30 2906 C 275.212 0.36678 -3.38921 0
M  V30 2907 H 276.405 -1.305 -2.70018 0
M  V30 2908 H 273.958 -0.713707 -1.39054 0
M  V30 2909 H 274.693 1.25033 -2.99228 0
M  V30 2910 H 274.478 -0.267204 -3.91188 0
M  V30 2911 H 275.968 0.701567 -4.11665 0
M  V30 2912 N 276.405 1.4127 -0.698611 0
M  V30 2913 C 277.633 2.05503 -0.239992 0
M  V30 2914 C 278.048 1.52584 1.11191 0
M  V30 2915 O 277.405 0.675323 1.69545 0
M  V30 2916 C 277.456 3.60987 -0.192429 0
M  V30 2917 O 277.177 4.1195 -1.49094 0
M  V30 2918 C 278.678 4.42371 0.28681 0
M  V30 2919 H 275.898 0.661748 -0.111045 0
M  V30 2920 H 278.442 1.80987 -0.95205 0
M  V30 2921 H 276.597 3.84533 0.470472 0
M  V30 2922 H 277.011 5.06018 -1.38007 0
M  V30 2923 H 278.485 5.51344 0.26896 0
M  V30 2924 H 278.962 4.18699 1.32619 0
M  V30 2925 H 279.568 4.23897 -0.345201 0
M  V30 2926 N 277.883 0.443576 1.51229 0
M  V30 2927 C 279.108 -0.121648 2.07043 0
M  V30 2928 C 279.533 -1.35156 1.30823 0
M  V30 2929 O 278.891 -1.7793 0.347934 0
M  V30 2930 C 278.939 -0.41624 3.5819 0
M  V30 2931 O 278.043 -1.50163 3.8409 0
M  V30 2932 H 277.384 0.000871367 0.663999 0
M  V30 2933 H 279.914 0.626706 1.94765 0
M  V30 2934 H 279.924 -0.664867 4.02546 0
M  V30 2935 H 278.599 0.482653 4.1309 0
M  V30 2936 H 277.176 -1.24248 3.51592 0
M  V30 2937 N 279.361 -1.56624 0.175154 0
M  V30 2938 C 280.61 -1.96173 -0.468921 0
M  V30 2939 C 280.923 -1.06401 -1.64128 0
M  V30 2940 O 282.129 -1.35648 -2.35185 0
M  V30 2941 C 280.585 -3.48833 -0.885633 0
M  V30 2942 C 280.193 -4.47237 0.261343 0
M  V30 2943 C 281.937 -3.97194 -1.49791 0
M  V30 2944 C 279.844 -5.9114 -0.175214 0
M  V30 2945 H 278.774 -0.732455 -0.178958 0
M  V30 2946 H 281.425 -1.81591 0.263997 0
M  V30 2947 H 279.807 -3.58848 -1.67464 0
M  V30 2948 H 280.981 -4.4894 1.03871 0
M  V30 2949 H 279.296 -4.08956 0.783827 0
M  V30 2950 H 281.893 -5.02167 -1.83665 0
M  V30 2951 H 282.236 -3.40351 -2.39722 0
M  V30 2952 H 282.769 -3.90212 -0.773267 0
M  V30 2953 H 279.508 -6.51865 0.689414 0
M  V30 2954 H 279.028 -5.92735 -0.91786 0
M  V30 2955 H 280.707 -6.44044 -0.617792 0
M  V30 2956 N 280.839 0.0985539 -1.57292 0
M  V30 2957 C 282.116 0.834155 -1.76921 0
M  V30 2958 C 282.496 1.97101 -0.755928 0
M  V30 2959 O 281.844 2.27474 0.216245 0
M  V30 2960 C 282.054 1.33194 -3.22584 0
M  V30 2961 C 283.402 1.77611 -3.85668 0
M  V30 2962 O 284.426 1.42825 -3.26312 0
M  V30 2963 O 283.285 2.4192 -4.90038 0
M  V30 2964 H 280.379 0.397628 -0.725135 0
M  V30 2965 H 282.925 0.0807044 -1.69508 0
M  V30 2966 H 281.697 0.517248 -3.87866 0
M  V30 2967 H 281.32 2.1475 -3.34616 0
M  V30 2968 N 282.317 1.53212 0.369288 0
M  V30 2969 C 283.247 1.82365 1.45826 0
M  V30 2970 C 284.228 0.676907 1.56051 0
M  V30 2971 O 285.413 0.926401 1.70679 0
M  V30 2972 C 282.543 2.01023 2.83208 0
M  V30 2973 C 281.497 3.1678 2.8781 0
M  V30 2974 C 280.823 3.20724 4.27832 0
M  V30 2975 C 282.123 4.55447 2.55667 0
M  V30 2976 H 283.817 2.73559 1.21678 0
M  V30 2977 H 281.363 1.3163 0.583911 0
M  V30 2978 H 283.316 2.20001 3.59413 0
M  V30 2979 H 282.04 1.06536 3.08736 0
M  V30 2980 H 280.699 2.97616 2.14056 0
M  V30 2981 H 280.347 2.23882 4.50429 0
M  V30 2982 H 280.047 3.98496 4.31827 0
M  V30 2983 H 281.571 3.41881 5.05915 0
M  V30 2984 H 282.985 4.74611 3.21586 0
M  V30 2985 H 281.382 5.35432 2.70984 0
M  V30 2986 H 282.452 4.60812 1.5093 0
M  V30 2987 N 283.795 -0.628877 1.44509 0
M  V30 2988 C 285.02 -1.42048 1.5112 0
M  V30 2989 C 285.445 -1.87594 0.137818 0
M  V30 2990 O 284.803 -1.58873 -0.873437 0
M  V30 2991 C 284.851 -2.61541 2.48251 0
M  V30 2992 O 283.955 -3.61453 1.98559 0
M  V30 2993 H 283.296 -0.424942 0.510216 0
M  V30 2994 H 285.826 -0.767374 1.89664 0
M  V30 2995 H 285.836 -3.09057 2.66361 0
M  V30 2996 H 284.511 -2.27736 3.48007 0
M  V30 2997 H 283.088 -3.20731 1.90227 0
M  V30 2998 N 285.273 -1.31445 -0.869486 0
M  V30 2999 C 286.55 -1.11795 -1.60503 0
M  V30 3000 C 286.93 0.327168 -2.08549 0
M  V30 3001 O 286.278 1.32135 -1.8642 0
M  V30 3002 C 286.488 -2.13258 -2.76265 0
M  V30 3003 C 287.836 -2.45805 -3.46215 0
M  V30 3004 O 288.86 -2.11688 -2.86473 0
M  V30 3005 O 287.719 -3.04228 -4.5399 0
M  V30 3006 H 284.813 -0.430421 -0.706163 0
M  V30 3007 H 287.359 -1.42925 -0.914907 0
M  V30 3008 H 286.131 -3.10461 -2.3818 0
M  V30 3009 H 285.754 -1.83035 -3.52964 0
M  V30 3010 N 286.751 1.08385 -1.14413 0
M  V30 3011 C 287.698 2.15311 -0.831265 0
M  V30 3012 C 288.668 1.64751 0.211292 0
M  V30 3013 O 289.853 1.90627 0.0811674 0
M  V30 3014 C 286.993 3.43658 -0.315143 0
M  V30 3015 C 286.106 4.08064 -1.41802 0
M  V30 3016 C 285.241 5.24207 -0.859126 0
M  V30 3017 C 284.28 5.80554 -1.93967 0
M  V30 3018 N 283.417 6.88042 -1.39793 0
M  V30 3019 H 288.257 2.41415 -1.74708 0
M  V30 3020 H 285.794 1.18474 -0.871909 0
M  V30 3021 H 287.752 4.172 0.00230884 0
M  V30 3022 H 286.382 3.17839 0.56378 0
M  V30 3023 H 285.434 3.3228 -1.85187 0
M  V30 3024 H 286.746 4.45962 -2.23427 0
M  V30 3025 H 285.9 6.04689 -0.49359 0
M  V30 3026 H 284.639 4.87699 -0.011932 0
M  V30 3027 H 283.644 4.98725 -2.31415 0
M  V30 3028 H 284.869 6.19121 -2.79046 0
M  V30 3029 H 282.815 6.53493 -0.572919 0
M  V30 3030 H 282.732 7.24767 -2.15054 0
M  V30 3031 H 284 7.72255 -1.0603 0
M  V30 3032 N 288.23 0.939286 1.26551 0
M  V30 3033 C 289.458 0.602536 1.97932 0
M  V30 3034 C 289.873 -0.82206 1.69964 0
M  V30 3035 O 289.23 -1.54789 0.966784 0
M  V30 3036 C 289.281 0.832946 3.51773 0
M  V30 3037 O 289.002 2.20151 3.78768 0
M  V30 3038 C 290.503 0.506483 4.40397 0
M  V30 3039 H 287.723 0.227248 0.631347 0
M  V30 3040 H 290.267 1.25948 1.61113 0
M  V30 3041 H 288.422 0.222644 3.8676 0
M  V30 3042 H 288.836 2.26013 4.73306 0
M  V30 3043 H 290.31 0.718333 5.47306 0
M  V30 3044 H 290.787 -0.558451 4.35635 0
M  V30 3045 H 291.393 1.09543 4.10951 0
M  V30 3046 N 289.708 -1.40897 0.706093 0
M  V30 3047 C 290.638 -2.33418 0.0620085 0
M  V30 3048 C 291.619 -1.52385 -0.755827 0
M  V30 3049 O 292.804 -1.80886 -0.706674 0
M  V30 3050 C 289.934 -3.36293 -0.867445 0
M  V30 3051 C 288.888 -4.27716 -0.155932 0
M  V30 3052 C 288.214 -5.2105 -1.20046 0
M  V30 3053 C 289.514 -5.12944 0.984149 0
M  V30 3054 H 291.208 -2.87527 0.83477 0
M  V30 3055 H 288.754 -1.38249 0.402875 0
M  V30 3056 H 290.707 -3.99949 -1.32735 0
M  V30 3057 H 289.431 -2.80556 -1.67199 0
M  V30 3058 H 288.09 -3.65498 0.284047 0
M  V30 3059 H 287.738 -4.61624 -1.99781 0
M  V30 3060 H 287.438 -5.83056 -0.729328 0
M  V30 3061 H 288.962 -5.87584 -1.66066 0
M  V30 3062 H 290.376 -5.70109 0.604048 0
M  V30 3063 H 288.773 -5.83945 1.38304 0
M  V30 3064 H 289.843 -4.49485 1.81911 0
M  V30 3065 N 291.186 -0.45159 -1.50991 0
M  V30 3066 C 292.416 0.108177 -2.06317 0
M  V30 3067 C 292.824 1.35774 -1.31765 0
M  V30 3068 O 292.167 1.79838 -0.374694 0
M  V30 3069 C 292.229 0.481659 -3.56259 0
M  V30 3070 C 291.893 -0.663114 -4.52163 0
M  V30 3071 C 292.89 -1.53947 -4.96585 0
M  V30 3072 C 290.575 -0.8479 -4.95092 0
M  V30 3073 C 292.569 -2.58518 -5.82621 0
M  V30 3074 C 290.256 -1.89686 -5.80915 0
M  V30 3075 C 291.254 -2.76388 -6.24579 0
M  V30 3076 O 290.942 -3.79482 -7.08695 0
M  V30 3077 H 290.674 0.00499183 -0.675982 0
M  V30 3078 H 293.228 -0.633659 -1.95381 0
M  V30 3079 H 291.458 1.27641 -3.65027 0
M  V30 3080 H 293.147 0.974233 -3.94035 0
M  V30 3081 H 293.913 -1.4083 -4.64103 0
M  V30 3082 H 289.792 -0.18258 -4.60638 0
M  V30 3083 H 293.336 -3.26224 -6.16623 0
M  V30 3084 H 289.233 -2.02817 -6.12809 0
M  V30 3085 H 290.001 -3.76234 -7.26905 0
M  V30 3086 N 292.664 1.56529 -0.183458 0
M  V30 3087 C 293.611 2.18546 0.742055 0
M  V30 3088 C 294.581 1.12912 1.2182 0
M  V30 3089 O 295.766 1.41115 1.28418 0
M  V30 3090 C 292.906 2.83977 1.96089 0
M  V30 3091 C 292.019 4.04105 1.52719 0
M  V30 3092 C 291.154 4.57427 2.70063 0
M  V30 3093 C 290.193 5.69938 2.23243 0
M  V30 3094 N 289.33 6.17717 3.33722 0
M  V30 3095 H 294.17 2.97284 0.206432 0
M  V30 3096 H 291.707 1.46823 0.0901571 0
M  V30 3097 H 293.665 3.20077 2.67594 0
M  V30 3098 H 292.295 2.07822 2.47002 0
M  V30 3099 H 291.347 3.73745 0.708436 0
M  V30 3100 H 292.659 4.85513 1.1436 0
M  V30 3101 H 291.813 4.95772 3.49708 0
M  V30 3102 H 290.552 3.75101 3.11689 0
M  V30 3103 H 289.557 5.31133 1.42048 0
M  V30 3104 H 290.782 6.54073 1.82661 0
M  V30 3105 H 288.728 5.38317 3.74902 0
M  V30 3106 H 288.645 6.94146 2.99495 0
M  V30 3107 H 289.913 6.60713 4.13616 0
M  V30 3108 N 294.142 -0.090211 1.57342 0
M  V30 3109 C 295.372 -0.805055 1.90269 0
M  V30 3110 C 295.78 -1.72561 0.775842 0
M  V30 3111 O 295.123 -1.81839 -0.260843 0
M  V30 3112 C 295.185 -1.66734 3.18497 0
M  V30 3113 C 294.849 -0.918092 4.47683 0
M  V30 3114 C 295.846 -0.245674 5.19319 0
M  V30 3115 C 293.531 -0.890724 4.94339 0
M  V30 3116 C 295.525 0.444088 6.35851 0
M  V30 3117 C 293.212 -0.197179 6.10782 0
M  V30 3118 C 294.21 0.469044 6.81388 0
M  V30 3119 O 293.898 1.15146 7.95611 0
M  V30 3120 H 293.63 -0.235143 0.633785 0
M  V30 3121 H 296.184 -0.0703805 2.05279 0
M  V30 3122 H 294.414 -2.44437 2.99646 0
M  V30 3123 H 296.103 -2.25919 3.37217 0
M  V30 3124 H 296.869 -0.258246 4.84312 0
M  V30 3125 H 292.748 -1.39873 4.39268 0
M  V30 3126 H 296.292 0.964667 6.90898 0
M  V30 3127 H 292.189 -0.18247 6.45242 0
M  V30 3128 H 292.957 1.05885 8.11622 0
M  V30 3129 N 295.62 -1.53406 -0.361157 0
M  V30 3130 C 296.867 -1.69802 -1.10333 0
M  V30 3131 C 297.195 -0.452087 -1.89173 0
M  V30 3132 O 296.45 0.566017 -1.87336 0
M  V30 3133 C 296.749 -2.90211 -2.08596 0
M  V30 3134 C 296.415 -4.26539 -1.46203 0
M  V30 3135 C 295.077 -4.6361 -1.28915 0
M  V30 3136 C 297.429 -5.113 -1.01101 0
M  V30 3137 C 294.757 -5.83075 -0.651157 0
M  V30 3138 C 297.109 -6.31415 -0.387007 0
M  V30 3139 C 295.773 -6.67195 -0.201657 0
M  V30 3140 H 295.043 -0.621351 -0.403737 0
M  V30 3141 H 297.69 -1.87598 -0.384609 0
M  V30 3142 H 295.995 -2.66946 -2.86788 0
M  V30 3143 H 297.692 -3.00091 -2.65982 0
M  V30 3144 H 294.282 -3.97352 -1.60653 0
M  V30 3145 H 298.466 -4.83206 -1.13249 0
M  V30 3146 H 293.722 -6.09385 -0.496006 0
M  V30 3147 H 297.896 -6.96394 -0.0293563 0
M  V30 3148 H 295.523 -7.59628 0.294766 0
M  V30 3149 N 297.098 0.621204 -1.44841 0
M  V30 3150 C 298.028 1.74366 -1.55303 0
M  V30 3151 C 299.009 1.65199 -0.405385 0
M  V30 3152 O 300.194 1.83807 -0.626787 0
M  V30 3153 C 297.324 3.12931 -1.50637 0
M  V30 3154 C 296.278 3.36896 -2.63979 0
M  V30 3155 C 295.604 4.75594 -2.44366 0
M  V30 3156 C 296.904 3.28483 -4.06074 0
M  V30 3157 H 298.598 1.65867 -2.49256 0
M  V30 3158 H 296.144 0.796558 -1.19962 0
M  V30 3159 H 298.097 3.9124 -1.56555 0
M  V30 3160 H 296.821 3.22237 -0.532057 0
M  V30 3161 H 295.48 2.60972 -2.57467 0
M  V30 3162 H 295.128 4.81616 -1.45105 0
M  V30 3163 H 294.828 4.92586 -3.20364 0
M  V30 3164 H 296.352 5.5612 -2.52117 0
M  V30 3165 H 297.766 3.96684 -4.13902 0
M  V30 3166 H 296.163 3.57008 -4.82354 0
M  V30 3167 H 297.233 2.26133 -4.28943 0
M  V30 3168 N 298.576 1.31904 0.862503 0
M  V30 3169 C 299.992 1.10724 1.14945 0
M  V30 3170 C 300.192 -0.117421 2.01158 0
M  V30 3171 O 299.248 -0.804595 2.39338 0
M  V30 3172 C 300.561 2.38267 1.83437 0
M  V30 3173 C 302.109 2.43949 1.96106 0
M  V30 3174 C 302.584 3.71394 2.68013 0
M  V30 3175 N 304.075 3.72331 2.75543 0
M  V30 3176 C 304.81 4.67641 3.31812 0
M  V30 3177 N 304.306 5.73313 3.88953 0
M  V30 3178 N 306.099 4.5515 3.29841 0
M  V30 3179 H 298.25 2.10436 0.288191 0
M  V30 3180 H 300.513 0.928705 0.190292 0
M  V30 3181 H 300.219 3.27759 1.27542 0
M  V30 3182 H 300.093 2.48633 2.83657 0
M  V30 3183 H 302.48 1.54922 2.51164 0
M  V30 3184 H 302.561 2.37543 0.949059 0
M  V30 3185 H 302.205 4.60791 2.13621 0
M  V30 3186 H 302.135 3.75069 3.69636 0
M  V30 3187 H 304.626 2.95947 2.34997 0
M  V30 3188 H 304.939 6.42107 4.30022 0
M  V30 3189 H 303.284 5.77077 3.87308 0
M  V30 3190 H 306.475 3.71766 2.84443 0
M  V30 3191 H 306.648 5.29604 3.73394 0
M  V30 3192 N 300.054 -1.07777 1.14986 0
M  V30 3193 C 301.3 -1.80557 0.923422 0
M  V30 3194 C 301.633 -1.86298 -0.548337 0
M  V30 3195 O 300.908 -1.34354 -1.40639 0
M  V30 3196 C 301.191 -3.25839 1.53299 0
M  V30 3197 C 301.044 -3.28269 3.07505 0
M  V30 3198 C 302.363 -4.22991 1.21518 0
M  V30 3199 H 299.482 -0.655493 0.336894 0
M  V30 3200 H 302.124 -1.26144 1.42083 0
M  V30 3201 H 300.274 -3.72306 1.10999 0
M  V30 3202 H 301.946 -2.90079 3.58681 0
M  V30 3203 H 300.189 -2.67355 3.4162 0
M  V30 3204 H 300.86 -4.30691 3.45266 0
M  V30 3205 H 303.336 -3.84894 1.581 0
M  V30 3206 H 302.212 -5.22945 1.66793 0
M  V30 3207 H 302.473 -4.41904 0.131505 0
M  V30 3208 N 301.532 -0.945985 -1.26051 0
M  V30 3209 C 302.778 -0.597002 -1.93814 0
M  V30 3210 C 303.111 0.862484 -1.73997 0
M  V30 3211 O 302.386 1.61769 -1.07986 0
M  V30 3212 C 302.669 -0.945937 -3.47454 0
M  V30 3213 C 302.522 -2.46052 -3.76535 0
M  V30 3214 C 303.841 -0.464785 -4.37639 0
M  V30 3215 H 300.96 -0.218366 -0.703907 0
M  V30 3216 H 303.602 -1.18107 -1.48831 0
M  V30 3217 H 301.752 -0.448902 -3.85898 0
M  V30 3218 H 303.424 -3.03065 -3.47778 0
M  V30 3219 H 301.667 -2.90194 -3.22444 0
M  V30 3220 H 302.338 -2.65517 -4.83947 0
M  V30 3221 H 304.814 -0.891016 -4.06448 0
M  V30 3222 H 303.69 -0.737712 -5.4392 0
M  V30 3223 H 303.951 0.635274 -4.37512 0
M  V30 3224 N 303.011 1.40521 -0.713556 0
M  V30 3225 C 304.422 1.83853 -0.324807 0
M  V30 3226 C 304.773 1.59667 1.14021 0
M  V30 3227 O 303.898 1.07649 1.87725 0
M  V30 3228 C 304.493 3.33751 -0.582746 0
M  V30 3229 C 303.052 3.75584 -0.247727 0
M  V30 3230 C 302.199 2.63753 -0.856121 0
M  V30 3231 H 305.15 1.29817 -0.91286 0
M  V30 3232 H 305.171 3.80194 0.152682 0
M  V30 3233 H 304.683 3.51322 -1.64908 0
M  V30 3234 H 302.784 3.63608 0.813624 0
M  V30 3235 H 302.897 4.7373 -0.715307 0
M  V30 3236 H 301.261 2.53108 -0.28432 0
M  V30 3237 H 302.044 2.84137 -1.92668 0
M  V30 3238 N 304.489 0.459591 1.5075 0
M  V30 3239 C 305.714 -0.0996819 2.0716 0
M  V30 3240 C 306.139 -1.33761 1.32249 0
M  V30 3241 O 305.497 -1.77551 0.366786 0
M  V30 3242 C 305.545 -0.378226 3.58611 0
M  V30 3243 O 304.649 -1.46081 3.85661 0
M  V30 3244 H 303.99 0.00791392 0.663953 0
M  V30 3245 H 306.52 0.647329 1.9409 0
M  V30 3246 H 306.53 -0.622135 4.03229 0
M  V30 3247 H 305.205 0.526439 4.12555 0
M  V30 3248 H 303.782 -1.20511 3.5289 0
M  V30 3249 N 305.967 -1.56429 0.191757 0
M  V30 3250 C 307.244 -1.89224 -0.495332 0
M  V30 3251 C 307.624 -1.10478 -1.79883 0
M  V30 3252 O 306.972 -0.204852 -2.2758 0
M  V30 3253 C 307.182 -3.41548 -0.717367 0
M  V30 3254 C 308.53 -4.11711 -1.03823 0
M  V30 3255 O 309.554 -3.4698 -0.805204 0
M  V30 3256 O 308.413 -5.2611 -1.47887 0
M  V30 3257 H 305.507 -0.785788 -0.25781 0
M  V30 3258 H 308.053 -1.68111 0.231721 0
M  V30 3259 H 306.825 -3.90772 0.203287 0
M  V30 3260 H 306.448 -3.68342 -1.497 0
M  V30 3261 N 307.445 0.0818655 -1.57387 0
M  V30 3262 C 308.673 0.796108 -1.9097 0
M  V30 3263 C 309.088 1.71626 -0.786757 0
M  V30 3264 O 308.445 1.80908 0.240513 0
M  V30 3265 C 308.496 1.59829 -3.24248 0
M  V30 3266 O 308.217 0.715131 -4.32224 0
M  V30 3267 C 309.718 2.41442 -3.7178 0
M  V30 3268 H 306.938 0.22691 -0.631469 0
M  V30 3269 H 309.482 0.0551439 -2.04426 0
M  V30 3270 H 307.637 2.29163 -3.12351 0
M  V30 3271 H 308.051 1.27205 -5.08841 0
M  V30 3272 H 309.525 2.932 -4.67694 0
M  V30 3273 H 310.002 3.2051 -3.00283 0
M  V30 3274 H 310.608 1.77283 -3.86589 0
M  V30 3275 N 308.923 1.53595 0.353017 0
M  V30 3276 C 309.853 1.83902 1.43883 0
M  V30 3277 C 310.834 0.693421 1.55324 0
M  V30 3278 O 312.019 0.944452 1.69687 0
M  V30 3279 C 309.149 2.04016 2.8106 0
M  V30 3280 C 308.103 3.19814 2.84434 0
M  V30 3281 C 307.429 3.25244 4.24406 0
M  V30 3282 C 308.729 4.58133 2.50822 0
M  V30 3283 H 310.423 2.74835 1.1877 0
M  V30 3284 H 307.969 1.32242 0.569917 0
M  V30 3285 H 309.922 2.238 3.57059 0
M  V30 3286 H 308.646 1.09804 3.07588 0
M  V30 3287 H 307.305 2.9987 2.10887 0
M  V30 3288 H 306.953 2.28646 4.48029 0
M  V30 3289 H 306.653 4.03054 4.27576 0
M  V30 3290 H 308.177 3.47228 5.0226 0
M  V30 3291 H 309.591 4.77995 3.16534 0
M  V30 3292 H 307.988 5.38276 2.6529 0
M  V30 3293 H 309.058 4.62387 1.46034 0
M  V30 3294 N 310.401 -0.613514 1.45168 0
M  V30 3295 C 311.333 -1.73825 1.4939 0
M  V30 3296 C 312.346 -1.58175 0.385304 0
M  V30 3297 O 313.535 -1.66165 0.652036 0
M  V30 3298 C 310.635 -3.11758 1.32891 0
M  V30 3299 C 309.808 -3.53704 2.57317 0
M  V30 3300 C 308.867 -4.70579 2.35462 0
M  V30 3301 O 307.893 -4.77996 3.09044 0
M  V30 3302 N 309.095 -5.63454 1.39644 0
M  V30 3303 H 311.86 -1.70669 2.46358 0
M  V30 3304 H 309.421 -0.79862 1.40832 0
M  V30 3305 H 311.413 -3.87692 1.1609 0
M  V30 3306 H 309.983 -3.09456 0.442218 0
M  V30 3307 H 309.203 -2.67794 2.89275 0
M  V30 3308 H 310.491 -3.78486 3.40038 0
M  V30 3309 H 309.889 -5.6017 0.789062 0
M  V30 3310 H 308.446 -6.38944 1.28816 0
M  V30 3311 N 311.879 -1.3236 -0.855495 0
M  V30 3312 C 312.842 -1.21164 -1.94556 0
M  V30 3313 C 313.842 -0.134908 -1.60233 0
M  V30 3314 O 315.032 -0.385249 -1.69887 0
M  V30 3315 C 312.164 -0.863192 -3.29791 0
M  V30 3316 H 313.357 -2.18038 -2.05911 0
M  V30 3317 H 310.91 -1.16179 -1.04557 0
M  V30 3318 H 311.645 0.103769 -3.24134 0
M  V30 3319 H 311.43 -1.64166 -3.56078 0
M  V30 3320 H 312.92 -0.809156 -4.09686 0
M  V30 3321 N 313.357 1.07166 -1.15556 0
M  V30 3322 C 314.773 1.31899 -0.898603 0
M  V30 3323 C 314.973 1.96333 0.453383 0
M  V30 3324 O 314.029 2.22438 1.19489 0
M  V30 3325 C 315.342 2.20826 -2.04099 0
M  V30 3326 C 316.89 2.34269 -2.07574 0
M  V30 3327 C 317.365 3.26546 -3.21141 0
M  V30 3328 N 318.856 3.34127 -3.20801 0
M  V30 3329 C 319.591 4.05595 -4.05315 0
M  V30 3330 N 319.087 4.79661 -4.99897 0
M  V30 3331 N 320.88 4.01555 -3.93332 0
M  V30 3332 H 313.031 0.637302 -2.02613 0
M  V30 3333 H 315.294 0.343468 -0.883591 0
M  V30 3334 H 315 1.80744 -3.01703 0
M  V30 3335 H 314.874 3.21364 -1.97496 0
M  V30 3336 H 317.261 2.73603 -1.10568 0
M  V30 3337 H 317.342 1.33429 -2.18244 0
M  V30 3338 H 316.986 2.87931 -4.184 0
M  V30 3339 H 316.916 4.27345 -3.07708 0
M  V30 3340 H 319.407 2.81336 -2.52306 0
M  V30 3341 H 319.72 5.31694 -5.60822 0
M  V30 3342 H 318.065 4.78671 -5.03884 0
M  V30 3343 H 321.256 3.42806 -3.18751 0
M  V30 3344 H 321.429 4.56987 -4.5942 0
M  V30 3345 N 314.835 0.952656 1.25548 0
M  V30 3346 C 315.798 0.475794 2.24207 0
M  V30 3347 C 316.798 -0.419428 1.55234 0
M  V30 3348 O 317.988 -0.216994 1.72843 0
M  V30 3349 C 315.12 -0.312814 3.39462 0
M  V30 3350 H 316.313 1.34779 2.67908 0
M  V30 3351 H 313.866 0.735739 1.37901 0
M  V30 3352 H 314.601 -1.20257 3.01179 0
M  V30 3353 H 314.386 0.329404 3.90714 0
M  V30 3354 H 315.876 -0.635986 4.12729 0
M  V30 3355 N 316.313 -1.40141 0.720998 0
M  V30 3356 C 317.246 -2.2819 0.020916 0
M  V30 3357 C 318.224 -1.43633 -0.762129 0
M  V30 3358 O 319.408 -1.7304 -0.747633 0
M  V30 3359 C 316.535 -3.24281 -0.977715 0
M  V30 3360 C 315.581 -4.25548 -0.284836 0
M  V30 3361 S 316.414 -5.26247 0.991169 0
M  V30 3362 C 317.57 -6.259 -0.0052214 0
M  V30 3363 H 317.803 -2.87218 0.767649 0
M  V30 3364 H 315.336 -1.45656 0.512233 0
M  V30 3365 H 317.294 -3.80167 -1.54865 0
M  V30 3366 H 315.955 -2.643 -1.69719 0
M  V30 3367 H 315.148 -4.93154 -1.03996 0
M  V30 3368 H 314.75 -3.73389 0.213684 0
M  V30 3369 H 317.042 -6.72143 -0.850279 0
M  V30 3370 H 317.985 -7.05224 0.637599 0
M  V30 3371 H 318.393 -5.63277 -0.371366 0
M  V30 3372 N 317.792 -0.46758 -1.50504 0
M  V30 3373 C 318.722 0.318381 -2.31319 0
M  V30 3374 C 319.703 0.993564 -1.38066 0
M  V30 3375 O 320.888 0.991411 -1.66987 0
M  V30 3376 C 318.018 1.40275 -3.17711 0
M  V30 3377 C 316.972 0.849373 -4.19487 0
M  V30 3378 C 316.298 2.03177 -4.94594 0
M  V30 3379 C 317.598 -0.136942 -5.2212 0
M  V30 3380 H 319.292 -0.356106 -2.97275 0
M  V30 3381 H 316.838 -0.172703 -1.42961 0
M  V30 3382 H 318.791 1.96004 -3.73042 0
M  V30 3383 H 317.515 2.10596 -2.49634 0
M  V30 3384 H 316.174 0.314076 -3.65252 0
M  V30 3385 H 315.822 2.72187 -4.22993 0
M  V30 3386 H 315.522 1.66774 -5.63436 0
M  V30 3387 H 317.046 2.59403 -5.52759 0
M  V30 3388 H 318.46 0.331056 -5.72343 0
M  V30 3389 H 316.857 -0.41507 -5.98663 0
M  V30 3390 H 317.927 -1.06398 -4.73083 0
M  V30 3391 N 319.27 1.56325 -0.20005 0
M  V30 3392 C 320.547 1.89484 0.48529 0
M  V30 3393 C 320.927 1.1143 1.79294 0
M  V30 3394 O 320.275 0.216919 2.27468 0
M  V30 3395 C 320.485 3.41923 0.699243 0
M  V30 3396 C 321.833 4.12256 1.01638 0
M  V30 3397 O 322.857 3.47402 0.786792 0
M  V30 3398 O 321.716 5.26887 1.45095 0
M  V30 3399 H 318.81 0.787144 0.253639 0
M  V30 3400 H 321.356 1.67985 -0.240633 0
M  V30 3401 H 320.128 3.90658 -0.224008 0
M  V30 3402 H 319.751 3.69131 1.47744 0
M  V30 3403 N 320.748 -0.0735177 1.57428 0
M  V30 3404 C 321.997 -0.771809 1.86349 0
M  V30 3405 C 322.31 -1.78828 0.792452 0
M  V30 3406 O 323.516 -2.53602 0.96945 0
M  V30 3407 C 321.972 -1.42358 3.30548 0
M  V30 3408 C 321.58 -0.445761 4.45777 0
M  V30 3409 C 323.324 -2.10434 3.6867 0
M  V30 3410 C 321.231 -1.10335 5.81016 0
M  V30 3411 H 320.161 -0.291999 0.695164 0
M  V30 3412 H 322.812 -0.0250749 1.83483 0
M  V30 3413 H 321.194 -2.21852 3.28021 0
M  V30 3414 H 322.368 0.319239 4.59693 0
M  V30 3415 H 320.683 0.130457 4.16196 0
M  V30 3416 H 323.28 -2.60405 4.67004 0
M  V30 3417 H 323.623 -2.90298 2.98383 0
M  V30 3418 H 324.156 -1.37773 3.7318 0
M  V30 3419 H 320.895 -0.345061 6.54591 0
M  V30 3420 H 320.415 -1.83925 5.70904 0
M  V30 3421 H 322.094 -1.62367 6.26295 0
M  V30 3422 N 322.226 -1.5378 -0.344866 0
M  V30 3423 C 323.472 -1.71216 -1.08687 0
M  V30 3424 C 323.805 -0.473281 -1.88345 0
M  V30 3425 O 323.08 0.52968 -1.87149 0
M  V30 3426 C 323.363 -2.97486 -2.02914 0
M  V30 3427 C 323.216 -4.31579 -1.26727 0
M  V30 3428 C 324.535 -3.19422 -3.0275 0
M  V30 3429 H 321.654 -0.62301 -0.393735 0
M  V30 3430 H 324.296 -1.8645 -0.365563 0
M  V30 3431 H 322.446 -2.84629 -2.64421 0
M  V30 3432 H 324.118 -4.56284 -0.67845 0
M  V30 3433 H 322.361 -4.30049 -0.569273 0
M  V30 3434 H 323.032 -5.16106 -1.95803 0
M  V30 3435 H 325.508 -3.316 -2.51357 0
M  V30 3436 H 324.384 -4.09169 -3.65885 0
M  V30 3437 H 324.645 -2.35656 -3.74057 0
M  V30 3438 N 323.704 0.605807 -1.45491 0
M  V30 3439 C 324.651 1.7164 -1.54299 0
M  V30 3440 C 325.621 1.61486 -0.388761 0
M  V30 3441 O 326.806 1.81039 -0.602445 0
M  V30 3442 C 323.946 3.09953 -1.51734 0
M  V30 3443 C 323.059 3.309 -2.77721 0
M  V30 3444 C 322.194 4.59329 -2.66816 0
M  V30 3445 C 321.233 4.7354 -3.87848 0
M  V30 3446 N 320.37 5.9327 -3.75467 0
M  V30 3447 H 325.21 1.63449 -2.49176 0
M  V30 3448 H 322.747 0.796957 -1.23641 0
M  V30 3449 H 324.705 3.89977 -1.48235 0
M  V30 3450 H 323.335 3.17098 -0.604068 0
M  V30 3451 H 322.387 2.44639 -2.913 0
M  V30 3452 H 323.699 3.37274 -3.67488 0
M  V30 3453 H 322.853 5.4755 -2.61292 0
M  V30 3454 H 321.592 4.55355 -1.74651 0
M  V30 3455 H 320.597 3.83741 -3.93729 0
M  V30 3456 H 321.822 4.79309 -4.81082 0
M  V30 3457 H 319.768 5.90338 -2.86072 0
M  V30 3458 H 319.685 6.00811 -4.5887 0
M  V30 3459 H 320.953 6.83984 -3.73879 0
M  V30 3460 N 325.182 1.32811 0.848464 0
M  V30 3461 C 326.598 1.11937 1.13764 0
M  V30 3462 C 326.798 -0.0960789 2.01271 0
M  V30 3463 O 325.854 -0.779165 2.40178 0
M  V30 3464 C 327.167 2.402 1.809 0
M  V30 3465 C 328.715 2.46016 1.93508 0
M  V30 3466 C 329.19 3.74215 2.64059 0
M  V30 3467 N 330.681 3.75232 2.71579 0
M  V30 3468 C 331.416 4.71134 3.26833 0
M  V30 3469 N 330.912 5.77406 3.8285 0
M  V30 3470 N 332.705 4.58623 3.24995 0
M  V30 3471 H 324.856 2.1073 0.265855 0
M  V30 3472 H 327.119 0.930671 0.180431 0
M  V30 3473 H 326.825 3.29093 1.24058 0
M  V30 3474 H 326.699 2.51628 2.81004 0
M  V30 3475 H 329.086 1.57577 2.49506 0
M  V30 3476 H 329.167 2.38536 0.923811 0
M  V30 3477 H 328.811 4.63031 2.08722 0
M  V30 3478 H 328.741 3.78968 3.65637 0
M  V30 3479 H 331.232 2.98423 2.31845 0
M  V30 3480 H 331.545 6.46632 4.23187 0
M  V30 3481 H 329.89 5.81152 3.81165 0
M  V30 3482 H 333.081 3.74762 2.80484 0
M  V30 3483 H 333.254 5.33535 3.67756 0
M  V30 3484 N 326.66 -1.06551 1.16123 0
M  V30 3485 C 327.89 -1.8274 0.963838 0
M  V30 3486 C 328.298 -1.82712 -0.491228 0
M  V30 3487 O 327.641 -1.24294 -1.35265 0
M  V30 3488 C 327.703 -3.3065 1.41106 0
M  V30 3489 C 327.367 -3.54384 2.88549 0
M  V30 3490 C 328.364 -3.4765 3.86569 0
M  V30 3491 C 326.049 -3.81789 3.26408 0
M  V30 3492 C 328.043 -3.67982 5.2045 0
M  V30 3493 C 325.73 -4.01772 4.60459 0
M  V30 3494 C 326.728 -3.94866 5.57288 0
M  V30 3495 O 326.416 -4.14306 6.88916 0
M  V30 3496 H 326.148 -0.583136 0.341948 0
M  V30 3497 H 328.702 -1.35351 1.54497 0
M  V30 3498 H 326.932 -3.78887 0.773394 0
M  V30 3499 H 328.621 -3.88324 1.1815 0
M  V30 3500 H 329.387 -3.2647 3.58667 0
M  V30 3501 H 325.266 -3.86276 2.51619 0
M  V30 3502 H 328.81 -3.62507 5.96015 0
M  V30 3503 H 324.707 -4.2244 4.88072 0
M  V30 3504 H 325.475 -4.31609 6.95454 0
M  V30 3505 N 328.138 -0.959301 -1.25041 0
M  V30 3506 C 329.086 -0.474437 -2.2771 0
M  V30 3507 C 330.08 0.457697 -1.631 0
M  V30 3508 O 331.286 0.333912 -1.76876 0
M  V30 3509 H 327.661 -0.134936 -0.739795 0
M  V30 3510 H 329.632 -1.35251 -2.65988 0
M  V30 3511 C 328.381 0.227884 -3.46952 0
M  V30 3512 H 327.704 -0.480248 -3.96905 0
M  V30 3513 H 329.144 0.531091 -4.20661 0
M  V30 3514 C 327.603 1.452 -3.04004 0
M  V30 3515 O 328.133 2.54949 -3.10426 0
M  V30 3516 N 326.339 1.31502 -2.59144 0
M  V30 3517 H 325.886 0.422065 -2.54119 0
M  V30 3518 H 325.844 2.13521 -2.30773 0
M  V30 3519 N 329.616 1.39756 -0.72842 0
M  V30 3520 C 330.862 2.01425 -0.282761 0
M  V30 3521 C 331.217 1.56754 1.11561 0
M  V30 3522 O 330.51 0.783482 1.74849 0
M  V30 3523 C 330.704 3.56002 -0.315776 0
M  V30 3524 C 330.533 4.1568 -1.71582 0
M  V30 3525 C 329.303 4.48555 -2.32651 0
M  V30 3526 C 331.501 4.39667 -2.66829 0
M  V30 3527 N 329.483 4.93698 -3.64877 0
M  V30 3528 C 330.854 4.86942 -3.8378 0
M  V30 3529 C 332.909 4.21724 -2.64675 0
M  V30 3530 C 331.612 5.18158 -4.98904 0
M  V30 3531 C 333.638 4.54049 -3.78937 0
M  V30 3532 C 333 5.01525 -4.94623 0
M  V30 3533 H 329.099 0.76756 -0.149583 0
M  V30 3534 H 331.683 1.69784 -0.952976 0
M  V30 3535 H 329.854 3.87046 0.324057 0
M  V30 3536 H 331.586 4.0443 0.147808 0
M  V30 3537 H 328.341 4.36128 -1.84633 0
M  V30 3538 H 328.765 5.20635 -4.32744 0
M  V30 3539 H 333.407 3.84228 -1.76433 0
M  V30 3540 H 331.125 5.54562 -5.87781 0
M  V30 3541 H 334.711 4.41795 -3.78561 0
M  V30 3542 H 333.591 5.26065 -5.81572 0
M  V30 3543 N 331.094 0.475555 1.50254 0
M  V30 3544 C 332.322 -0.0754493 2.06762 0
M  V30 3545 C 332.737 -1.33111 1.33891 0
M  V30 3546 O 332.094 -1.77846 0.40952 0
M  V30 3547 C 332.145 -0.359008 3.59713 0
M  V30 3548 O 331.866 0.846851 4.29837 0
M  V30 3549 C 333.367 -0.956484 4.32858 0
M  V30 3550 H 330.587 0.00907525 0.670939 0
M  V30 3551 H 333.131 0.665618 1.93364 0
M  V30 3552 H 331.286 -1.05001 3.72899 0
M  V30 3553 H 331.7 0.594162 5.21124 0
M  V30 3554 H 333.174 -1.10463 5.40834 0
M  V30 3555 H 333.651 -1.94775 3.93649 0
M  V30 3556 H 334.257 -0.303723 4.24214 0
M  V30 3557 N 332.573 -1.56217 0.208337 0
M  V30 3558 C 333.803 -2.02043 -0.431523 0
M  V30 3559 C 334.211 -1.08755 -1.54819 0
M  V30 3560 O 333.554 -0.0870009 -1.83494 0
M  V30 3561 C 333.616 -3.44239 -1.03633 0
M  V30 3562 C 333.28 -4.56965 -0.0567502 0
M  V30 3563 C 334.277 -5.14624 0.738773 0
M  V30 3564 C 331.962 -5.02266 0.0581736 0
M  V30 3565 C 333.956 -6.16045 1.63605 0
M  V30 3566 C 331.643 -6.03528 0.959001 0
M  V30 3567 C 332.641 -6.60293 1.7465 0
M  V30 3568 O 332.329 -7.59586 2.6322 0
M  V30 3569 H 332.061 -0.666772 -0.111313 0
M  V30 3570 H 334.615 -2.02919 0.318277 0
M  V30 3571 H 332.845 -3.40391 -1.83497 0
M  V30 3572 H 334.534 -3.73793 -1.58221 0
M  V30 3573 H 335.3 -4.80483 0.660364 0
M  V30 3574 H 331.179 -4.57771 -0.544633 0
M  V30 3575 H 334.723 -6.60279 2.25116 0
M  V30 3576 H 330.62 -6.37092 1.03848 0
M  V30 3577 H 331.388 -7.77057 2.57148 0
M  V30 3578 N 334.051 0.0651679 -1.57465 0
M  V30 3579 C 335.297 0.764193 -1.87851 0
M  V30 3580 C 335.63 1.76889 -0.801495 0
M  V30 3581 O 334.905 1.93594 0.187528 0
M  V30 3582 C 335.188 1.46625 -3.28897 0
M  V30 3583 C 335.041 0.477515 -4.47258 0
M  V30 3584 C 336.36 2.4095 -3.68281 0
M  V30 3585 H 333.479 0.276351 -0.683227 0
M  V30 3586 H 336.121 0.0272868 -1.8998 0
M  V30 3587 H 334.271 2.09438 -3.27212 0
M  V30 3588 H 335.943 -0.145922 -4.61069 0
M  V30 3589 H 334.186 -0.206576 -4.33308 0
M  V30 3590 H 334.857 1.0065 -5.42746 0
M  V30 3591 H 337.333 1.88209 -3.71102 0
M  V30 3592 H 336.209 2.87072 -4.67847 0
M  V30 3593 H 336.47 3.26049 -2.98571 0
M  V30 3594 N 335.529 1.53961 0.336706 0
M  V30 3595 C 336.754 1.75797 1.10046 0
M  V30 3596 C 337.179 0.498985 1.81361 0
M  V30 3597 O 336.537 -0.548769 1.72795 0
M  V30 3598 C 336.585 2.94257 2.08436 0
M  V30 3599 O 335.689 2.64883 3.16087 0
M  V30 3600 H 335.03 0.582936 0.317934 0
M  V30 3601 H 337.56 2.00945 0.38501 0
M  V30 3602 H 337.57 3.21237 2.51537 0
M  V30 3603 H 336.245 3.85564 1.55927 0
M  V30 3604 H 334.822 2.48812 2.77753 0
M  V30 3605 N 337.007 -0.598083 1.45811 0
M  V30 3606 C 337.97 -1.69018 1.54808 0
M  V30 3607 C 338.97 -1.55037 0.426652 0
M  V30 3608 O 340.16 -1.59932 0.690456 0
M  V30 3609 C 337.292 -3.0835 1.45371 0
M  V30 3610 H 338.485 -1.62403 2.52121 0
M  V30 3611 H 336.038 -0.814626 1.33392 0
M  V30 3612 H 336.773 -3.20534 0.492793 0
M  V30 3613 H 336.558 -3.19907 2.26721 0
M  V30 3614 H 338.048 -3.8788 1.54721 0
M  V30 3615 N 338.485 -1.33259 -0.841409 0
M  V30 3616 C 339.731 -1.24757 -1.59886 0
M  V30 3617 C 340.064 0.186913 -1.93298 0
M  V30 3618 O 339.339 1.12757 -1.5848 0
M  V30 3619 C 339.622 -2.12036 -2.91055 0
M  V30 3620 C 339.475 -3.63929 -2.6434 0
M  V30 3621 C 340.794 -1.9916 -3.92458 0
M  V30 3622 H 337.913 -0.454542 -0.580138 0
M  V30 3623 H 340.555 -1.63335 -0.970647 0
M  V30 3624 H 338.705 -1.79265 -3.44669 0
M  V30 3625 H 340.377 -4.06978 -2.17178 0
M  V30 3626 H 338.62 -3.85935 -1.98082 0
M  V30 3627 H 339.291 -4.20341 -3.57796 0
M  V30 3628 H 341.767 -2.27895 -3.48143 0
M  V30 3629 H 340.643 -2.62484 -4.82072 0
M  V30 3630 H 340.904 -0.963082 -4.31482 0
M  V30 3631 N 339.963 1.05934 -1.16686 0
M  V30 3632 C 340.913 2.11764 -0.844978 0
M  V30 3633 C 341.897 1.59922 0.177178 0
M  V30 3634 O 343.089 1.76983 -0.0241768 0
M  V30 3635 C 340.218 3.41493 -0.351812 0
M  V30 3636 C 339.304 4.00152 -1.40496 0
M  V30 3637 N 339.695 4.32874 -2.61636 0
M  V30 3638 C 337.993 4.278 -1.26106 0
M  V30 3639 C 338.694 4.79552 -3.29249 0
M  V30 3640 N 337.67 4.79211 -2.56628 0
M  V30 3641 H 341.472 2.34916 -1.76612 0
M  V30 3642 H 338.986 1.23511 -1.05446 0
M  V30 3643 H 340.983 4.16773 -0.102796 0
M  V30 3644 H 339.643 3.19778 0.56322 0
M  V30 3645 H 340.654 4.23109 -2.98663 0
M  V30 3646 H 337.331 4.15511 -0.407081 0
M  V30 3647 H 338.721 5.14045 -4.32675 0
M  V30 3648 N 341.441 0.965919 1.2453 0
M  V30 3649 C 342.669 0.644385 1.96609 0
M  V30 3650 C 343.084 -0.785823 1.71669 0
M  V30 3651 O 342.441 -1.52703 0.999399 0
M  V30 3652 C 342.492 0.907375 3.49927 0
M  V30 3653 O 342.213 2.28136 3.74013 0
M  V30 3654 C 343.714 0.599784 4.39224 0
M  V30 3655 H 340.934 0.240588 0.626385 0
M  V30 3656 H 343.478 1.29337 1.58405 0
M  V30 3657 H 341.633 0.304631 3.862 0
M  V30 3658 H 342.047 2.36002 4.68405 0
M  V30 3659 H 343.521 0.834263 5.45659 0
M  V30 3660 H 343.998 -0.465921 4.36722 0
M  V30 3661 H 344.604 1.18235 4.08535 0
M  V30 3662 N 342.919 -1.39368 0.735821 0
M  V30 3663 C 343.829 -2.34395 0.0979693 0
M  V30 3664 C 344.845 -1.58361 -0.720968 0
M  V30 3665 O 346.021 -1.90648 -0.649245 0
M  V30 3666 C 343.086 -3.37393 -0.797916 0
M  V30 3667 C 342.147 -4.29287 0.0333662 0
M  V30 3668 C 341.38 -5.27365 -0.819854 0
M  V30 3669 O 341.603 -5.31959 -2.05855 0
M  V30 3670 O 340.537 -6.01389 -0.248079 0
M  V30 3671 H 344.363 -2.90601 0.882315 0
M  V30 3672 H 341.948 -1.40909 0.4965 0
M  V30 3673 H 343.83 -4.00505 -1.31048 0
M  V30 3674 H 342.505 -2.83571 -1.56106 0
M  V30 3675 H 341.412 -3.69395 0.591475 0
M  V30 3676 H 342.745 -4.86317 0.758752 0
M  V30 3677 N 344.397 -0.483516 -1.5 0
M  V30 3678 C 345.645 0.067027 -2.01989 0
M  V30 3679 C 345.966 1.3909 -1.36671 0
M  V30 3680 O 345.236 1.88978 -0.516152 0
M  V30 3681 H 343.816 0.0277606 -0.746484 0
M  V30 3682 H 346.478 -0.636773 -1.84204 0
M  V30 3683 H 345.574 0.209484 -3.11396 0
M  V30 3684 N 345.875 1.56104 -0.216619 0
M  V30 3685 C 346.823 2.21434 0.712036 0
M  V30 3686 C 347.817 1.19218 1.20348 0
M  V30 3687 O 349.023 1.3731 1.16387 0
M  V30 3688 H 345.398 0.70992 0.248026 0
M  V30 3689 H 347.369 2.98083 0.137558 0
M  V30 3690 C 346.118 2.90434 1.91163 0
M  V30 3691 H 345.441 3.68842 1.54258 0
M  V30 3692 H 346.881 3.39552 2.5393 0
M  V30 3693 C 345.34 1.92635 2.76394 0
M  V30 3694 O 345.87 1.44017 3.74996 0
M  V30 3695 N 344.076 1.60392 2.42328 0
M  V30 3696 H 343.623 2.00122 1.622 0
M  V30 3697 H 343.581 0.952159 2.99635 0
M  V30 3698 N 347.353 -0.0568162 1.57498 0
M  V30 3699 C 348.583 -0.764515 1.91934 0
M  V30 3700 C 348.991 -1.70877 0.81227 0
M  V30 3701 O 348.334 -1.82351 -0.222213 0
M  V30 3702 C 348.396 -1.5994 3.21962 0
M  V30 3703 C 348.06 -0.822925 4.4953 0
M  V30 3704 C 349.057 -0.135464 5.19723 0
M  V30 3705 C 346.742 -0.785666 4.96117 0
M  V30 3706 C 348.736 0.578861 6.34766 0
M  V30 3707 C 346.423 -0.0675784 6.11063 0
M  V30 3708 C 347.421 0.613471 6.80239 0
M  V30 3709 O 347.109 1.31996 7.92989 0
M  V30 3710 H 346.841 -0.221647 0.63863 0
M  V30 3711 H 349.395 -0.0268218 2.05382 0
M  V30 3712 H 347.625 -2.38026 3.04763 0
M  V30 3713 H 349.314 -2.18715 3.41934 0
M  V30 3714 H 350.08 -0.155458 4.84751 0
M  V30 3715 H 345.959 -1.30524 4.42136 0
M  V30 3716 H 349.503 1.111 6.88696 0
M  V30 3717 H 345.4 -0.0455636 6.45484 0
M  V30 3718 H 346.168 1.23077 8.09194 0
M  V30 3719 N 348.832 -1.54138 -0.328536 0
M  V30 3720 C 350.08 -1.71765 -1.06496 0
M  V30 3721 C 350.401 -0.49149 -1.88704 0
M  V30 3722 O 349.671 0.494539 -1.89555 0
M  V30 3723 H 348.251 -0.633295 -0.396164 0
M  V30 3724 H 350.913 -1.91429 -0.366176 0
M  V30 3725 H 350.009 -2.5951 -1.73381 0
M  V30 3726 N 350.31 0.590341 -1.46126 0
M  V30 3727 C 351.22 1.72793 -1.58681 0
M  V30 3728 C 352.236 1.67516 -0.470566 0
M  V30 3729 O 353.412 1.87562 -0.733642 0
M  V30 3730 C 350.477 3.09287 -1.5666 0
M  V30 3731 C 349.538 3.25886 -2.79458 0
M  V30 3732 C 348.771 4.55869 -2.77524 0
M  V30 3733 O 348.994 5.3928 -1.85832 0
M  V30 3734 O 347.928 4.75552 -3.68964 0
M  V30 3735 H 351.754 1.65149 -2.54872 0
M  V30 3736 H 349.339 0.756486 -1.28832 0
M  V30 3737 H 351.221 3.90577 -1.58202 0
M  V30 3738 H 349.896 3.17385 -0.636271 0
M  V30 3739 H 348.803 2.44119 -2.83472 0
M  V30 3740 H 350.136 3.22675 -3.71674 0
M  V30 3741 N 351.788 1.33704 0.83433 0
M  V30 3742 C 353.013 1.28615 1.62705 0
M  V30 3743 C 353.438 -0.139242 1.87584 0
M  V30 3744 O 352.796 -1.09734 1.4432 0
M  V30 3745 C 352.844 2.07139 2.95171 0
M  V30 3746 O 351.948 1.4331 3.86699 0
M  V30 3747 H 351.289 0.44226 0.49528 0
M  V30 3748 H 353.819 1.76335 1.03766 0
M  V30 3749 H 353.829 2.18073 3.44831 0
M  V30 3750 H 352.504 3.10779 2.76386 0
M  V30 3751 H 351.081 1.4105 3.45195 0
M  V30 3752 N 353.266 -1.05314 1.17247 0
M  V30 3753 C 354.514 -1.77941 0.958194 0
M  V30 3754 C 354.835 -1.88089 -0.514556 0
M  V30 3755 O 354.105 -1.39676 -1.37359 0
M  V30 3756 H 352.685 -0.659116 0.351533 0
M  V30 3757 H 355.347 -1.27166 1.47699 0
M  V30 3758 H 354.443 -2.79663 1.38546 0
M  V30 3759 N 354.744 -0.972509 -1.24016 0
M  V30 3760 C 355.677 -0.45117 -2.23696 0
M  V30 3761 C 356.655 0.477378 -1.55434 0
M  V30 3762 O 357.839 0.407647 -1.84039 0
M  V30 3763 C 354.966 0.34818 -3.36906 0
M  V30 3764 C 354.012 -0.523355 -4.23277 0
M  V30 3765 S 354.845 -1.96647 -4.98087 0
M  V30 3766 C 356.001 -1.17604 -6.14752 0
M  V30 3767 H 356.234 -1.29588 -2.67571 0
M  V30 3768 H 353.767 -0.777903 -1.33372 0
M  V30 3769 H 355.725 0.803387 -4.02562 0
M  V30 3770 H 354.386 1.16792 -2.91579 0
M  V30 3771 H 353.579 0.0906181 -5.03919 0
M  V30 3772 H 353.181 -0.914485 -3.62647 0
M  V30 3773 H 355.473 -0.433434 -6.76112 0
M  V30 3774 H 356.416 -1.95701 -6.8052 0
M  V30 3775 H 356.824 -0.698295 -5.60164 0
M  V30 3776 N 356.222 1.38976 -0.743202 0
M  V30 3777 C 357.499 1.94351 -0.220705 0
M  V30 3778 C 357.879 1.67935 1.2791 0
M  V30 3779 O 357.227 1.01211 2.04862 0
M  V30 3780 C 357.437 3.44426 -0.563171 0
M  V30 3781 C 358.785 4.2144 -0.517046 0
M  V30 3782 O 359.809 3.52661 -0.500846 0
M  V30 3783 O 358.668 5.44032 -0.518806 0
M  V30 3784 H 355.762 0.825879 -0.043047 0
M  V30 3785 H 358.308 1.48429 -0.822618 0
M  V30 3786 H 357.08 3.5712 -1.59941 0
M  V30 3787 H 356.703 3.97543 0.0672883 0
M  V30 3788 N 357.7 0.491464 1.49741 0
M  V30 3789 C 358.663 -0.280906 2.27472 0
M  V30 3790 C 359.663 -0.902454 1.33088 0
M  V30 3791 O 360.853 -0.768465 1.56334 0
M  V30 3792 C 357.985 -1.40209 3.10732 0
M  V30 3793 H 359.178 0.401056 2.97206 0
M  V30 3794 H 356.731 0.246131 1.5435 0
M  V30 3795 H 357.466 -2.11849 2.45541 0
M  V30 3796 H 357.251 -0.961969 3.80117 0
M  V30 3797 H 358.741 -1.9464 3.69466 0
M  V30 3798 N 359.178 -1.55987 0.224894 0
M  V30 3799 C 360.425 -1.9839 -0.4059 0
M  V30 3800 C 360.753 -1.11261 -1.59535 0
M  V30 3801 O 360.008 -0.158314 -1.95059 0
M  V30 3802 C 360.307 -3.46394 -0.880106 0
M  V30 3803 C 359.973 -4.5046 0.19918 0
M  V30 3804 C 358.635 -4.7864 0.495661 0
M  V30 3805 C 360.987 -5.12855 0.928939 0
M  V30 3806 C 358.315 -5.66497 1.52636 0
M  V30 3807 C 360.667 -6.01828 1.949 0
M  V30 3808 C 359.331 -6.28351 2.25236 0
M  V30 3809 H 358.601 -0.725961 -0.148529 0
M  V30 3810 H 361.248 -1.88668 0.328113 0
M  V30 3811 H 359.553 -3.53337 -1.69294 0
M  V30 3812 H 361.25 -3.76577 -1.37808 0
M  V30 3813 H 357.84 -4.28579 -0.0420526 0
M  V30 3814 H 362.024 -4.9115 0.713129 0
M  V30 3815 H 357.28 -5.8531 1.76698 0
M  V30 3816 H 361.454 -6.49225 2.51951 0
M  V30 3817 H 359.081 -6.96226 3.05244 0
M  V30 3818 N 360.656 0.0484629 -1.57525 0
M  V30 3819 C 361.603 1.05504 -2.05275 0
M  V30 3820 C 362.573 1.37084 -0.937927 0
M  V30 3821 O 363.758 1.47754 -1.2072 0
M  V30 3822 C 360.898 2.35676 -2.52093 0
M  V30 3823 C 360.011 2.10423 -3.77288 0
M  V30 3824 C 359.146 3.34327 -4.12794 0
M  V30 3825 C 358.185 3.04542 -5.30962 0
M  V30 3826 N 357.322 4.20841 -5.61994 0
M  V30 3827 H 362.162 0.640885 -2.91027 0
M  V30 3828 H 359.699 0.304854 -1.43906 0
M  V30 3829 H 361.657 3.11709 -2.77297 0
M  V30 3830 H 360.287 2.7485 -1.69285 0
M  V30 3831 H 359.339 1.24976 -3.59284 0
M  V30 3832 H 360.651 1.84438 -4.63448 0
M  V30 3833 H 359.805 4.1874 -4.39024 0
M  V30 3834 H 358.544 3.63408 -3.25247 0
M  V30 3835 H 357.549 2.18528 -5.04505 0
M  V30 3836 H 358.774 2.76758 -6.20146 0
M  V30 3837 H 356.72 4.4991 -4.77406 0
M  V30 3838 H 356.637 3.98212 -6.42622 0
M  V30 3839 H 357.905 5.06184 -5.92789 0
M  V30 3840 N 362.134 1.5431 0.320358 0
M  V30 3841 C 363.044 1.86946 1.41734 0
M  V30 3842 C 364.06 0.761689 1.56443 0
M  V30 3843 O 365.236 1.05629 1.71477 0
M  V30 3844 C 362.301 2.09293 2.76401 0
M  V30 3845 C 361.362 3.33082 2.70841 0
M  V30 3846 C 360.595 3.54353 3.99086 0
M  V30 3847 O 360.818 2.79002 4.97508 0
M  V30 3848 O 359.752 4.47838 4.0215 0
M  V30 3849 H 363.578 2.80232 1.17062 0
M  V30 3850 H 361.163 1.40255 0.514673 0
M  V30 3851 H 363.045 2.25303 3.56113 0
M  V30 3852 H 361.72 1.19194 3.00956 0
M  V30 3853 H 360.627 3.22454 1.89668 0
M  V30 3854 H 361.96 4.23249 2.5124 0
M  V30 3855 N 363.613 -0.582584 1.46437 0
M  V30 3856 C 364.543 -1.70187 1.59871 0
M  V30 3857 C 365.524 -1.64066 0.449042 0
M  V30 3858 O 366.709 -1.82081 0.6753 0
M  V30 3859 C 363.839 -3.08827 1.58881 0
M  V30 3860 C 362.793 -3.29779 2.72819 0
M  V30 3861 C 362.119 -4.68947 2.5689 0
M  V30 3862 C 363.419 -3.17601 4.1464 0
M  V30 3863 H 365.113 -1.592 2.53566 0
M  V30 3864 H 362.659 -0.764472 1.22032 0
M  V30 3865 H 364.612 -3.86951 1.66873 0
M  V30 3866 H 363.336 -3.20713 0.617306 0
M  V30 3867 H 361.995 -2.54054 2.64296 0
M  V30 3868 H 361.643 -4.77599 1.57823 0
M  V30 3869 H 361.343 -4.83919 3.33312 0
M  V30 3870 H 362.867 -5.4924 2.66773 0
M  V30 3871 H 364.281 -3.8557 4.24274 0
M  V30 3872 H 362.678 -3.44094 4.9165 0
M  V30 3873 H 363.748 -2.14681 4.34788 0
M  V30 3874 N 365.091 -1.34144 -0.827227 0
M  V30 3875 C 366.054 -1.25264 -1.91942 0
M  V30 3876 C 367.054 -0.168866 -1.59911 0
M  V30 3877 O 368.244 -0.421198 -1.69031 0
M  V30 3878 C 365.376 -0.932952 -3.27885 0
M  V30 3879 H 366.569 -2.22357 -2.0124 0
M  V30 3880 H 364.122 -1.1837 -1.0207 0
M  V30 3881 H 364.857 0.0349917 -3.24281 0
M  V30 3882 H 364.642 -1.71682 -3.52516 0
M  V30 3883 H 366.132 -0.895874 -4.07877 0
M  V30 3884 N 366.569 1.04691 -1.17803 0
M  V30 3885 C 367.532 2.10724 -0.901545 0
M  V30 3886 C 368.532 1.6042 0.110437 0
M  V30 3887 O 369.722 1.7377 -0.122303 0
M  V30 3888 C 366.854 3.39084 -0.351409 0
M  V30 3889 H 368.047 2.36686 -1.84174 0
M  V30 3890 H 365.6 1.21015 -0.98919 0
M  V30 3891 H 366.335 3.18782 0.59569 0
M  V30 3892 H 366.12 3.76909 -1.08083 0
M  V30 3893 H 367.61 4.17227 -0.176451 0
M  V30 3894 N 368.047 0.979072 1.23499 0
M  V30 3895 C 368.979 0.476271 2.24197 0
M  V30 3896 C 369.992 -0.421166 1.57258 0
M  V30 3897 O 371.181 -0.225515 1.7707 0
M  V30 3898 C 368.281 -0.330503 3.37285 0
M  V30 3899 C 367.454 0.559744 4.33804 0
M  V30 3900 C 366.513 -0.192954 5.25846 0
M  V30 3901 O 365.539 0.416978 5.67671 0
M  V30 3902 N 366.741 -1.47932 5.61334 0
M  V30 3903 H 369.506 1.34211 2.67969 0
M  V30 3904 H 367.067 0.852189 1.37657 0
M  V30 3905 H 369.059 -0.842361 3.95836 0
M  V30 3906 H 367.629 -1.09734 2.92707 0
M  V30 3907 H 366.849 1.25245 3.73775 0
M  V30 3908 H 368.137 1.1665 4.95248 0
M  V30 3909 H 367.535 -1.9964 5.29302 0
M  V30 3910 H 366.092 -1.93664 6.22364 0
M  V30 3911 N 369.525 -1.3858 0.750561 0
M  V30 3912 C 370.435 -2.34278 0.122825 0
M  V30 3913 C 371.451 -1.59116 -0.704131 0
M  V30 3914 O 372.627 -1.91326 -0.628987 0
M  V30 3915 C 369.692 -3.38221 -0.762086 0
M  V30 3916 C 368.753 -4.29227 0.078896 0
M  V30 3917 C 367.986 -5.28205 -0.763874 0
M  V30 3918 O 368.209 -5.34112 -2.00201 0
M  V30 3919 O 367.143 -6.01618 -0.18428 0
M  V30 3920 H 370.969 -2.89649 0.913088 0
M  V30 3921 H 368.554 -1.40374 0.511417 0
M  V30 3922 H 370.436 -4.01872 -1.26793 0
M  V30 3923 H 369.111 -2.85211 -1.5309 0
M  V30 3924 H 368.018 -3.68747 0.630621 0
M  V30 3925 H 369.351 -4.85484 0.810289 0
M  V30 3926 N 371.003 -0.499398 -1.49478 0
M  V30 3927 C 372.251 0.0455996 -2.02049 0
M  V30 3928 C 372.572 1.37633 -1.38138 0
M  V30 3929 O 371.842 1.8842 -0.536166 0
M  V30 3930 H 370.422 0.0198416 -0.746736 0
M  V30 3931 H 373.084 -0.656274 -1.83519 0
M  V30 3932 H 372.18 0.176445 -3.11601 0
M  V30 3933 N 372.481 1.55866 -0.233164 0
M  V30 3934 C 373.411 2.23783 0.666599 0
M  V30 3935 C 374.392 1.21343 1.19205 0
M  V30 3936 O 375.577 1.4996 1.23392 0
M  V30 3937 C 372.707 2.92671 1.86978 0
M  V30 3938 C 371.661 4.01682 1.47768 0
M  V30 3939 C 370.987 4.57926 2.76058 0
M  V30 3940 C 372.287 5.18126 0.658993 0
M  V30 3941 H 373.981 2.99232 0.100306 0
M  V30 3942 H 371.527 1.43924 0.046804 0
M  V30 3943 H 373.48 3.3888 2.50476 0
M  V30 3944 H 372.204 2.14688 2.46123 0
M  V30 3945 H 370.863 3.56222 0.866106 0
M  V30 3946 H 370.511 3.76659 3.33372 0
M  V30 3947 H 370.211 5.31505 2.50552 0
M  V30 3948 H 371.735 5.06859 3.40479 0
M  V30 3949 H 373.149 5.60644 1.19795 0
M  V30 3950 H 371.546 5.98009 0.500552 0
M  V30 3951 H 372.616 4.83763 -0.331856 0
M  V30 3952 N 373.959 -0.0401083 1.57549 0
M  V30 3953 C 375.199 -0.738098 1.90608 0
M  V30 3954 C 375.563 -1.73107 0.830539 0
M  V30 3955 O 376.764 -2.4765 1.04513 0
M  V30 3956 C 375.035 -1.39985 3.28845 0
M  V30 3957 S 376.594 -2.12852 3.83718 0
M  V30 3958 H 373.412 -0.24477 0.667539 0
M  V30 3959 H 376.014 0.00693599 1.95499 0
M  V30 3960 H 374.718 -0.663775 4.04997 0
M  V30 3961 H 374.249 -2.18366 3.2723 0
M  V30 3962 H 376.264 -3.39842 3.61555 0
M  V30 3963 N 375.437 -1.54477 -0.31217 0
M  V30 3964 C 376.686 -1.72438 -1.04633 0
M  V30 3965 C 376.999 -0.511163 -1.88803 0
M  V30 3966 O 378.205 -0.572341 -2.65399 0
M  V30 3967 C 376.661 -3.05043 -1.9099 0
M  V30 3968 C 376.269 -4.33806 -1.11877 0
M  V30 3969 C 378.013 -3.32364 -2.64073 0
M  V30 3970 C 375.92 -5.57467 -1.97445 0
M  V30 3971 H 374.85 -0.642647 -0.394361 0
M  V30 3972 H 377.501 -1.80966 -0.303929 0
M  V30 3973 H 375.883 -2.90451 -2.69173 0
M  V30 3974 H 377.057 -4.59199 -0.383843 0
M  V30 3975 H 375.372 -4.13336 -0.504252 0
M  V30 3976 H 377.969 -4.21951 -3.28423 0
M  V30 3977 H 378.312 -2.50745 -3.32314 0
M  V30 3978 H 378.845 -3.47875 -1.92944 0
M  V30 3979 H 375.584 -6.41722 -1.33692 0
M  V30 3980 H 375.104 -5.36277 -2.6864 0
M  V30 3981 H 376.783 -5.94303 -2.5576 0
M  V30 3982 N 376.915 0.57481 -1.46744 0
M  V30 3983 C 377.878 1.66533 -1.57478 0
M  V30 3984 C 378.878 1.54338 -0.451263 0
M  V30 3985 O 380.068 1.58814 -0.715813 0
M  V30 3986 C 377.2 3.05999 -1.50259 0
M  V30 3987 H 378.393 1.58372 -2.54673 0
M  V30 3988 H 375.946 0.793301 -1.34672 0
M  V30 3989 H 376.681 3.19709 -0.543725 0
M  V30 3990 H 376.466 3.16259 -2.31781 0
M  V30 3991 H 377.956 3.8537 -1.60872 0
M  V30 3992 N 378.394 1.34581 0.820102 0
M  V30 3993 C 379.344 1.22943 1.92013 0
M  V30 3994 C 380.328 0.127802 1.60392 0
M  V30 3995 O 381.52 0.357737 1.73347 0
M  V30 3996 C 378.649 0.989938 3.28717 0
M  V30 3997 C 377.735 2.13486 3.66449 0
M  V30 3998 N 378.126 3.38625 3.75722 0
M  V30 3999 C 376.424 2.04573 3.96315 0
M  V30 4000 C 377.125 4.13832 4.08801 0
M  V30 4001 N 376.101 3.42451 4.22171 0
M  V30 4002 H 379.903 2.17771 1.97365 0
M  V30 4003 H 377.417 1.2686 1.01392 0
M  V30 4004 H 379.414 0.887462 4.07345 0
M  V30 4005 H 378.074 0.0503691 3.24661 0
M  V30 4006 H 379.085 3.73143 3.59144 0
M  V30 4007 H 375.762 1.1839 4.00362 0
M  V30 4008 H 377.152 5.21909 4.23156 0
M  V30 4009 N 379.872 -1.04064 1.18357 0
M  V30 4010 C 381.097 -1.81454 1.00445 0
M  V30 4011 C 381.522 -1.82823 -0.442423 0
M  V30 4012 O 380.88 -1.24555 -1.31741 0
M  V30 4013 C 380.928 -3.24925 1.56384 0
M  V30 4014 O 380.032 -4.04856 0.785209 0
M  V30 4015 H 379.373 -0.560604 0.355835 0
M  V30 4016 H 381.903 -1.31059 1.57114 0
M  V30 4017 H 381.913 -3.75702 1.59097 0
M  V30 4018 H 380.588 -3.23244 2.61699 0
M  V30 4019 H 379.165 -3.63537 0.830399 0
M  V30 4020 N 381.35 -0.985608 -1.22978 0
M  V30 4021 C 382.627 -0.573599 -1.87001 0
M  V30 4022 C 383.007 0.949213 -1.88555 0
M  V30 4023 O 382.355 1.82811 -1.37086 0
M  V30 4024 C 382.565 -1.18564 -3.28243 0
M  V30 4025 C 383.913 -1.28163 -4.04796 0
M  V30 4026 O 384.937 -1.13949 -3.37482 0
M  V30 4027 O 383.796 -1.50832 -5.25273 0
M  V30 4028 H 380.89 -0.193868 -0.803955 0
M  V30 4029 H 383.436 -1.08102 -1.30813 0
M  V30 4030 H 382.208 -2.22758 -3.21706 0
M  V30 4031 H 381.831 -0.663363 -3.92027 0
M  V30 4032 N 382.828 1.3818 -0.7579 0
M  V30 4033 C 383.775 2.30416 -0.133057 0
M  V30 4034 C 384.745 1.50398 0.704957 0
M  V30 4035 O 385.93 1.79014 0.660192 0
M  V30 4036 C 383.07 3.36834 0.750813 0
M  V30 4037 C 382.183 4.31879 -0.102297 0
M  V30 4038 C 381.318 5.25368 0.784979 0
M  V30 4039 C 380.357 6.12058 -0.0715046 0
M  V30 4040 N 379.494 6.97832 0.772972 0
M  V30 4041 H 384.334 2.83274 -0.925186 0
M  V30 4042 H 381.871 1.39461 -0.467866 0
M  V30 4043 H 383.829 3.97145 1.27794 0
M  V30 4044 H 382.459 2.85374 1.50868 0
M  V30 4045 H 381.511 3.72991 -0.747095 0
M  V30 4046 H 382.823 4.92921 -0.763552 0
M  V30 4047 H 381.977 5.90818 1.37911 0
M  V30 4048 H 380.716 4.64703 1.47996 0
M  V30 4049 H 379.721 5.456 -0.678272 0
M  V30 4050 H 380.946 6.74793 -0.763606 0
M  V30 4051 H 378.892 6.3971 1.45282 0
M  V30 4052 H 378.809 7.55812 0.168709 0
M  V30 4053 H 380.077 7.67687 1.35194 0
M  V30 4054 N 384.306 0.507319 1.49211 0
M  V30 4055 C 385.555 -0.0368315 2.01666 0
M  V30 4056 C 385.868 -1.37459 1.39156 0
M  V30 4057 O 387.074 -2.00579 1.82976 0
M  V30 4058 C 385.53 -0.116089 3.59713 0
M  V30 4059 C 385.138 1.2154 4.31198 0
M  V30 4060 C 386.882 -0.610268 4.2009 0
M  V30 4061 C 384.789 1.09796 5.81119 0
M  V30 4062 H 383.719 -0.0175376 0.753796 0
M  V30 4063 H 386.37 0.647691 1.71689 0
M  V30 4064 H 384.752 -0.8652 3.86433 0
M  V30 4065 H 385.926 1.9783 4.16173 0
M  V30 4066 H 384.241 1.64352 3.82593 0
M  V30 4067 H 386.838 -0.715742 5.29888 0
M  V30 4068 H 387.181 -1.61064 3.8388 0
M  V30 4069 H 387.714 0.0824916 3.97714 0
M  V30 4070 H 384.453 2.0728 6.21864 0
M  V30 4071 H 383.973 0.376058 5.9862 0
M  V30 4072 H 385.652 0.779281 6.4229 0
M  V30 4073 N 385.784 -1.5574 0.241426 0
M  V30 4074 C 387.014 -2.02913 -0.38857 0
M  V30 4075 C 387.422 -1.12014 -1.52478 0
M  V30 4076 O 386.765 -0.125903 -1.83268 0
M  V30 4077 C 386.827 -3.4636 -0.963075 0
M  V30 4078 C 386.491 -4.56982 0.0401916 0
M  V30 4079 C 387.488 -5.12941 0.847766 0
M  V30 4080 C 385.173 -5.0203 0.164699 0
M  V30 4081 C 387.167 -6.12437 1.76636 0
M  V30 4082 C 384.854 -6.01358 1.0868 0
M  V30 4083 C 385.852 -6.5644 1.88616 0
M  V30 4084 O 385.54 -7.53831 2.79273 0
M  V30 4085 H 385.272 -0.668983 -0.0971452 0
M  V30 4086 H 387.826 -2.02198 0.361248 0
M  V30 4087 H 386.056 -3.44206 -1.76235 0
M  V30 4088 H 387.745 -3.77065 -1.50257 0
M  V30 4089 H 388.511 -4.78974 0.762133 0
M  V30 4090 H 384.39 -4.58824 -0.447411 0
M  V30 4091 H 387.934 -6.55355 2.39071 0
M  V30 4092 H 383.831 -6.34746 1.17338 0
M  V30 4093 H 384.599 -7.71428 2.73572 0
M  V30 4094 N 387.262 0.0317525 -1.57568 0
M  V30 4095 C 388.487 0.738664 -1.938 0
M  V30 4096 C 388.912 1.68242 -0.841208 0
M  V30 4097 O 388.27 1.80157 0.203267 0
M  V30 4098 C 388.318 1.47417 -3.29091 0
M  V30 4099 O 387.422 2.5872 -3.2115 0
M  V30 4100 H 386.763 0.198856 -0.633524 0
M  V30 4101 H 389.293 -0.0119713 -2.04596 0
M  V30 4102 H 389.303 1.84468 -3.63917 0
M  V30 4103 H 387.978 0.781988 -4.08482 0
M  V30 4104 H 386.555 2.24231 -2.97951 0
M  V30 4105 N 388.74 1.54641 0.303973 0
M  V30 4106 C 389.688 1.86137 1.39484 0
M  V30 4107 C 390.682 0.734854 1.52631 0
M  V30 4108 O 391.888 0.918803 1.54784 0
M  V30 4109 H 388.263 0.590324 0.465856 0
M  V30 4110 H 390.234 2.77324 1.10154 0
M  V30 4111 C 388.983 2.12274 2.75382 0
M  V30 4112 H 388.306 2.98429 2.66046 0
M  V30 4113 H 389.746 2.38254 3.5073 0
M  V30 4114 C 388.205 0.920365 3.24085 0
M  V30 4115 O 388.735 0.139377 4.01458 0
M  V30 4116 N 386.941 0.726566 2.81371 0
M  V30 4117 H 386.488 1.36332 2.18567 0
M  V30 4118 H 386.446 -0.0763799 3.14307 0
M  V30 4119 N 390.218 -0.567019 1.47046 0
M  V30 4120 C 391.181 -1.65696 1.58359 0
M  V30 4121 C 392.181 -1.54097 0.459441 0
M  V30 4122 O 393.371 -1.58432 0.724225 0
M  V30 4123 C 390.503 -3.05197 1.51879 0
M  V30 4124 H 391.696 -1.57019 2.5551 0
M  V30 4125 H 389.249 -0.786148 1.3509 0
M  V30 4126 H 389.984 -3.19417 0.560673 0
M  V30 4127 H 389.769 -3.15025 2.33455 0
M  V30 4128 H 391.259 -3.84511 1.62913 0
M  V30 4129 N 391.696 -1.35014 -0.812953 0
M  V30 4130 C 392.944 -1.27678 -1.56661 0
M  V30 4131 C 393.265 0.150359 -1.94419 0
M  V30 4132 O 392.535 1.08532 -1.63088 0
M  V30 4133 H 391.115 -0.469602 -0.580933 0
M  V30 4134 H 393.777 -1.69043 -0.970076 0
M  V30 4135 H 392.873 -1.88833 -2.48492 0
M  V30 4136 N 393.175 1.03435 -1.18907 0
M  V30 4137 C 394.085 2.15075 -0.937015 0
M  V30 4138 C 395.101 1.73706 0.101085 0
M  V30 4139 O 396.277 2.01232 -0.0822948 0
M  V30 4140 C 393.342 3.43458 -0.473057 0
M  V30 4141 C 392.403 3.99172 -1.57989 0
M  V30 4142 C 391.636 5.21427 -1.13797 0
M  V30 4143 O 391.859 5.704 0.000725941 0
M  V30 4144 O 390.793 5.69837 -1.9383 0
M  V30 4145 H 394.619 2.39198 -1.87131 0
M  V30 4146 H 392.204 1.13506 -0.971427 0
M  V30 4147 H 394.086 4.20811 -0.222702 0
M  V30 4148 H 392.761 3.20793 0.432869 0
M  V30 4149 H 391.668 3.23178 -1.88433 0
M  V30 4150 H 393.001 4.2619 -2.46217 0
M  V30 4151 N 394.653 0.992116 1.22453 0
M  V30 4152 C 395.6 0.541731 2.24352 0
M  V30 4153 C 396.57 -0.425519 1.60557 0
M  V30 4154 O 397.755 -0.330453 1.87917 0
M  V30 4155 C 394.895 -0.138248 3.44823 0
M  V30 4156 C 394.008 0.870649 4.23136 0
M  V30 4157 C 393.143 0.164269 5.30946 0
M  V30 4158 C 392.182 1.16159 6.00977 0
M  V30 4159 N 391.319 0.483568 7.00433 0
M  V30 4160 H 396.159 1.41541 2.62241 0
M  V30 4161 H 393.696 0.709013 1.28885 0
M  V30 4162 H 395.654 -0.5494 4.13567 0
M  V30 4163 H 394.284 -0.975721 3.077 0
M  V30 4164 H 393.336 1.40013 3.53696 0
M  V30 4165 H 394.648 1.63014 4.7141 0
M  V30 4166 H 393.802 -0.303653 6.0594 0
M  V30 4167 H 392.541 -0.627733 4.83643 0
M  V30 4168 H 391.546 1.64015 5.24766 0
M  V30 4169 H 392.771 1.95445 6.50368 0
M  V30 4170 H 390.717 -0.289012 6.55363 0
M  V30 4171 H 390.634 1.18152 7.4671 0
M  V30 4172 H 391.902 0.0384219 7.79491 0
M  V30 4173 N 396.131 -1.37776 0.765217 0
M  V30 4174 C 397.356 -2.04651 0.336537 0
M  V30 4175 C 397.781 -1.57337 -1.03086 0
M  V30 4176 O 397.139 -0.730621 -1.65927 0
M  V30 4177 C 397.187 -3.58577 0.381468 0
M  V30 4178 O 396.291 -4.07706 -0.62042 0
M  V30 4179 H 395.632 -0.64756 0.146838 0
M  V30 4180 H 398.162 -1.76221 1.03959 0
M  V30 4181 H 398.172 -4.07314 0.236448 0
M  V30 4182 H 396.847 -3.9237 1.37907 0
M  V30 4183 H 395.424 -3.70306 -0.439056 0
M  V30 4184 N 397.609 -0.515225 -1.4894 0
M  V30 4185 C 398.856 0.024215 -2.02486 0
M  V30 4186 C 399.184 1.35671 -1.39368 0
M  V30 4187 O 398.439 1.88566 -0.523574 0
M  V30 4188 C 398.738 0.210595 -3.56779 0
M  V30 4189 C 398.404 -1.04569 -4.38607 0
M  V30 4190 C 397.066 -1.39002 -4.60686 0
M  V30 4191 C 399.418 -1.88008 -4.86109 0
M  V30 4192 C 396.746 -2.568 -5.27514 0
M  V30 4193 C 399.098 -3.04972 -5.54234 0
M  V30 4194 C 397.762 -3.39768 -5.74555 0
M  V30 4195 H 397.032 0.00886088 -0.740947 0
M  V30 4196 H 399.679 -0.678263 -1.79086 0
M  V30 4197 H 397.984 0.99572 -3.78936 0
M  V30 4198 H 399.681 0.642659 -3.95817 0
M  V30 4199 H 396.271 -0.767497 -4.21672 0
M  V30 4200 H 400.455 -1.62719 -4.68867 0
M  V30 4201 H 395.711 -2.8398 -5.41447 0
M  V30 4202 H 399.885 -3.69943 -5.90013 0
M  V30 4203 H 397.512 -4.31148 -6.26112 0
M  V30 4204 N 399.087 1.5561 -0.249682 0
M  V30 4205 C 400.364 1.90932 0.424761 0
M  V30 4206 C 400.744 1.17078 1.75658 0
M  V30 4207 O 400.092 0.289176 2.26663 0
M  V30 4208 C 400.302 3.43975 0.590109 0
M  V30 4209 C 401.65 4.15281 0.884714 0
M  V30 4210 O 402.674 3.49729 0.67587 0
M  V30 4211 O 401.533 5.31236 1.28259 0
M  V30 4212 H 398.627 0.794815 0.228468 0
M  V30 4213 H 401.173 1.67135 -0.293954 0
M  V30 4214 H 399.945 3.89748 -0.34818 0
M  V30 4215 H 399.568 3.73644 1.35926 0
M  V30 4216 N 400.565 -0.0233959 1.57583 0
M  V30 4217 C 401.981 -0.379134 1.55031 0
M  V30 4218 C 402.181 -1.76255 0.976548 0
M  V30 4219 O 401.237 -2.45266 0.600078 0
M  V30 4220 C 402.55 -0.275792 2.99433 0
M  V30 4221 C 404.098 -0.352458 3.11009 0
M  V30 4222 C 404.573 -0.278501 4.57152 0
M  V30 4223 N 406.064 -0.337123 4.61972 0
M  V30 4224 C 406.799 -0.302876 5.726 0
M  V30 4225 N 406.295 -0.220589 6.92449 0
M  V30 4226 N 408.088 -0.353023 5.6099 0
M  V30 4227 H 400.239 0.881869 1.93227 0
M  V30 4228 H 402.502 0.335867 0.886509 0
M  V30 4229 H 402.208 0.675108 3.4516 0
M  V30 4230 H 402.082 -1.06721 3.61788 0
M  V30 4231 H 404.469 -1.29379 2.65226 0
M  V30 4232 H 404.55 0.468409 2.51475 0
M  V30 4233 H 404.194 0.659189 5.03604 0
M  V30 4234 H 404.124 -1.11755 5.14605 0
M  V30 4235 H 406.615 -0.403002 3.75745 0
M  V30 4236 H 406.928 -0.199713 7.72542 0
M  V30 4237 H 405.273 -0.186555 6.9475 0
M  V30 4238 H 408.464 -0.415339 4.66254 0
M  V30 4239 H 408.637 -0.322866 6.47195 0
M  V30 4240 N 402.043 -1.548 -0.295768 0
M  V30 4241 C 402.973 -1.89115 -1.36959 0
M  V30 4242 C 403.954 -0.75059 -1.52644 0
M  V30 4243 O 405.139 -1.00678 -1.66065 0
M  V30 4244 C 402.269 -2.14307 -2.73295 0
M  V30 4245 C 401.223 -3.30151 -2.72368 0
M  V30 4246 C 400.549 -3.40772 -4.12042 0
M  V30 4247 C 401.849 -4.67126 -2.33646 0
M  V30 4248 H 403.543 -2.79053 -1.08488 0
M  V30 4249 H 401.089 -1.34266 -0.520443 0
M  V30 4250 H 403.042 -2.36898 -3.48507 0
M  V30 4251 H 401.766 -1.21145 -3.03301 0
M  V30 4252 H 400.425 -3.0749 -1.99613 0
M  V30 4253 H 400.073 -2.45117 -4.39234 0
M  V30 4254 H 399.773 -4.18645 -4.12322 0
M  V30 4255 H 401.297 -3.6563 -4.89027 0
M  V30 4256 H 402.711 -4.89414 -2.98575 0
M  V30 4257 H 401.108 -5.47751 -2.45129 0
M  V30 4258 H 402.178 -4.67489 -1.28772 0
M  V30 4259 N 403.521 0.559213 -1.47345 0
M  V30 4260 C 404.451 1.67622 -1.62558 0
M  V30 4261 C 405.432 1.63331 -0.475087 0
M  V30 4262 O 406.617 1.80983 -0.704182 0
M  V30 4263 C 403.747 3.0626 -1.63774 0
M  V30 4264 C 402.701 3.25397 -2.7803 0
M  V30 4265 C 402.027 4.64801 -2.64318 0
M  V30 4266 C 403.327 3.10965 -4.19641 0
M  V30 4267 H 405.021 1.55146 -2.56067 0
M  V30 4268 H 402.567 0.744961 -1.23233 0
M  V30 4269 H 404.52 3.84247 -1.73008 0
M  V30 4270 H 403.244 3.1969 -0.66825 0
M  V30 4271 H 401.903 2.49817 -2.68304 0
M  V30 4272 H 401.551 4.75028 -1.65401 0
M  V30 4273 H 401.251 4.78555 -3.40968 0
M  V30 4274 H 402.775 5.44926 -2.75478 0
M  V30 4275 H 404.189 3.78772 -4.30354 0
M  V30 4276 H 402.586 3.36229 -4.97062 0
M  V30 4277 H 403.656 2.07736 -4.38148 0
M  V30 4278 N 404.999 1.35443 0.805782 0
M  V30 4279 C 406.415 1.15499 1.10146 0
M  V30 4280 C 406.615 -0.0319975 2.01475 0
M  V30 4281 O 405.671 -0.70236 2.42535 0
M  V30 4282 C 406.984 2.45833 1.73166 0
M  V30 4283 C 408.532 2.52047 1.85583 0
M  V30 4284 C 409.007 3.82427 2.52019 0
M  V30 4285 N 410.498 3.83682 2.59504 0
M  V30 4286 C 411.233 4.81294 3.11679 0
M  V30 4287 N 410.729 5.89294 3.64287 0
M  V30 4288 N 412.522 4.6873 3.1024 0
M  V30 4289 H 404.673 2.11469 0.198678 0
M  V30 4290 H 406.936 0.93594 0.150731 0
M  V30 4291 H 406.642 3.32874 1.13526 0
M  V30 4292 H 406.516 2.6044 2.72857 0
M  V30 4293 H 408.903 1.65435 2.44367 0
M  V30 4294 H 408.984 2.41354 0.847455 0
M  V30 4295 H 408.628 4.69437 1.93885 0
M  V30 4296 H 408.558 3.90409 3.53395 0
M  V30 4297 H 411.049 3.05648 2.22234 0
M  V30 4298 H 411.362 6.59768 4.02401 0
M  V30 4299 H 409.707 5.92985 3.62483 0
M  V30 4300 H 412.898 3.83496 2.68419 0
M  V30 4301 H 413.071 5.44965 3.50596 0
M  V30 4302 N 406.477 -1.02803 1.19454 0
M  V30 4303 C 407.424 -2.11099 0.933046 0
M  V30 4304 C 408.394 -1.65571 -0.132447 0
M  V30 4305 O 409.579 -1.90797 0.00987576 0
M  V30 4306 C 406.719 -3.41763 0.478747 0
M  V30 4307 C 405.832 -4.00833 1.6111 0
M  V30 4308 C 404.967 -5.19511 1.10825 0
M  V30 4309 C 404.006 -5.70639 2.21445 0
M  V30 4310 N 403.143 -6.80589 1.72461 0
M  V30 4311 H 407.983 -2.32804 1.86028 0
M  V30 4312 H 405.52 -1.14179 0.927441 0
M  V30 4313 H 407.478 -4.16736 0.196745 0
M  V30 4314 H 406.108 -3.20166 -0.411493 0
M  V30 4315 H 405.16 -3.23066 2.00829 0
M  V30 4316 H 406.472 -4.34794 2.4445 0
M  V30 4317 H 405.626 -6.01645 0.781533 0
M  V30 4318 H 404.365 -4.87086 0.244606 0
M  V30 4319 H 403.37 -4.87116 2.54947 0
M  V30 4320 H 404.595 -6.05102 3.08267 0
M  V30 4321 H 402.541 -6.50016 0.884056 0
M  V30 4322 H 402.458 -7.13681 2.49389 0
M  V30 4323 H 403.726 -7.66317 1.42755 0
M  V30 4324 N 407.956 -0.998596 -1.21925 0
M  V30 4325 C 408.886 -0.573688 -2.26343 0
M  V30 4326 C 409.867 0.402296 -1.65274 0
M  V30 4327 O 411.052 0.291683 -1.91997 0
M  V30 4328 C 408.182 0.106839 -3.47136 0
M  V30 4329 C 407.136 -0.788269 -4.20678 0
M  V30 4330 C 406.462 0.0254927 -5.34694 0
M  V30 4331 C 407.762 -2.08784 -4.78755 0
M  V30 4332 H 409.456 -1.44651 -2.62138 0
M  V30 4333 H 407.002 -0.696975 -1.26009 0
M  V30 4334 H 408.955 0.415531 -4.19346 0
M  V30 4335 H 407.679 1.01424 -3.10452 0
M  V30 4336 H 406.338 -1.08069 -3.50309 0
M  V30 4337 H 405.986 0.933989 -4.94253 0
M  V30 4338 H 405.686 -0.570437 -5.84825 0
M  V30 4339 H 407.21 0.328147 -6.09718 0
M  V30 4340 H 408.624 -1.84272 -5.42878 0
M  V30 4341 H 407.021 -2.63307 -5.39249 0
M  V30 4342 H 408.091 -2.76284 -3.98491 0
M  V30 4343 N 409.434 1.37368 -0.772513 0
M  V30 4344 C 410.85 1.53059 -0.452231 0
M  V30 4345 C 411.05 1.73065 1.03203 0
M  V30 4346 O 410.106 1.75245 1.81784 0
M  V30 4347 C 411.419 2.72659 -1.26797 0
M  V30 4348 C 412.967 2.86521 -1.25995 0
M  V30 4349 C 413.442 4.09105 -2.05905 0
M  V30 4350 N 414.933 4.16219 -2.03263 0
M  V30 4351 C 415.668 5.10107 -2.61875 0
M  V30 4352 N 415.164 6.09547 -3.29278 0
M  V30 4353 N 416.957 5.02596 -2.51701 0
M  V30 4354 H 409.108 1.22634 -1.7342 0
M  V30 4355 H 411.371 0.597206 -0.736239 0
M  V30 4356 H 411.077 2.64343 -2.31982 0
M  V30 4357 H 410.951 3.66363 -0.897672 0
M  V30 4358 H 413.338 2.94308 -0.216081 0
M  V30 4359 H 413.419 1.93774 -1.66989 0
M  V30 4360 H 413.063 4.0208 -3.10313 0
M  V30 4361 H 412.993 5.00968 -1.62292 0
M  V30 4362 H 415.484 3.45012 -1.54192 0
M  V30 4363 H 415.797 6.77718 -3.71374 0
M  V30 4364 H 414.142 6.09824 -3.33377 0
M  V30 4365 H 417.333 4.23855 -1.98657 0
M  V30 4366 H 417.506 5.75582 -2.97673 0
M  V30 4367 N 410.912 0.523116 1.48665 0
M  V30 4368 C 411.822 -0.247406 2.33292 0
M  V30 4369 C 412.838 -0.945769 1.46052 0
M  V30 4370 O 414.014 -0.922253 1.79043 0
M  V30 4371 C 411.079 -1.28487 3.22012 0
M  V30 4372 C 410.14 -0.597592 4.2512 0
M  V30 4373 C 409.373 -1.58563 5.09601 0
M  V30 4374 O 409.596 -2.81763 4.95949 0
M  V30 4375 O 408.53 -1.12879 5.91221 0
M  V30 4376 H 412.356 0.445869 3.00409 0
M  V30 4377 H 409.941 0.284128 1.46673 0
M  V30 4378 H 411.823 -1.88459 3.7691 0
M  V30 4379 H 410.498 -1.96068 2.57564 0
M  V30 4380 H 409.405 0.0424407 3.74076 0
M  V30 4381 H 410.738 0.0361517 4.92187 0
M  V30 4382 N 412.39 -1.55475 0.257931 0
M  V30 4383 C 413.806 -1.59307 -0.0966563 0
M  V30 4384 C 414.006 -1.27514 -1.5602 0
M  V30 4385 O 413.062 -1.02774 -2.30637 0
M  V30 4386 C 414.375 -2.99552 0.262481 0
M  V30 4387 C 415.923 -3.1231 0.207683 0
M  V30 4388 C 416.398 -4.54793 0.541012 0
M  V30 4389 N 417.889 -4.6058 0.491921 0
M  V30 4390 C 418.624 -5.68825 0.722857 0
M  V30 4391 N 418.12 -6.85287 1.0175 0
M  V30 4392 N 419.913 -5.58296 0.652815 0
M  V30 4393 H 412.064 -1.74409 1.21224 0
M  V30 4394 H 414.327 -0.812424 0.48854 0
M  V30 4395 H 414.033 -3.27593 1.27967 0
M  V30 4396 H 413.907 -3.75019 -0.40508 0
M  V30 4397 H 416.294 -2.84044 -0.800195 0
M  V30 4398 H 416.375 -2.39095 0.909255 0
M  V30 4399 H 416.019 -4.83783 1.5465 0
M  V30 4400 H 415.949 -5.26285 -0.18216 0
M  V30 4401 H 418.44 -3.7691 0.273366 0
M  V30 4402 H 418.753 -7.63725 1.18084 0
M  V30 4403 H 417.098 -6.86945 1.05509 0
M  V30 4404 H 420.289 -4.66189 0.422592 0
M  V30 4405 H 420.462 -6.42582 0.836182 0
M  V30 4406 N 413.868 0.0150385 -1.57593 0
M  V30 4407 C 414.798 1.01047 -2.10503 0
M  V30 4408 C 415.779 1.36816 -1.01071 0
M  V30 4409 O 416.964 1.45455 -1.28672 0
M  V30 4410 C 414.094 2.30708 -2.59598 0
M  V30 4411 C 413.048 2.09142 -3.73421 0
M  V30 4412 C 412.374 3.44685 -4.08774 0
M  V30 4413 C 413.674 1.46619 -5.01298 0
M  V30 4414 H 415.368 0.569978 -2.93925 0
M  V30 4415 H 412.914 0.272724 -1.41394 0
M  V30 4416 H 414.867 3.00687 -2.95238 0
M  V30 4417 H 413.591 2.76843 -1.73279 0
M  V30 4418 H 412.25 1.41592 -3.38153 0
M  V30 4419 H 411.898 3.88495 -3.195 0
M  V30 4420 H 411.598 3.31077 -4.8545 0
M  V30 4421 H 413.122 4.16004 -4.4696 0
M  V30 4422 H 414.536 2.06535 -5.34805 0
M  V30 4423 H 412.933 1.43544 -5.82679 0
M  V30 4424 H 414.003 0.433611 -4.82957 0
M  V30 4425 N 415.346 1.54954 0.287554 0
M  V30 4426 C 416.757 1.65732 0.859634 0
M  V30 4427 C 417.108 0.574767 1.87592 0
M  V30 4428 O 416.233 -0.286299 2.14498 0
M  V30 4429 C 416.828 3.00438 1.56597 0
M  V30 4430 C 415.387 3.13292 2.08627 0
M  V30 4431 C 414.534 2.61473 0.923416 0
M  V30 4432 H 417.485 1.5857 0.0642338 0
M  V30 4433 H 417.506 2.92613 2.43224 0
M  V30 4434 H 417.018 3.79207 0.826053 0
M  V30 4435 H 415.119 2.39268 2.85625 0
M  V30 4436 H 415.232 4.19647 2.31157 0
M  V30 4437 H 413.596 2.18264 1.31275 0
M  V30 4438 H 414.379 3.42733 0.197241 0
M  V30 4439 N 416.824 -0.551391 1.4764 0
M  V30 4440 C 417.771 -1.65796 1.60563 0
M  V30 4441 C 418.741 -1.59932 0.448428 0
M  V30 4442 O 419.926 -1.78679 0.669222 0
M  V30 4443 C 417.066 -3.04108 1.63133 0
M  V30 4444 C 416.179 -3.20365 2.89811 0
M  V30 4445 C 415.314 -4.49109 2.8368 0
M  V30 4446 C 414.353 -4.58819 4.05156 0
M  V30 4447 N 413.49 -5.78926 3.97227 0
M  V30 4448 H 418.33 -1.54088 2.5507 0
M  V30 4449 H 415.867 -0.75052 1.26513 0
M  V30 4450 H 417.825 -3.84207 1.62606 0
M  V30 4451 H 416.455 -3.14637 0.721341 0
M  V30 4452 H 415.507 -2.33659 3.00179 0
M  V30 4453 H 416.819 -3.23402 3.79753 0
M  V30 4454 H 415.973 -5.37475 2.81434 0
M  V30 4455 H 414.712 -4.4856 1.91431 0
M  V30 4456 H 413.717 -3.68864 4.077 0
M  V30 4457 H 414.942 -4.61124 4.98539 0
M  V30 4458 H 412.888 -5.79314 3.07785 0
M  V30 4459 H 412.805 -5.83367 4.80853 0
M  V30 4460 H 414.073 -6.69637 3.99007 0
M  V30 4461 N 418.302 -1.35869 -0.798587 0
M  V30 4462 C 419.265 -1.29307 -1.89242 0
M  V30 4463 C 420.265 -0.202747 -1.59517 0
M  V30 4464 O 421.455 -0.456957 -1.681 0
M  V30 4465 C 418.587 -1.00229 -3.25833 0
M  V30 4466 H 419.78 -2.26576 -1.96478 0
M  V30 4467 H 417.333 -1.20509 -0.995358 0
M  V30 4468 H 418.068 -0.033801 -3.24282 0
M  V30 4469 H 417.853 -1.79121 -3.48795 0
M  V30 4470 H 419.343 -0.98219 -4.05885 0
M  V30 4471 N 419.78 1.02168 -1.19998 0
M  V30 4472 C 421.196 1.27969 -0.953737 0
M  V30 4473 C 421.396 1.98079 0.369703 0
M  V30 4474 O 420.452 2.27306 1.09947 0
M  V30 4475 C 421.765 2.11971 -2.13281 0
M  V30 4476 C 423.313 2.25255 -2.17323 0
M  V30 4477 C 423.788 3.12632 -3.34702 0
M  V30 4478 N 425.279 3.2022 -3.34684 0
M  V30 4479 C 426.014 3.88039 -4.22153 0
M  V30 4480 N 425.51 4.58027 -5.19791 0
M  V30 4481 N 427.303 3.84511 -4.10009 0
M  V30 4482 H 419.454 0.550794 -2.05134 0
M  V30 4483 H 421.717 0.305683 -0.897364 0
M  V30 4484 H 421.423 1.67785 -3.09097 0
M  V30 4485 H 421.297 3.12699 -2.10949 0
M  V30 4486 H 423.684 2.68667 -1.22073 0
M  V30 4487 H 423.765 1.24053 -2.23706 0
M  V30 4488 H 423.409 2.69926 -4.30235 0
M  V30 4489 H 423.339 4.13909 -3.25556 0
M  V30 4490 H 425.83 2.70382 -2.64012 0
M  V30 4491 H 426.143 5.07429 -5.82868 0
M  V30 4492 H 424.488 4.56869 -5.23733 0
M  V30 4493 H 427.679 3.28978 -3.33003 0
M  V30 4494 H 427.852 4.3709 -4.78389 0
M  V30 4495 N 421.258 1.00505 1.21394 0
M  V30 4496 C 422.504 0.688793 1.90745 0
M  V30 4497 C 422.837 -0.778486 1.77914 0
M  V30 4498 O 422.112 -1.56433 1.15581 0
M  V30 4499 C 422.395 1.11063 3.42545 0
M  V30 4500 C 422.248 2.63737 3.64367 0
M  V30 4501 C 423.567 0.673059 4.34923 0
M  V30 4502 H 420.686 0.251702 0.692687 0
M  V30 4503 H 423.328 1.25074 1.43026 0
M  V30 4504 H 421.478 0.632508 3.83317 0
M  V30 4505 H 423.15 3.19313 3.32922 0
M  V30 4506 H 421.393 3.05248 3.08231 0
M  V30 4507 H 422.064 2.88305 4.70727 0
M  V30 4508 H 424.54 1.08392 4.01734 0
M  V30 4509 H 423.416 0.996383 5.39781 0
M  V30 4510 H 423.677 -0.425808 4.40045 0
M  V30 4511 N 422.737 -1.36956 0.779787 0
M  V30 4512 C 423.983 -1.99787 0.348281 0
M  V30 4513 C 424.316 -1.61756 -1.07465 0
M  V30 4514 O 423.591 -0.867639 -1.74075 0
M  V30 4515 C 423.874 -3.56597 0.50104 0
M  V30 4516 C 423.727 -4.04513 1.96697 0
M  V30 4517 C 425.046 -4.40008 -0.0898097 0
M  V30 4518 H 422.165 -0.725796 0.128022 0
M  V30 4519 H 424.807 -1.62514 0.984331 0
M  V30 4520 H 422.957 -3.88479 -0.0404347 0
M  V30 4521 H 424.629 -3.83161 2.56876 0
M  V30 4522 H 422.872 -3.56408 2.47297 0
M  V30 4523 H 423.543 -5.1352 2.02486 0
M  V30 4524 H 426.019 -4.14431 0.372293 0
M  V30 4525 H 424.895 -5.4888 0.0471605 0
M  V30 4526 H 425.156 -4.26035 -1.18096 0
M  V30 4527 N 424.215 -0.530993 -1.48385 0
M  V30 4528 C 425.461 0.00274135 -2.028 0
M  V30 4529 C 425.794 1.33838 -1.40716 0
M  V30 4530 O 425.069 1.86465 -0.553277 0
M  V30 4531 C 425.352 0.123676 -3.59888 0
M  V30 4532 C 425.205 -1.2372 -4.3245 0
M  V30 4533 C 426.524 0.849967 -4.31814 0
M  V30 4534 H 423.643 -0.000477758 -0.737 0
M  V30 4535 H 426.285 -0.688217 -1.77098 0
M  V30 4536 H 424.435 0.712157 -3.81917 0
M  V30 4537 H 426.107 -1.86687 -4.21836 0
M  V30 4538 H 424.35 -1.81882 -3.93829 0
M  V30 4539 H 425.021 -1.10557 -5.40815 0
M  V30 4540 H 427.497 0.350572 -4.14621 0
M  V30 4541 H 426.373 0.903486 -5.41413 0
M  V30 4542 H 426.634 1.90047 -3.99167 0
M  V30 4543 N 425.693 1.55336 -0.266172 0
M  V30 4544 C 426.933 2.01303 0.354459 0
M  V30 4545 C 427.297 1.15046 1.53715 0
M  V30 4546 O 428.498 1.50554 2.22681 0
M  V30 4547 C 426.769 3.49748 0.735579 0
M  V30 4548 S 428.328 4.1771 1.34401 0
M  V30 4549 H 425.146 0.702333 0.110674 0
M  V30 4550 H 427.748 1.91653 -0.385916 0
M  V30 4551 H 426.452 4.10181 -0.134196 0
M  V30 4552 H 425.983 3.63364 1.50764 0
M  V30 4553 H 427.998 4.20594 2.63278 0
M  V30 4554 N 427.171 -0.0066808 1.57599 0
M  V30 4555 C 428.418 -0.69292 1.90276 0
M  V30 4556 C 428.746 -1.74148 0.866192 0
M  V30 4557 O 428.001 -1.95268 -0.129933 0
M  V30 4558 C 428.3 -1.37939 3.29708 0
M  V30 4559 C 427.966 -0.464679 4.48499 0
M  V30 4560 C 426.628 -0.212809 4.80729 0
M  V30 4561 C 428.98 0.16551 5.20937 0
M  V30 4562 C 426.308 0.677653 5.82773 0
M  V30 4563 C 428.66 1.04381 6.23929 0
M  V30 4564 C 427.324 1.30492 6.54621 0
M  V30 4565 H 426.594 -0.253558 0.696268 0
M  V30 4566 H 429.241 0.0474123 1.91441 0
M  V30 4567 H 427.546 -2.1936 3.24636 0
M  V30 4568 H 429.243 -1.9163 3.52249 0
M  V30 4569 H 425.833 -0.671153 4.23313 0
M  V30 4570 H 430.017 -0.0160756 4.96297 0
M  V30 4571 H 425.273 0.88803 6.04917 0
M  V30 4572 H 429.447 1.53851 6.79193 0
M  V30 4573 H 427.074 1.99662 7.33512 0
M  V30 4574 N 428.649 -1.55105 -0.279332 0
M  V30 4575 C 429.889 -1.7716 -1.01949 0
M  V30 4576 C 430.253 -0.557511 -1.83728 0
M  V30 4577 O 431.454 -0.656198 -2.60667 0
M  V30 4578 C 429.725 -3.0372 -1.88385 0
M  V30 4579 S 431.284 -3.46868 -2.68752 0
M  V30 4580 H 428.102 -0.62253 -0.343478 0
M  V30 4581 H 430.704 -1.93329 -0.290572 0
M  V30 4582 H 429.408 -3.90184 -1.2722 0
M  V30 4583 H 428.939 -2.902 -2.65608 0
M  V30 4584 H 430.954 -3.05643 -3.90892 0
M  V30 4585 N 430.127 0.543554 -1.4793 0
M  V30 4586 C 431.037 1.67657 -1.64098 0
M  V30 4587 C 432.053 1.65934 -0.523622 0
M  V30 4588 O 433.229 1.85133 -0.792943 0
M  V30 4589 C 430.294 3.04146 -1.66421 0
M  V30 4590 C 429.355 3.16831 -2.89684 0
M  V30 4591 C 428.588 4.46809 -2.91886 0
M  V30 4592 O 428.811 5.33095 -2.02895 0
M  V30 4593 O 427.745 4.63573 -3.83906 0
M  V30 4594 H 431.571 1.56957 -2.59997 0
M  V30 4595 H 429.156 0.715116 -1.31173 0
M  V30 4596 H 431.038 3.85346 -1.70548 0
M  V30 4597 H 429.713 3.152 -0.736923 0
M  V30 4598 H 428.62 2.34977 -2.91095 0
M  V30 4599 H 429.953 3.10687 -3.81752 0
M  V30 4600 N 431.605 1.3629 0.791371 0
M  V30 4601 C 432.853 1.30154 1.5461 0
M  V30 4602 C 433.174 -0.119409 1.94634 0
M  V30 4603 O 432.444 -1.05924 1.64794 0
M  V30 4604 H 431.024 0.478784 0.573389 0
M  V30 4605 H 433.686 1.70565 0.94306 0
M  V30 4606 H 432.782 1.92762 2.45457 0
M  V30 4607 N 433.083 -1.0153 1.20538 0
M  V30 4608 C 434.016 -2.09759 0.898695 0
M  V30 4609 C 434.994 -1.61909 -0.149733 0
M  V30 4610 O 436.178 -1.88486 -0.0230293 0
M  V30 4611 C 433.305 -3.36913 0.347512 0
M  V30 4612 C 432.351 -4.03655 1.37713 0
M  V30 4613 S 433.184 -4.47402 2.94265 0
M  V30 4614 C 434.34 -5.77756 2.40726 0
M  V30 4615 H 434.573 -2.3545 1.81523 0
M  V30 4616 H 432.106 -1.14665 1.03399 0
M  V30 4617 H 434.064 -4.10484 0.0360518 0
M  V30 4618 H 432.725 -3.09291 -0.547546 0
M  V30 4619 H 431.918 -4.9514 0.940872 0
M  V30 4620 H 431.52 -3.36313 1.63614 0
M  V30 4621 H 433.812 -6.52994 1.80569 0
M  V30 4622 H 434.755 -6.2618 3.30612 0
M  V30 4623 H 435.163 -5.34081 1.82806 0
M  V30 4624 N 434.561 -1.01147 -1.20859 0
M  V30 4625 C 435.789 -0.716911 -1.94082 0
M  V30 4626 C 436.204 0.721568 -1.74467 0
M  V30 4627 O 435.561 1.48889 -1.05539 0
M  V30 4628 C 435.612 -1.03662 -3.46318 0
M  V30 4629 O 435.333 -2.4186 -3.65288 0
M  V30 4630 C 436.834 -0.762386 -4.36695 0
M  V30 4631 H 434.054 -0.26367 -0.617024 0
M  V30 4632 H 436.598 -1.35127 -1.53496 0
M  V30 4633 H 434.753 -0.447757 -3.84804 0
M  V30 4634 H 435.167 -2.53224 -4.59323 0
M  V30 4635 H 436.641 -1.03621 -5.42187 0
M  V30 4636 H 437.118 0.303514 -4.3815 0
M  V30 4637 H 437.724 -1.33316 -4.03865 0
M  V30 4638 N 436.039 1.36541 -0.78704 0
M  V30 4639 C 437.285 1.99599 -0.358872 0
M  V30 4640 C 437.618 1.62323 1.06606 0
M  V30 4641 O 436.893 0.876858 1.73613 0
M  V30 4642 C 437.176 3.56327 -0.519944 0
M  V30 4643 C 437.029 4.03464 -1.98839 0
M  V30 4644 C 438.348 4.4005 0.0664737 0
M  V30 4645 H 435.467 0.725107 -0.131869 0
M  V30 4646 H 438.109 1.6199 -0.992936 0
M  V30 4647 H 436.259 3.88495 0.0198321 0
M  V30 4648 H 437.931 3.81793 -2.58905 0
M  V30 4649 H 436.174 3.55092 -2.49183 0
M  V30 4650 H 436.845 5.12439 -2.05207 0
M  V30 4651 H 439.321 4.14228 -0.394267 0
M  V30 4652 H 438.197 5.48847 -0.0762682 0
M  V30 4653 H 438.458 4.26655 1.15835 0
M  V30 4654 N 437.518 0.538854 1.48102 0
M  V30 4655 C 438.934 0.19732 1.58376 0
M  V30 4656 C 439.134 -1.29971 1.5398 0
M  V30 4657 O 438.19 -2.07861 1.43352 0
M  V30 4658 C 439.503 0.807716 2.89649 0
M  V30 4659 C 441.051 0.77726 3.03196 0
M  V30 4660 C 441.526 1.36639 4.37143 0
M  V30 4661 N 443.017 1.32875 4.43732 0
M  V30 4662 C 443.752 1.7544 5.45901 0
M  V30 4663 N 443.248 2.25776 6.54979 0
M  V30 4664 N 445.041 1.66623 5.36836 0
M  V30 4665 H 437.192 1.5117 1.49202 0
M  V30 4666 H 439.455 0.629327 0.708979 0
M  V30 4667 H 439.161 1.85909 2.98548 0
M  V30 4668 H 439.035 0.289975 3.76084 0
M  V30 4669 H 441.422 -0.265374 2.93904 0
M  V30 4670 H 441.503 1.33256 2.18349 0
M  V30 4671 H 441.147 2.408 4.47189 0
M  V30 4672 H 441.077 0.786689 5.20691 0
M  V30 4673 H 443.568 0.96037 3.65493 0
M  V30 4674 H 443.881 2.56226 7.29087 0
M  V30 4675 H 442.226 2.29775 6.55918 0
M  V30 4676 H 445.417 1.27089 4.50517 0
M  V30 4677 H 445.59 2.00115 6.16326 0
M  V30 4678 N 438.996 -1.55193 0.274407 0
M  V30 4679 C 440.244 -1.99187 -0.341902 0
M  V30 4680 C 440.565 -1.16422 -1.56431 0
M  V30 4681 O 439.835 -0.253573 -1.94252 0
M  V30 4682 H 438.415 -0.735721 -0.129317 0
M  V30 4683 H 441.077 -1.91168 0.379578 0
M  V30 4684 H 440.173 -3.05629 -0.632253 0
M  V30 4685 N 440.474 -0.00167713 -1.576 0
M  V30 4686 C 441.404 0.988091 -2.11563 0
M  V30 4687 C 442.385 1.35736 -1.02517 0
M  V30 4688 O 443.57 1.44082 -1.30208 0
M  V30 4689 C 440.7 2.27941 -2.62031 0
M  V30 4690 C 439.654 2.0517 -3.75619 0
M  V30 4691 C 438.98 3.4033 -4.12407 0
M  V30 4692 C 440.28 1.41294 -5.02825 0
M  V30 4693 H 441.974 0.538771 -2.94513 0
M  V30 4694 H 439.52 0.257712 -1.41675 0
M  V30 4695 H 441.473 2.97539 -2.9841 0
M  V30 4696 H 440.197 2.74989 -1.76205 0
M  V30 4697 H 438.856 1.37998 -3.39635 0
M  V30 4698 H 438.504 3.85085 -3.23603 0
M  V30 4699 H 438.204 3.25909 -4.88935 0
M  V30 4700 H 439.728 4.1124 -4.51347 0
M  V30 4701 H 441.142 2.00851 -5.36965 0
M  V30 4702 H 439.539 1.37356 -5.84169 0
M  V30 4703 H 440.609 0.382362 -4.8339 0
M  V30 4704 N 441.952 1.55251 0.271103 0
M  V30 4705 C 442.882 1.9127 1.33933 0
M  V30 4706 C 443.863 0.77478 1.5143 0
M  V30 4707 O 445.048 1.03307 1.64442 0
M  V30 4708 C 442.178 2.18627 2.69851 0
M  V30 4709 C 441.132 3.34442 2.67081 0
M  V30 4710 C 440.458 3.47284 4.06569 0
M  V30 4711 C 441.758 4.70784 2.26185 0
M  V30 4712 H 443.452 2.80744 1.04035 0
M  V30 4713 H 440.998 1.35077 0.499017 0
M  V30 4714 H 442.951 2.42413 3.44694 0
M  V30 4715 H 441.675 1.25955 3.01335 0
M  V30 4716 H 440.334 3.10627 1.94695 0
M  V30 4717 H 439.982 2.52074 4.35279 0
M  V30 4718 H 439.682 4.25152 4.0561 0
M  V30 4719 H 441.206 3.73363 4.83148 0
M  V30 4720 H 442.62 4.94102 2.90751 0
M  V30 4721 H 441.017 5.51582 2.36384 0
M  V30 4722 H 442.087 4.69478 1.21319 0
M  V30 4723 N 443.43 -0.535701 1.48216 0
M  V30 4724 C 444.655 -1.32149 1.59848 0
M  V30 4725 C 445.08 -1.86338 0.256842 0
M  V30 4726 O 444.438 -1.64107 -0.770632 0
M  V30 4727 C 444.486 -2.45224 2.64381 0
M  V30 4728 O 443.59 -3.48093 2.21144 0
M  V30 4729 H 442.931 -0.391634 0.536208 0
M  V30 4730 H 445.461 -0.645202 1.94161 0
M  V30 4731 H 445.471 -2.91491 2.85476 0
M  V30 4732 H 444.146 -2.05143 3.61786 0
M  V30 4733 H 442.723 -3.07984 2.10239 0
M  V30 4734 N 444.908 -1.36708 -0.784132 0
M  V30 4735 C 445.871 -1.31307 -1.87859 0
M  V30 4736 C 446.871 -0.219654 -1.59293 0
M  V30 4737 O 448.061 -0.47476 -1.67606 0
M  V30 4738 C 445.193 -1.03679 -3.24751 0
M  V30 4739 H 446.386 -2.28647 -1.94064 0
M  V30 4740 H 443.939 -1.21558 -0.98252 0
M  V30 4741 H 444.674 -0.0681936 -3.24228 0
M  V30 4742 H 444.459 -1.82811 -3.46876 0
M  V30 4743 H 445.949 -1.02518 -4.04821 0
M  V30 4744 N 446.386 1.0089 -1.21074 0
M  V30 4745 C 447.319 2.09279 -0.909806 0
M  V30 4746 C 448.297 1.61986 0.141145 0
M  V30 4747 O 449.481 1.88495 0.0130332 0
M  V30 4748 C 446.608 3.36723 -0.365374 0
M  V30 4749 C 445.654 4.02919 -1.39852 0
M  V30 4750 S 446.487 4.45835 -2.96633 0
M  V30 4751 C 447.643 5.76471 -2.43786 0
M  V30 4752 H 447.876 2.34484 -1.82769 0
M  V30 4753 H 445.409 1.14115 -1.04006 0
M  V30 4754 H 447.367 4.10459 -0.0578203 0
M  V30 4755 H 446.028 3.09577 0.531136 0
M  V30 4756 H 445.221 4.94634 -0.967117 0
M  V30 4757 H 444.823 3.35441 -1.65395 0
M  V30 4758 H 447.115 6.52027 -1.84029 0
M  V30 4759 H 448.058 6.24418 -3.33928 0
M  V30 4760 H 448.466 5.33104 -1.85636 0
M  V30 4761 N 447.864 1.01787 1.20321 0
M  V30 4762 C 449.28 0.732951 1.41774 0
M  V30 4763 C 449.48 -0.686883 1.89431 0
M  V30 4764 O 448.536 -1.45446 2.06402 0
M  V30 4765 C 449.849 1.75973 2.43832 0
M  V30 4766 C 451.397 1.77802 2.57596 0
M  V30 4767 C 451.872 2.7941 3.62897 0
M  V30 4768 N 453.363 2.78157 3.70382 0
M  V30 4769 C 454.098 3.53434 4.51521 0
M  V30 4770 N 453.594 4.38392 5.36455 0
M  V30 4771 N 455.387 3.42026 4.46066 0
M  V30 4772 H 447.538 1.93447 0.877035 0
M  V30 4773 H 449.801 0.835712 0.447536 0
M  V30 4774 H 449.507 2.77699 2.15815 0
M  V30 4775 H 449.381 1.57292 3.4284 0
M  V30 4776 H 451.768 0.767602 2.84942 0
M  V30 4777 H 451.849 2.00557 1.58779 0
M  V30 4778 H 451.493 3.80616 3.36295 0
M  V30 4779 H 451.423 2.53916 4.61339 0
M  V30 4780 H 453.914 2.16531 3.09714 0
M  V30 4781 H 454.227 4.92596 5.95457 0
M  V30 4782 H 452.572 4.4247 5.35953 0
M  V30 4783 H 455.763 2.75075 3.78749 0
M  V30 4784 H 455.936 4.00946 5.09064 0
M  V30 4785 N 449.342 -1.36122 0.79427 0
M  V30 4786 C 450.758 -1.5232 0.476525 0
M  V30 4787 C 450.958 -1.74685 -1.00436 0
M  V30 4788 O 450.014 -1.78115 -1.78973 0
M  V30 4789 C 451.327 -2.70607 1.31119 0
M  V30 4790 C 452.875 -2.8448 1.30537 0
M  V30 4791 C 453.35 -4.05778 2.12387 0
M  V30 4792 N 454.841 -4.12933 2.09859 0
M  V30 4793 C 455.576 -5.05876 2.69957 0
M  V30 4794 N 455.072 -6.04232 3.38934 0
M  V30 4795 N 456.865 -4.98528 2.59665 0
M  V30 4796 H 449.016 -1.1986 1.75349 0
M  V30 4797 H 451.279 -0.585418 0.745647 0
M  V30 4798 H 450.985 -2.60619 2.36158 0
M  V30 4799 H 450.859 -3.64888 0.955843 0
M  V30 4800 H 453.246 -2.93927 0.262876 0
M  V30 4801 H 453.327 -1.91093 1.70051 0
M  V30 4802 H 452.971 -3.97092 3.1667 0
M  V30 4803 H 452.901 -4.98323 1.70242 0
M  V30 4804 H 455.392 -3.42515 1.59662 0
M  V30 4805 H 455.705 -6.71724 3.82109 0
M  V30 4806 H 454.05 -6.04443 3.43036 0
M  V30 4807 H 457.241 -4.20641 2.05375 0
M  V30 4808 H 457.414 -5.70773 3.06793 0
M  V30 4809 N 450.82 -0.546701 -1.47814 0
M  V30 4810 C 451.75 0.195317 -2.32682 0
M  V30 4811 C 452.731 0.918981 -1.43139 0
M  V30 4812 O 453.916 0.901501 -1.72008 0
M  V30 4813 C 451.046 1.23237 -3.247 0
M  V30 4814 C 450 0.625818 -4.234 0
M  V30 4815 C 449.326 1.76674 -5.04669 0
M  V30 4816 C 450.626 -0.413515 -5.2066 0
M  V30 4817 H 452.32 -0.513184 -2.94969 0
M  V30 4818 H 449.866 -0.248241 -1.41844 0
M  V30 4819 H 451.819 1.75955 -3.82907 0
M  V30 4820 H 450.543 1.97067 -2.60446 0
M  V30 4821 H 449.202 0.120023 -3.66403 0
M  V30 4822 H 448.85 2.49383 -4.36826 0
M  V30 4823 H 448.55 1.36673 -5.71484 0
M  V30 4824 H 450.074 2.29738 -5.65732 0
M  V30 4825 H 451.488 0.0272042 -5.73294 0
M  V30 4826 H 449.885 -0.731825 -5.95621 0
M  V30 4827 H 450.955 -1.31325 -4.66778 0
M  V30 4828 N 452.299 1.55045 -0.282633 0
M  V30 4829 C 453.547 1.99365 0.331334 0
M  V30 4830 C 453.868 1.1725 1.55812 0
M  V30 4831 O 453.138 0.263871 1.94115 0
M  V30 4832 H 451.718 0.736397 0.125414 0
M  V30 4833 H 454.38 1.90964 -0.389711 0
M  V30 4834 H 453.476 3.0596 0.616036 0
M  V30 4835 N 453.777 0.010035 1.57597 0
M  V30 4836 C 455.023 -0.673697 1.91283 0
M  V30 4837 C 455.356 -1.72863 0.884979 0
M  V30 4838 O 454.631 -1.94268 -0.0949487 0
M  V30 4839 C 454.914 -1.30766 3.35518 0
M  V30 4840 C 454.767 -0.263578 4.49027 0
M  V30 4841 C 456.086 -2.23105 3.79358 0
M  V30 4842 H 453.205 -0.243439 0.695634 0
M  V30 4843 H 455.847 0.0633864 1.89894 0
M  V30 4844 H 453.997 -1.93588 3.36832 0
M  V30 4845 H 455.669 0.365738 4.59848 0
M  V30 4846 H 453.912 0.413077 4.31829 0
M  V30 4847 H 454.583 -0.746398 5.4693 0
M  V30 4848 H 457.059 -1.70289 3.79659 0
M  V30 4849 H 455.935 -2.64424 4.81011 0
M  V30 4850 H 456.196 -3.11433 3.13787 0
M  V30 4851 N 455.255 -1.55392 -0.262866 0
M  V30 4852 C 456.501 -1.76737 -0.99458 0
M  V30 4853 C 456.834 -0.572453 -1.85571 0
M  V30 4854 O 456.109 0.429732 -1.89693 0
M  V30 4855 C 456.392 -3.07824 -1.8686 0
M  V30 4856 C 456.245 -4.3769 -1.03672 0
M  V30 4857 C 457.564 -3.35021 -2.85393 0
M  V30 4858 H 454.683 -0.643005 -0.360157 0
M  V30 4859 H 457.325 -1.88126 -0.266216 0
M  V30 4860 H 455.475 -2.98245 -2.48962 0
M  V30 4861 H 457.147 -4.59238 -0.43563 0
M  V30 4862 H 455.39 -4.32461 -0.340513 0
M  V30 4863 H 456.061 -5.25759 -1.6817 0
M  V30 4864 H 458.537 -3.44458 -2.33426 0
M  V30 4865 H 457.413 -4.27989 -3.43681 0
M  V30 4866 H 457.674 -2.55153 -3.61039 0
M  V30 4867 N 456.733 0.527833 -1.48498 0
M  V30 4868 C 457.981 1.28101 -1.56316 0
M  V30 4869 C 458.302 1.9352 -0.239781 0
M  V30 4870 O 457.572 1.81433 0.738849 0
M  V30 4871 H 456.152 0.475793 -0.575873 0
M  V30 4872 H 458.814 0.614052 -1.84974 0
M  V30 4873 H 457.91 2.05916 -2.34532 0
M  V30 4874 N 458.211 1.37122 0.776871 0
M  V30 4875 C 459.121 1.34651 1.9211 0
M  V30 4876 C 460.137 0.246824 1.7224 0
M  V30 4877 O 461.313 0.48134 1.95563 0
M  V30 4878 C 458.378 1.14748 3.2716 0
M  V30 4879 C 457.439 2.34308 3.5972 0
M  V30 4880 C 456.672 2.15345 4.88326 0
M  V30 4881 O 456.895 1.13507 5.58992 0
M  V30 4882 O 455.829 3.03414 5.1983 0
M  V30 4883 H 459.655 2.31013 1.97146 0
M  V30 4884 H 457.24 1.17799 0.918901 0
M  V30 4885 H 459.122 1.05616 4.0795 0
M  V30 4886 H 457.797 0.214562 3.22988 0
M  V30 4887 H 456.704 2.49011 2.79185 0
M  V30 4888 H 458.037 3.26149 3.68629 0
M  V30 4889 N 459.689 -1.00246 1.21608 0
M  V30 4890 C 460.936 -1.74061 1.03485 0
M  V30 4891 C 461.264 -1.89658 -0.431308 0
M  V30 4892 O 460.519 -1.42976 -1.33627 0
M  V30 4893 C 460.818 -3.15448 1.68009 0
M  V30 4894 C 460.484 -3.19792 3.17874 0
M  V30 4895 C 459.146 -3.20685 3.58768 0
M  V30 4896 C 461.498 -3.16835 4.13842 0
M  V30 4897 C 458.826 -3.16309 4.94131 0
M  V30 4898 C 461.178 -3.14001 5.49169 0
M  V30 4899 C 459.842 -3.13204 5.89457 0
M  V30 4900 H 459.112 -0.636934 0.378677 0
M  V30 4901 H 461.759 -1.17473 1.51236 0
M  V30 4902 H 460.064 -3.75284 1.12557 0
M  V30 4903 H 461.761 -3.71285 1.51487 0
M  V30 4904 H 458.351 -3.19842 2.85305 0
M  V30 4905 H 462.535 -3.15303 3.83272 0
M  V30 4906 H 457.791 -3.14032 5.24589 0
M  V30 4907 H 461.965 -3.10667 6.23265 0
M  V30 4908 H 459.592 -3.09568 6.94314 0
M  V30 4909 N 461.167 -1.02423 -1.1978 0
M  V30 4910 C 462.392 -0.7373 -1.93852 0
M  V30 4911 C 462.817 0.696923 -1.74713 0
M  V30 4912 O 462.175 1.48056 -1.04638 0
M  V30 4913 C 462.223 -1.08783 -3.438 0
M  V30 4914 O 461.327 -0.20383 -4.11896 0
M  V30 4915 H 460.668 -0.27284 -0.605355 0
M  V30 4916 H 463.198 -1.36966 -1.51992 0
M  V30 4917 H 463.208 -1.04276 -3.9445 0
M  V30 4918 H 461.883 -2.13274 -3.57053 0
M  V30 4919 H 460.46 -0.307091 -3.71633 0
M  V30 4920 N 462.645 1.35699 -0.801477 0
M  V30 4921 C 463.575 2.32436 -0.222658 0
M  V30 4922 C 464.556 1.5723 0.649057 0
M  V30 4923 O 465.741 1.85324 0.580387 0
M  V30 4924 C 462.871 3.41469 0.633719 0
M  V30 4925 C 461.825 4.27774 -0.139083 0
M  V30 4926 C 461.151 5.28082 0.838666 0
M  V30 4927 C 462.451 5.04946 -1.33517 0
M  V30 4928 H 464.145 2.81094 -1.03086 0
M  V30 4929 H 461.691 1.35146 -0.497155 0
M  V30 4930 H 463.644 4.08143 1.04868 0
M  V30 4931 H 462.368 2.91408 1.47475 0
M  V30 4932 H 461.027 3.62673 -0.535156 0
M  V30 4933 H 460.675 4.7429 1.67506 0
M  V30 4934 H 460.375 5.86695 0.32594 0
M  V30 4935 H 461.899 5.97628 1.25194 0
M  V30 4936 H 463.313 5.64593 -0.995349 0
M  V30 4937 H 461.71 5.7303 -1.78202 0
M  V30 4938 H 462.78 4.35886 -2.12442 0
M  V30 4939 N 464.123 0.554532 1.47522 0
M  V30 4940 C 465.372 0.0273458 2.01681 0
M  V30 4941 C 465.685 -1.32962 1.43459 0
M  V30 4942 O 466.891 -1.94657 1.89265 0
M  V30 4943 C 465.347 -0.00159057 3.599 0
M  V30 4944 C 464.955 1.35197 4.27113 0
M  V30 4945 C 466.699 -0.476311 4.21819 0
M  V30 4946 C 464.606 1.28229 5.77331 0
M  V30 4947 H 463.536 0.00645269 0.753972 0
M  V30 4948 H 466.187 0.701985 1.69542 0
M  V30 4949 H 464.569 -0.741821 3.8899 0
M  V30 4950 H 465.743 2.1097 4.09668 0
M  V30 4951 H 464.058 1.76441 3.77171 0
M  V30 4952 H 466.655 -0.5468 5.31897 0
M  V30 4953 H 466.998 -1.4877 3.8881 0
M  V30 4954 H 467.531 0.20898 3.97251 0
M  V30 4955 H 464.27 2.26959 6.14955 0
M  V30 4956 H 463.79 0.566314 5.97121 0
M  V30 4957 H 465.469 0.983226 6.39485 0
M  V30 4958 N 465.601 -1.54893 0.290851 0
M  V30 4959 C 466.849 -1.99538 -0.320756 0
M  V30 4960 C 467.17 -1.18075 -1.55188 0
M  V30 4961 O 466.44 -0.274162 -1.93972 0
M  V30 4962 H 465.02 -0.737052 -0.121507 0
M  V30 4963 H 467.682 -1.90755 0.399832 0
M  V30 4964 H 466.778 -3.06282 -0.599802 0
M  V30 4965 N 467.08 -0.0183926 -1.57589 0
M  V30 4966 C 468.305 0.676634 -1.96052 0
M  V30 4967 C 468.73 1.6548 -0.894307 0
M  V30 4968 O 468.088 1.80712 0.145849 0
M  V30 4969 C 468.136 1.36872 -3.33614 0
M  V30 4970 O 467.24 2.48372 -3.29219 0
M  V30 4971 H 466.581 0.1786 -0.63953 0
M  V30 4972 H 469.111 -0.077056 -2.04455 0
M  V30 4973 H 469.121 1.72797 -3.69601 0
M  V30 4974 H 467.796 0.651636 -4.10763 0
M  V30 4975 H 466.373 2.14639 -3.04934 0
M  V30 4976 N 468.558 1.5553 0.254621 0
M  V30 4977 C 469.835 1.6774 1.00611 0
M  V30 4978 C 470.215 0.555993 2.03647 0
M  V30 4979 O 469.563 -0.441583 2.24193 0
M  V30 4980 C 469.773 3.07725 1.6464 0
M  V30 4981 C 471.121 3.66074 2.15116 0
M  V30 4982 O 472.145 3.10476 1.74595 0
M  V30 4983 O 471.004 4.63526 2.89493 0
M  V30 4984 H 468.098 0.681958 0.467828 0
M  V30 4985 H 470.644 1.67863 0.24902 0
M  V30 4986 H 469.416 3.80792 0.900734 0
M  V30 4987 H 469.039 3.1158 2.46989 0
M  V30 4988 N 470.036 -0.519951 1.48776 0
M  V30 4989 C 471.284 -1.2727 1.56993 0
M  V30 4990 C 471.605 -1.9339 0.25004 0
M  V30 4991 O 470.875 -1.81822 -0.729216 0
M  V30 4992 H 469.455 -0.472732 0.578389 0
M  V30 4993 H 472.117 -0.604234 1.85297 0
M  V30 4994 H 471.213 -2.04669 2.3562 0
M  V30 4995 N 471.514 -1.37532 -0.769588 0
M  V30 4996 C 472.76 -1.34063 -1.52966 0
M  V30 4997 C 473.115 0.0737942 -1.92258 0
M  V30 4998 O 472.408 1.03291 -1.61374 0
M  V30 4999 C 472.602 -2.21558 -2.8044 0
M  V30 5000 C 472.431 -3.71367 -2.53608 0
M  V30 5001 C 471.201 -4.40464 -2.47628 0
M  V30 5002 C 473.399 -4.64177 -2.21459 0
M  V30 5003 N 471.381 -5.758 -2.12902 0
M  V30 5004 C 472.752 -5.87907 -1.9689 0
M  V30 5005 C 474.807 -4.52541 -2.07633 0
M  V30 5006 C 473.51 -7.01304 -1.59892 0
M  V30 5007 C 475.536 -5.65825 -1.72034 0
M  V30 5008 C 474.898 -6.88606 -1.48327 0
M  V30 5009 H 470.997 -0.545856 -0.559969 0
M  V30 5010 H 473.581 -1.72773 -0.897634 0
M  V30 5011 H 471.752 -1.85061 -3.41478 0
M  V30 5012 H 473.484 -2.09332 -3.46356 0
M  V30 5013 H 470.239 -3.93491 -2.63556 0
M  V30 5014 H 470.663 -6.47328 -1.9823 0
M  V30 5015 H 475.305 -3.58183 -2.24643 0
M  V30 5016 H 473.023 -7.95594 -1.4162 0
M  V30 5017 H 476.609 -5.58793 -1.61991 0
M  V30 5018 H 475.489 -7.74779 -1.21189 0
M  V30 5019 N 472.992 0.995999 -1.22138 0
M  V30 5020 C 473.955 2.06711 -0.990109 0
M  V30 5021 C 474.955 1.60744 0.0422978 0
M  V30 5022 O 476.145 1.73095 -0.195895 0
M  V30 5023 C 473.277 3.37288 -0.49491 0
M  V30 5024 H 474.47 2.28661 -1.94047 0
M  V30 5025 H 472.023 1.16711 -1.03963 0
M  V30 5026 H 472.758 3.21022 0.459948 0
M  V30 5027 H 472.543 3.71986 -1.23971 0
M  V30 5028 H 474.033 4.16103 -0.353253 0
M  V30 5029 N 474.47 1.03057 1.19235 0
M  V30 5030 C 475.747 0.642608 1.84743 0
M  V30 5031 C 476.127 -0.878577 1.91948 0
M  V30 5032 O 475.475 -1.77597 1.43776 0
M  V30 5033 C 475.685 1.30665 3.23616 0
M  V30 5034 C 477.033 1.43098 3.9976 0
M  V30 5035 O 478.057 1.26396 3.3302 0
M  V30 5036 O 476.916 1.70223 5.19313 0
M  V30 5037 H 474.01 0.223573 0.796206 0
M  V30 5038 H 476.556 1.12883 1.26711 0
M  V30 5039 H 475.328 2.34544 3.13217 0
M  V30 5040 H 474.951 0.808405 3.89295 0
M  V30 5041 N 475.948 -1.35272 0.808662 0
M  V30 5042 C 477.364 -1.51806 0.492653 0
M  V30 5043 C 477.564 -1.7574 -0.985778 0
M  V30 5044 O 476.62 -1.80003 -1.77074 0
M  V30 5045 C 477.933 -2.69202 1.33981 0
M  V30 5046 C 479.481 -2.8308 1.33547 0
M  V30 5047 C 479.956 -4.03502 2.16679 0
M  V30 5048 N 481.447 -4.10684 2.14227 0
M  V30 5049 C 482.182 -5.02984 2.75308 0
M  V30 5050 N 481.678 -6.00603 3.45323 0
M  V30 5051 N 483.471 -4.95746 2.64938 0
M  V30 5052 H 475.622 -1.17993 1.76611 0
M  V30 5053 H 477.885 -0.577476 0.751814 0
M  V30 5054 H 477.591 -2.581 2.38909 0
M  V30 5055 H 477.465 -3.63854 0.994491 0
M  V30 5056 H 479.852 -2.93631 0.294036 0
M  V30 5057 H 479.933 -1.89278 1.72068 0
M  V30 5058 H 479.577 -3.93711 3.20864 0
M  V30 5059 H 479.507 -4.96489 1.75517 0
M  V30 5060 H 481.998 -3.40802 1.63285 0
M  V30 5061 H 482.311 -6.67633 3.89212 0
M  V30 5062 H 480.656 -6.0077 3.49428 0
M  V30 5063 H 483.847 -4.18439 2.09825 0
M  V30 5064 H 484.02 -5.67487 3.12829 0
M  V30 5065 N 477.426 -0.562348 -1.47226 0
M  V30 5066 C 478.703 0.0256985 -1.95583 0
M  V30 5067 C 479.083 1.48032 -1.50498 0
M  V30 5068 O 478.431 2.15973 -0.746181 0
M  V30 5069 C 478.641 -0.125129 -3.48776 0
M  V30 5070 C 479.989 0.0175728 -4.24596 0
M  V30 5071 O 481.013 -0.0529341 -3.56161 0
M  V30 5072 O 479.872 0.170145 -5.46235 0
M  V30 5073 H 476.966 0.0612565 -0.824728 0
M  V30 5074 H 479.512 -0.629233 -1.57603 0
M  V30 5075 H 478.284 -1.13715 -3.74412 0
M  V30 5076 H 477.907 0.567178 -3.93534 0
M  V30 5077 N 478.904 1.54736 -0.299062 0
M  V30 5078 C 479.814 2.27127 0.587413 0
M  V30 5079 C 480.83 1.30575 1.15005 0
M  V30 5080 O 482.006 1.63554 1.17525 0
M  V30 5081 C 479.071 2.99645 1.74395 0
M  V30 5082 C 478.132 4.11731 1.21559 0
M  V30 5083 C 477.365 4.80781 2.317 0
M  V30 5084 O 477.588 4.4918 3.51558 0
M  V30 5085 O 476.522 5.68226 1.98501 0
M  V30 5086 H 480.348 3.037 0.000250109 0
M  V30 5087 H 477.933 1.49256 -0.0655919 0
M  V30 5088 H 479.815 3.45138 2.4178 0
M  V30 5089 H 478.49 2.25969 2.31775 0
M  V30 5090 H 477.397 3.70641 0.507514 0
M  V30 5091 H 478.73 4.87379 0.687233 0
M  V30 5092 N 480.382 0.0267497 1.57577 0
M  V30 5093 C 481.628 -0.653371 1.91987 0
M  V30 5094 C 481.961 -1.71915 0.903263 0
M  V30 5095 O 481.236 -1.94358 -0.0743387 0
M  V30 5096 C 481.519 -1.272 3.36886 0
M  V30 5097 C 481.372 -0.215938 4.49281 0
M  V30 5098 C 482.691 -2.19069 3.81703 0
M  V30 5099 H 479.81 -0.236047 0.698177 0
M  V30 5100 H 482.452 0.0835236 1.89816 0
M  V30 5101 H 480.602 -1.90005 3.38866 0
M  V30 5102 H 482.274 0.41449 4.59434 0
M  V30 5103 H 480.517 0.458855 4.31366 0
M  V30 5104 H 481.188 -0.688347 5.47691 0
M  V30 5105 H 483.664 -1.66253 3.81444 0
M  V30 5106 H 482.54 -2.59307 4.83788 0
M  V30 5107 H 482.801 -3.08087 3.17072 0
M  V30 5108 N 481.861 -1.55662 -0.24637 0
M  V30 5109 C 483.11 -1.7672 -0.972254 0
M  V30 5110 C 483.423 -0.59078 -1.86465 0
M  V30 5111 O 484.629 -0.684391 -2.62732 0
M  V30 5112 C 483.085 -3.12869 -1.7788 0
M  V30 5113 C 482.693 -4.38161 -0.933768 0
M  V30 5114 C 484.437 -3.43265 -2.49738 0
M  V30 5115 C 482.344 -5.6534 -1.73623 0
M  V30 5116 H 481.274 -0.658795 -0.366749 0
M  V30 5117 H 483.925 -1.82092 -0.226902 0
M  V30 5118 H 482.307 -3.01606 -2.56612 0
M  V30 5119 H 483.481 -4.60413 -0.188736 0
M  V30 5120 H 481.796 -4.15102 -0.328488 0
M  V30 5121 H 484.393 -4.35501 -3.10231 0
M  V30 5122 H 484.736 -2.64614 -3.2138 0
M  V30 5123 H 485.269 -3.55746 -1.78016 0
M  V30 5124 H 482.008 -6.46814 -1.06354 0
M  V30 5125 H 481.528 -5.47188 -2.45653 0
M  V30 5126 H 483.207 -6.04616 -2.30323 0
M  V30 5127 N 483.339 0.512053 -1.4905 0
M  V30 5128 C 484.249 1.64139 -1.67617 0
M  V30 5129 C 485.265 1.64786 -0.558701 0
M  V30 5130 O 486.441 1.8341 -0.832034 0
M  V30 5131 C 483.506 3.00548 -1.72835 0
M  V30 5132 C 482.567 3.10615 -2.96339 0
M  V30 5133 C 481.8 4.40517 -3.01298 0
M  V30 5134 O 482.023 5.28671 -2.14157 0
M  V30 5135 O 480.957 4.55325 -3.93653 0
M  V30 5136 H 484.783 1.51407 -2.63267 0
M  V30 5137 H 482.368 0.687131 -1.32661 0
M  V30 5138 H 484.25 3.81641 -1.78683 0
M  V30 5139 H 482.925 3.13566 -0.803616 0
M  V30 5140 H 481.832 2.2875 -2.96014 0
M  V30 5141 H 483.165 3.0252 -3.88256 0
M  V30 5142 N 484.817 1.37938 0.762283 0
M  V30 5143 C 486.065 1.33404 1.51815 0
M  V30 5144 C 486.386 -0.0780975 1.94844 0
M  V30 5145 O 485.656 -1.02405 1.67003 0
M  V30 5146 H 484.236 0.490839 0.563104 0
M  V30 5147 H 486.898 1.72527 0.906669 0
M  V30 5148 H 485.994 1.97926 2.41313 0
M  V30 5149 N 486.295 -0.989507 1.22664 0
M  V30 5150 C 487.525 -1.7624 1.0781 0
M  V30 5151 C 487.933 -1.85466 -0.374036 0
M  V30 5152 O 487.276 -1.32645 -1.27087 0
M  V30 5153 C 487.338 -3.21007 1.61849 0
M  V30 5154 C 487.002 -3.35316 3.10503 0
M  V30 5155 C 487.999 -3.22362 4.07896 0
M  V30 5156 C 485.684 -3.60258 3.50028 0
M  V30 5157 C 487.678 -3.34139 5.42798 0
M  V30 5158 C 485.365 -3.71676 4.85078 0
M  V30 5159 C 486.363 -3.58625 5.81272 0
M  V30 5160 O 486.051 -3.69655 7.1387 0
M  V30 5161 H 485.783 -0.560209 0.378341 0
M  V30 5162 H 488.337 -1.25252 1.62792 0
M  V30 5163 H 486.567 -3.73202 1.01279 0
M  V30 5164 H 488.256 -3.80024 1.42606 0
M  V30 5165 H 489.022 -3.03 3.78703 0
M  V30 5166 H 484.901 -3.69492 2.75675 0
M  V30 5167 H 488.445 -3.23869 6.17863 0
M  V30 5168 H 484.342 -3.90545 5.1395 0
M  V30 5169 H 485.11 -3.86507 7.21495 0
M  V30 5170 N 487.773 -1.03688 -1.18687 0
M  V30 5171 C 488.683 -0.634908 -2.25845 0
M  V30 5172 C 489.699 0.337065 -1.70704 0
M  V30 5173 O 490.875 0.192943 -2.00474 0
M  V30 5174 C 487.94 -0.000180054 -3.467 0
M  V30 5175 C 487.001 -1.02067 -4.1699 0
M  V30 5176 C 486.234 -0.41614 -5.32075 0
M  V30 5177 O 486.457 0.778712 -5.65059 0
M  V30 5178 O 485.391 -1.14296 -5.90948 0
M  V30 5179 H 489.217 -1.52757 -2.62486 0
M  V30 5180 H 486.802 -0.807533 -1.25695 0
M  V30 5181 H 488.684 0.353342 -4.19916 0
M  V30 5182 H 487.359 0.866367 -3.11891 0
M  V30 5183 H 486.266 -1.42592 -3.45859 0
M  V30 5184 H 487.599 -1.85786 -4.5579 0
M  V30 5185 N 489.251 1.34841 -0.815825 0
M  V30 5186 C 490.497 1.98793 -0.401129 0
M  V30 5187 C 490.83 1.64548 1.03139 0
M  V30 5188 O 490.105 0.913487 1.71714 0
M  V30 5189 C 490.388 3.55143 -0.595409 0
M  V30 5190 C 490.241 3.99155 -2.07352 0
M  V30 5191 C 491.56 4.40092 -0.0268823 0
M  V30 5192 H 488.679 0.722146 -0.14722 0
M  V30 5193 H 491.321 1.59847 -1.02707 0
M  V30 5194 H 489.471 3.8845 -0.0625779 0
M  V30 5195 H 491.143 3.76216 -2.66945 0
M  V30 5196 H 489.386 3.49726 -2.56659 0
M  V30 5197 H 490.057 5.07971 -2.1603 0
M  V30 5198 H 492.533 4.13298 -0.482042 0
M  V30 5199 H 491.409 5.48562 -0.19267 0
M  V30 5200 H 491.67 4.29016 1.06759 0
M  V30 5201 N 490.729 0.570148 1.46925 0
M  V30 5202 C 491.639 -0.173061 2.33961 0
M  V30 5203 C 492.655 -0.898825 1.48987 0
M  V30 5204 O 493.831 -0.864825 1.81887 0
M  V30 5205 C 490.896 -1.18177 3.25937 0
M  V30 5206 C 489.957 -0.462041 4.26806 0
M  V30 5207 C 489.19 -1.4227 5.14388 0
M  V30 5208 O 489.413 -2.65842 5.04662 0
M  V30 5209 O 488.347 -0.940127 5.94513 0
M  V30 5210 H 492.173 0.541216 2.98839 0
M  V30 5211 H 489.758 0.330647 1.45695 0
M  V30 5212 H 491.64 -1.76372 3.82715 0
M  V30 5213 H 490.315 -1.87774 2.63671 0
M  V30 5214 H 489.222 0.161429 3.73752 0
M  V30 5215 H 490.555 0.192719 4.91823 0
M  V30 5216 N 492.207 -1.54576 0.307264 0
M  V30 5217 C 493.17 -2.22423 -0.553224 0
M  V30 5218 C 494.17 -1.21231 -1.05639 0
M  V30 5219 O 495.36 -1.45923 -0.951419 0
M  V30 5220 C 492.492 -2.91552 -1.76664 0
M  V30 5221 H 493.685 -2.99874 0.0396484 0
M  V30 5222 H 491.238 -1.56192 0.0581629 0
M  V30 5223 H 491.973 -2.18196 -2.39918 0
M  V30 5224 H 491.758 -3.65738 -1.41343 0
M  V30 5225 H 493.248 -3.43292 -2.37783 0
M  V30 5226 N 493.685 -0.035106 -1.57561 0
M  V30 5227 C 494.633 0.962707 -2.11742 0
M  V30 5228 C 495.627 1.33296 -1.0454 0
M  V30 5229 O 496.833 1.31449 -1.22968 0
M  V30 5230 H 493.208 0.32826 -0.676572 0
M  V30 5231 H 495.179 0.48048 -2.94506 0
M  V30 5232 C 493.928 2.23388 -2.66445 0
M  V30 5233 H 493.251 1.95774 -3.48587 0
M  V30 5234 H 494.691 2.91402 -3.07995 0
M  V30 5235 C 493.15 2.96769 -1.59467 0
M  V30 5236 O 493.68 3.89105 -0.998 0
M  V30 5237 N 491.886 2.59212 -1.31369 0
M  V30 5238 H 491.433 1.84202 -1.80076 0
M  V30 5239 H 491.391 3.08618 -0.600173 0
M  V30 5240 N 495.163 1.55791 0.238111 0
M  V30 5241 C 496.411 1.77681 0.963001 0
M  V30 5242 C 496.732 0.600674 1.85518 0
M  V30 5243 O 496.002 -0.383182 1.92116 0
M  V30 5244 H 494.582 0.655315 0.358568 0
M  V30 5245 H 497.244 1.93239 0.253945 0
M  V30 5246 H 496.34 2.69177 1.57956 0
M  V30 5247 N 496.642 -0.504142 1.49319 0
M  V30 5248 C 497.89 -1.25598 1.58334 0
M  V30 5249 C 498.211 -1.93114 0.270538 0
M  V30 5250 O 497.481 -1.82585 -0.709891 0
M  V30 5251 H 496.061 -0.466571 0.58337 0
M  V30 5252 H 498.723 -0.584547 1.85928 0
M  V30 5253 H 497.819 -2.02159 2.37778 0
M  V30 5254 N 498.12 -1.38341 -0.754957 0
M  V30 5255 C 499.369 -1.33791 -1.5094 0
M  V30 5256 C 499.682 0.0699267 -1.95475 0
M  V30 5257 O 500.888 0.237956 -2.70455 0
M  V30 5258 C 499.344 -2.34934 -2.72643 0
M  V30 5259 C 498.952 -3.81332 -2.35138 0
M  V30 5260 C 500.696 -2.39425 -3.50536 0
M  V30 5261 C 498.603 -4.74164 -3.53444 0
M  V30 5262 H 497.533 -0.497314 -0.566741 0
M  V30 5263 H 500.184 -1.63888 -0.825403 0
M  V30 5264 H 498.566 -1.97878 -3.43017 0
M  V30 5265 H 499.74 -4.27319 -1.7244 0
M  V30 5266 H 498.055 -3.79946 -1.70382 0
M  V30 5267 H 500.652 -3.0598 -4.38498 0
M  V30 5268 H 500.995 -1.41278 -3.91594 0
M  V30 5269 H 501.528 -2.75274 -2.87174 0
M  V30 5270 H 498.267 -5.73501 -3.17453 0
M  V30 5271 H 497.787 -4.3287 -4.15191 0
M  V30 5272 H 499.466 -4.92111 -4.20043 0
M  V30 5273 N 499.598 0.982988 -1.23187 0
M  V30 5274 C 500.826 1.75921 -1.08901 0
M  V30 5275 C 501.241 1.85341 0.359719 0
M  V30 5276 O 500.598 1.33072 1.24892 0
M  V30 5277 C 500.649 3.18742 -1.70545 0
M  V30 5278 O 500.37 3.09814 -3.09753 0
M  V30 5279 C 501.871 4.1277 -1.61667 0
M  V30 5280 H 499.091 0.552166 -0.381252 0
M  V30 5281 H 501.635 1.23516 -1.62985 0
M  V30 5282 H 499.79 3.68182 -1.20501 0
M  V30 5283 H 500.204 3.99703 -3.39614 0
M  V30 5284 H 501.678 5.10697 -2.09506 0
M  V30 5285 H 502.155 4.3542 -0.575009 0
M  V30 5286 H 502.761 3.69232 -2.11064 0
M  V30 5287 N 501.076 1.04316 1.18135 0
M  V30 5288 C 502.325 0.74319 1.87509 0
M  V30 5289 C 502.638 -0.732136 1.81381 0
M  V30 5290 O 503.844 -1.14572 2.46141 0
M  V30 5291 C 502.3 1.27913 3.36402 0
M  V30 5292 C 501.908 2.78326 3.51053 0
M  V30 5293 C 503.652 1.0558 4.11161 0
M  V30 5294 C 501.559 3.25266 4.93919 0
M  V30 5295 H 500.489 0.274313 0.702331 0
M  V30 5296 H 503.14 1.25931 1.33467 0
M  V30 5297 H 501.522 0.690853 3.89927 0
M  V30 5298 H 502.696 3.42933 3.07788 0
M  V30 5299 H 501.011 2.991 2.89704 0
M  V30 5300 H 503.608 1.38161 5.16542 0
M  V30 5301 H 503.951 -0.00684729 4.16299 0
M  V30 5302 H 504.484 1.60882 3.63816 0
M  V30 5303 H 501.223 4.30922 4.9395 0
M  V30 5304 H 500.743 2.65396 5.3789 0
M  V30 5305 H 502.422 3.19433 5.62647 0
M  V30 5306 N 502.554 -1.34406 0.822964 0
M  V30 5307 C 503.501 -2.29519 0.24284 0
M  V30 5308 C 504.471 -1.5359 -0.632397 0
M  V30 5309 O 505.656 -1.8196 -0.57403 0
M  V30 5310 C 502.796 -3.40032 -0.58925 0
M  V30 5311 C 501.909 -4.30899 0.308236 0
M  V30 5312 C 501.044 -5.28515 -0.533425 0
M  V30 5313 C 500.083 -6.1102 0.363444 0
M  V30 5314 N 499.22 -7.00725 -0.439147 0
M  V30 5315 H 504.06 -2.78537 1.05929 0
M  V30 5316 H 501.597 -1.3707 0.533872 0
M  V30 5317 H 503.555 -4.0279 -1.087 0
M  V30 5318 H 502.185 -2.92248 -1.37081 0
M  V30 5319 H 501.237 -3.69002 0.924203 0
M  V30 5320 H 502.549 -4.88717 0.997862 0
M  V30 5321 H 501.703 -5.96725 -1.09565 0
M  V30 5322 H 500.442 -4.71235 -1.25656 0
M  V30 5323 H 499.447 -5.41743 0.937812 0
M  V30 5324 H 500.672 -6.70381 1.08469 0
M  V30 5325 H 498.618 -6.45913 -1.14595 0
M  V30 5326 H 498.535 -7.55756 0.19209 0
M  V30 5327 H 499.803 -7.73263 -0.984124 0
M  V30 5328 N 504.032 -0.577932 -1.46621 0
M  V30 5329 C 504.962 0.145917 -2.33044 0
M  V30 5330 C 505.943 0.888412 -1.45056 0
M  V30 5331 O 507.128 0.864812 -1.73881 0
M  V30 5332 C 504.258 1.16322 -3.27241 0
M  V30 5333 C 503.212 0.535868 -4.24632 0
M  V30 5334 C 502.538 1.65929 -5.08303 0
M  V30 5335 C 503.838 -0.523861 -5.19666 0
M  V30 5336 H 505.532 -0.575636 -2.93814 0
M  V30 5337 H 503.078 -0.278272 -1.41286 0
M  V30 5338 H 505.031 1.67793 -3.86553 0
M  V30 5339 H 503.755 1.91498 -2.64567 0
M  V30 5340 H 502.414 0.0422759 -3.66576 0
M  V30 5341 H 502.062 2.40061 -4.42018 0
M  V30 5342 H 501.762 1.2452 -5.74255 0
M  V30 5343 H 503.286 2.17686 -5.70478 0
M  V30 5344 H 504.7 -0.0944059 -5.73222 0
M  V30 5345 H 503.097 -0.858 -5.93935 0
M  V30 5346 H 504.167 -1.41197 -4.63887 0
M  V30 5347 N 505.51 1.54411 -0.315457 0
M  V30 5348 C 506.442 2.21527 0.588067 0
M  V30 5349 C 507.455 1.21263 1.08624 0
M  V30 5350 O 508.644 1.47777 1.00121 0
M  V30 5351 C 505.744 2.85963 1.81875 0
M  V30 5352 C 504.917 4.12291 1.46063 0
M  V30 5353 C 503.976 4.60396 2.54799 0
M  V30 5354 O 503.002 5.25265 2.19283 0
M  V30 5355 N 504.204 4.33935 3.85591 0
M  V30 5356 H 506.969 2.99697 0.013414 0
M  V30 5357 H 504.53 1.61308 -0.138295 0
M  V30 5358 H 506.522 3.15071 2.53993 0
M  V30 5359 H 505.092 2.11548 2.30144 0
M  V30 5360 H 504.312 3.90036 0.571445 0
M  V30 5361 H 505.6 4.9452 1.19695 0
M  V30 5362 H 504.998 3.81996 4.17248 0
M  V30 5363 H 503.555 4.67718 4.53964 0
M  V30 5364 N 506.988 0.0434614 1.5754 0
M  V30 5365 C 508.213 -0.645358 1.97104 0
M  V30 5366 C 508.638 -1.64037 0.920521 0
M  V30 5367 O 507.996 -1.80922 -0.11708 0
M  V30 5368 C 508.044 -1.31547 3.35749 0
M  V30 5369 O 507.148 -2.43103 3.33129 0
M  V30 5370 H 506.489 -0.168403 0.64229 0
M  V30 5371 H 509.019 0.109573 2.04306 0
M  V30 5372 H 509.029 -1.66895 3.72304 0
M  V30 5373 H 507.704 -0.586205 4.11748 0
M  V30 5374 H 506.281 -2.0976 3.0831 0
M  V30 5375 N 508.466 -1.55915 -0.229846 0
M  V30 5376 C 509.877 -1.68809 -0.797531 0
M  V30 5377 C 510.228 -0.643995 -1.8533 0
M  V30 5378 O 509.353 0.206492 -2.15413 0
M  V30 5379 C 509.948 -3.06043 -1.45338 0
M  V30 5380 C 508.507 -3.20819 -1.96856 0
M  V30 5381 C 507.654 -2.6472 -0.825736 0
M  V30 5382 H 510.605 -1.58699 -0.00533733 0
M  V30 5383 H 510.626 -3.01438 -2.32196 0
M  V30 5384 H 510.138 -3.82012 -0.684743 0
M  V30 5385 H 508.239 -2.49704 -2.76548 0
M  V30 5386 H 508.352 -4.27937 -2.15423 0
M  V30 5387 H 506.716 -2.22985 -1.23084 0
M  V30 5388 H 507.499 -3.43229 -0.0699019 0
M  V30 5389 N 509.944 0.496216 -1.49584 0
M  V30 5390 C 510.854 1.62352 -1.69349 0
M  V30 5391 C 511.87 1.64184 -0.576147 0
M  V30 5392 O 513.046 1.82517 -0.85144 0
M  V30 5393 C 510.111 2.98698 -1.76013 0
M  V30 5394 C 509.172 3.07454 -2.99617 0
M  V30 5395 C 508.405 4.37296 -3.05953 0
M  V30 5396 O 508.628 5.2637 -2.19752 0
M  V30 5397 O 507.562 4.51124 -3.9846 0
M  V30 5398 H 511.388 1.48606 -2.64859 0
M  V30 5399 H 508.973 0.673022 -1.33382 0
M  V30 5400 H 510.855 3.79725 -1.82721 0
M  V30 5401 H 509.53 3.12696 -0.836828 0
M  V30 5402 H 508.437 2.25597 -2.98424 0
M  V30 5403 H 509.77 2.98385 -3.91443 0
M  V30 5404 N 511.423 1.38739 0.74761 0
M  V30 5405 C 512.669 1.35475 1.50912 0
M  V30 5406 C 513.002 -0.0533093 1.94127 0
M  V30 5407 O 512.277 -1.01572 1.65871 0
M  V30 5408 C 512.56 2.31582 2.75757 0
M  V30 5409 C 512.413 3.81274 2.38642 0
M  V30 5410 C 513.732 2.25722 3.77806 0
M  V30 5411 H 510.851 0.493427 0.547447 0
M  V30 5412 H 513.493 1.69634 0.855823 0
M  V30 5413 H 511.643 2.02582 3.31501 0
M  V30 5414 H 513.315 4.20972 1.88626 0
M  V30 5415 H 511.558 3.98664 1.71025 0
M  V30 5416 H 512.229 4.4399 3.27989 0
M  V30 5417 H 514.705 2.51336 3.31616 0
M  V30 5418 H 513.581 2.95069 4.62845 0
M  V30 5419 H 513.842 1.25803 4.23823 0
M  V30 5420 N 512.901 -0.976442 1.23707 0
M  V30 5421 C 514.317 -1.24341 1.00058 0
M  V30 5422 C 514.517 -1.99315 -0.295932 0
M  V30 5423 O 513.573 -2.3123 -1.01435 0
M  V30 5424 C 514.886 -2.03909 2.21001 0
M  V30 5425 C 516.434 -2.17034 2.25534 0
M  V30 5426 C 516.909 -2.99994 3.46075 0
M  V30 5427 N 518.4 -3.07578 3.46338 0
M  V30 5428 C 519.135 -3.72104 4.36264 0
M  V30 5429 N 518.631 -4.3842 5.36432 0
M  V30 5430 N 520.424 -3.69029 4.23998 0
M  V30 5431 H 512.575 -0.47428 2.07037 0
M  V30 5432 H 514.838 -0.272167 0.908091 0
M  V30 5433 H 514.544 -1.56198 3.15111 0
M  V30 5434 H 514.418 -3.04654 2.22409 0
M  V30 5435 H 516.805 -2.63951 1.31961 0
M  V30 5436 H 516.886 -1.15664 2.28156 0
M  V30 5437 H 516.53 -2.53772 4.39957 0
M  V30 5438 H 516.46 -4.01541 3.40694 0
M  V30 5439 H 518.951 -2.60397 2.73865 0
M  V30 5440 H 519.264 -4.85447 6.013 0
M  V30 5441 H 517.609 -4.37116 5.40328 0
M  V30 5442 H 520.8 -3.16392 3.44984 0
M  V30 5443 H 520.973 -4.19034 4.94282 0
M  V30 5444 N 514.379 -1.04941 -1.1758 0
M  V30 5445 C 515.604 -0.778253 -1.92245 0
M  V30 5446 C 516.029 0.659707 -1.76152 0
M  V30 5447 O 515.387 1.45803 -1.07755 0
M  V30 5448 C 515.435 -1.16051 -3.41416 0
M  V30 5449 O 514.539 -0.291153 -4.11371 0
M  V30 5450 H 513.88 -0.285619 -0.599431 0
M  V30 5451 H 516.41 -1.40159 -1.49052 0
M  V30 5452 H 516.42 -1.12619 -3.92149 0
M  V30 5453 H 515.095 -2.208 -3.52449 0
M  V30 5454 H 513.672 -0.385851 -3.70898 0
M  V30 5455 N 515.857 1.33968 -0.830081 0
M  V30 5456 C 517.104 1.98063 -0.421566 0
M  V30 5457 C 517.432 1.65787 1.0171 0
M  V30 5458 O 516.687 0.925348 1.72441 0
M  V30 5459 C 516.986 3.52679 -0.57898 0
M  V30 5460 C 516.652 4.04884 -1.98443 0
M  V30 5461 C 515.314 4.18852 -2.36888 0
M  V30 5462 C 517.666 4.32879 -2.90285 0
M  V30 5463 C 514.994 4.58145 -3.66497 0
M  V30 5464 C 517.346 4.7362 -4.19364 0
M  V30 5465 C 516.01 4.85794 -4.57778 0
M  V30 5466 H 515.28 0.724765 -0.154262 0
M  V30 5467 H 517.927 1.59792 -1.05541 0
M  V30 5468 H 516.232 3.91556 0.138219 0
M  V30 5469 H 517.929 4.00261 -0.243317 0
M  V30 5470 H 514.519 3.9448 -1.67581 0
M  V30 5471 H 518.703 4.21619 -2.61823 0
M  V30 5472 H 513.959 4.65762 -3.96075 0
M  V30 5473 H 518.133 4.9424 -4.90612 0
M  V30 5474 H 515.76 5.15998 -5.58256 0
M  V30 5475 N 517.335 0.585699 1.46312 0
M  V30 5476 C 518.612 0.00542031 1.95599 0
M  V30 5477 C 518.992 -1.45619 1.52834 0
M  V30 5478 O 518.34 -2.14759 0.780446 0
M  V30 5479 C 518.55 0.180601 3.48532 0
M  V30 5480 C 519.898 0.049979 4.24571 0
M  V30 5481 O 520.922 0.109589 3.56031 0
M  V30 5482 O 519.781 -0.0832226 5.46437 0
M  V30 5483 H 516.875 -0.0481281 0.825598 0
M  V30 5484 H 519.421 0.654227 1.56582 0
M  V30 5485 H 518.193 1.19657 3.72556 0
M  V30 5486 H 517.816 -0.504498 3.94386 0
M  V30 5487 N 518.813 -1.54241 0.323641 0
M  V30 5488 C 520.09 -1.92741 -0.333181 0
M  V30 5489 C 520.47 -1.25326 -1.69872 0
M  V30 5490 O 519.818 -0.396991 -2.25025 0
M  V30 5491 C 520.028 -3.46399 -0.425322 0
M  V30 5492 C 521.376 -4.19029 -0.68557 0
M  V30 5493 O 522.4 -3.52555 -0.50824 0
M  V30 5494 O 521.259 -5.36751 -1.02767 0
M  V30 5495 H 518.353 -0.804811 -0.190286 0
M  V30 5496 H 520.899 -1.65542 0.373361 0
M  V30 5497 H 519.671 -3.87643 0.533737 0
M  V30 5498 H 519.294 -3.79704 -1.17944 0
M  V30 5499 N 520.291 -0.0518155 -1.57515 0
M  V30 5500 C 521.521 0.63048 -1.96745 0
M  V30 5501 C 521.929 1.64875 -0.928054 0
M  V30 5502 O 521.272 1.83449 0.0960678 0
M  V30 5503 C 521.334 1.37381 -3.32215 0
M  V30 5504 C 520.998 0.511298 -4.54131 0
M  V30 5505 C 521.995 -0.222884 -5.19422 0
M  V30 5506 C 519.68 0.442035 -5.00351 0
M  V30 5507 C 521.674 -1.01476 -6.2927 0
M  V30 5508 C 519.361 -0.35353 -6.10077 0
M  V30 5509 C 520.359 -1.08062 -6.74397 0
M  V30 5510 O 520.047 -1.8631 -7.82013 0
M  V30 5511 H 519.779 0.177126 -0.652382 0
M  V30 5512 H 522.333 -0.114726 -2.05079 0
M  V30 5513 H 520.563 2.16466 -3.20436 0
M  V30 5514 H 522.252 1.9464 -3.56188 0
M  V30 5515 H 523.018 -0.178846 -4.8467 0
M  V30 5516 H 518.897 0.997562 -4.50077 0
M  V30 5517 H 522.441 -1.58279 -6.79407 0
M  V30 5518 H 518.338 -0.399205 -6.44264 0
M  V30 5519 H 519.106 -1.78528 -7.98793 0
M  V30 5520 N 521.769 1.56035 0.221574 0
M  V30 5521 C 523.016 1.79047 0.94597 0
M  V30 5522 C 523.344 0.62057 1.84334 0
M  V30 5523 O 522.599 -0.395053 1.91671 0
M  V30 5524 C 522.898 3.07813 1.8162 0
M  V30 5525 C 522.564 4.3797 1.07206 0
M  V30 5526 C 521.226 4.73334 0.866508 0
M  V30 5527 C 523.578 5.18326 0.546565 0
M  V30 5528 C 520.906 5.8657 0.123549 0
M  V30 5529 C 523.258 6.32335 -0.18305 0
M  V30 5530 C 521.922 6.66301 -0.399861 0
M  V30 5531 H 521.192 0.655178 0.346155 0
M  V30 5532 H 523.839 1.90299 0.214146 0
M  V30 5533 H 522.144 2.91682 2.61589 0
M  V30 5534 H 523.841 3.2282 2.37884 0
M  V30 5535 H 520.431 4.10202 1.24226 0
M  V30 5536 H 524.615 4.9144 0.692847 0
M  V30 5537 H 519.871 6.11376 -0.0546591 0
M  V30 5538 H 524.045 6.9383 -0.59775 0
M  V30 5539 H 521.672 7.53889 -0.977489 0
M  V30 5540 N 523.247 -0.488276 1.49845 0
M  V30 5541 C 524.177 -1.59675 1.70371 0
M  V30 5542 C 525.158 -1.60878 0.552473 0
M  V30 5543 O 526.343 -1.77417 0.78973 0
M  V30 5544 C 523.473 -2.98098 1.782 0
M  V30 5545 C 522.427 -3.11761 2.93239 0
M  V30 5546 C 521.753 -4.51661 2.86193 0
M  V30 5547 C 523.053 -2.90589 4.33999 0
M  V30 5548 H 524.747 -1.42752 2.63177 0
M  V30 5549 H 522.293 -0.685317 1.26647 0
M  V30 5550 H 524.246 -3.75555 1.91144 0
M  V30 5551 H 522.97 -3.16138 0.820018 0
M  V30 5552 H 521.629 -2.36732 2.79917 0
M  V30 5553 H 521.277 -4.66595 1.87877 0
M  V30 5554 H 520.977 -4.61742 3.63412 0
M  V30 5555 H 522.501 -5.31162 3.01163 0
M  V30 5556 H 523.915 -3.57807 4.47936 0
M  V30 5557 H 522.312 -3.1213 5.12538 0
M  V30 5558 H 523.382 -1.86595 4.4756 0
M  V30 5559 N 524.725 -1.39134 -0.740242 0
M  V30 5560 C 525.672 -1.37434 -1.8542 0
M  V30 5561 C 526.642 -0.234822 -1.64432 0
M  V30 5562 O 527.827 -0.429125 -1.85912 0
M  V30 5563 C 524.967 -1.21844 -3.22875 0
M  V30 5564 C 524.08 -2.45296 -3.55603 0
M  V30 5565 C 523.215 -2.22334 -4.82432 0
M  V30 5566 C 522.254 -3.41488 -5.07988 0
M  V30 5567 N 521.391 -3.17877 -6.26018 0
M  V30 5568 H 526.231 -2.3266 -1.86207 0
M  V30 5569 H 523.768 -1.15578 -0.909946 0
M  V30 5570 H 525.726 -1.10818 -4.02213 0
M  V30 5571 H 524.356 -0.3025 -3.21379 0
M  V30 5572 H 523.408 -2.66945 -2.71006 0
M  V30 5573 H 524.72 -3.34063 -3.7041 0
M  V30 5574 H 523.874 -2.0852 -5.69741 0
M  V30 5575 H 522.613 -1.30954 -4.6979 0
M  V30 5576 H 521.618 -3.55807 -4.19144 0
M  V30 5577 H 522.843 -4.33763 -5.22519 0
M  V30 5578 H 520.789 -2.29156 -6.14673 0
M  V30 5579 H 520.706 -4.00198 -6.41387 0
M  V30 5580 H 521.974 -3.07746 -7.16179 0
M  V30 5581 N 526.204 0.969867 -1.24223 0
M  V30 5582 C 527.134 2.08191 -1.05729 0
M  V30 5583 C 528.115 1.70075 0.0290765 0
M  V30 5584 O 529.3 1.93712 -0.137583 0
M  V30 5585 C 526.43 3.40991 -0.658995 0
M  V30 5586 C 525.384 3.93054 -1.69389 0
M  V30 5587 C 524.71 5.22171 -1.15072 0
M  V30 5588 C 526.01 4.21137 -3.08935 0
M  V30 5589 H 527.704 2.23921 -1.98746 0
M  V30 5590 H 525.25 1.07602 -0.956967 0
M  V30 5591 H 527.203 4.18221 -0.51662 0
M  V30 5592 H 525.927 3.25155 0.30686 0
M  V30 5593 H 524.586 3.17977 -1.82444 0
M  V30 5594 H 524.234 5.02694 -0.175539 0
M  V30 5595 H 523.934 5.57973 -1.84229 0
M  V30 5596 H 525.458 6.02013 -1.02042 0
M  V30 5597 H 526.872 4.8908 -2.99121 0
M  V30 5598 H 525.269 4.68163 -3.75425 0
M  V30 5599 H 526.339 3.27996 -3.57137 0
M  V30 5600 N 527.682 1.05563 1.17022 0
M  V30 5601 C 529.098 0.777684 1.39371 0
M  V30 5602 C 529.298 -0.626269 1.91521 0
M  V30 5603 O 528.354 -1.38806 2.10924 0
M  V30 5604 C 529.667 1.83642 2.3811 0
M  V30 5605 C 531.215 1.85907 2.51809 0
M  V30 5606 C 531.69 2.90813 3.53824 0
M  V30 5607 N 533.181 2.898 3.61345 0
M  V30 5608 C 533.916 3.6762 4.40049 0
M  V30 5609 N 533.412 4.55237 5.22237 0
M  V30 5610 N 535.205 3.56044 4.34959 0
M  V30 5611 H 527.356 1.9614 0.815047 0
M  V30 5612 H 529.619 0.849527 0.420722 0
M  V30 5613 H 529.325 2.84425 2.06871 0
M  V30 5614 H 529.199 1.6812 3.37662 0
M  V30 5615 H 531.586 0.857865 2.82356 0
M  V30 5616 H 531.667 2.05506 1.52318 0
M  V30 5617 H 531.311 3.91122 3.24015 0
M  V30 5618 H 531.241 2.68465 4.53028 0
M  V30 5619 H 533.732 2.26274 3.02669 0
M  V30 5620 H 534.045 5.11291 5.79484 0
M  V30 5621 H 532.39 4.59296 5.21605 0
M  V30 5622 H 535.581 2.86986 3.69806 0
M  V30 5623 H 535.754 4.16938 4.96051 0
M  V30 5624 N 529.16 -1.33526 0.837174 0
M  V30 5625 C 530.09 -2.31764 0.284206 0
M  V30 5626 C 531.071 -1.58896 -0.607142 0
M  V30 5627 O 532.256 -1.86798 -0.531047 0
M  V30 5628 C 529.386 -3.43029 -0.542962 0
M  V30 5629 C 528.34 -4.27255 0.252451 0
M  V30 5630 C 527.666 -5.3012 -0.69836 0
M  V30 5631 C 528.966 -5.01229 1.46858 0
M  V30 5632 H 530.66 -2.78262 1.10502 0
M  V30 5633 H 528.206 -1.3378 0.532812 0
M  V30 5634 H 530.159 -4.1078 -0.940096 0
M  V30 5635 H 528.883 -2.95216 -1.39697 0
M  V30 5636 H 527.542 -3.61127 0.631124 0
M  V30 5637 H 527.19 -4.78564 -1.54872 0
M  V30 5638 H 526.89 -5.87353 -0.170274 0
M  V30 5639 H 528.414 -6.00737 -1.09305 0
M  V30 5640 H 529.828 -5.61756 1.14469 0
M  V30 5641 H 528.225 -5.68104 1.93333 0
M  V30 5642 H 529.295 -4.301 2.23924 0
M  V30 5643 N 530.638 -0.59345 -1.46 0
M  V30 5644 C 531.915 -0.0157933 -1.95594 0
M  V30 5645 C 532.295 1.44807 -1.53604 0
M  V30 5646 O 531.643 2.14342 -0.791824 0
M  V30 5647 C 531.853 -0.199081 -3.48432 0
M  V30 5648 C 533.201 -0.0724943 -4.24538 0
M  V30 5649 O 534.225 -0.128469 -3.55968 0
M  V30 5650 O 533.084 0.0542426 -5.46473 0
M  V30 5651 H 530.178 0.043749 -0.825842 0
M  V30 5652 H 532.724 -0.662522 -1.56233 0
M  V30 5653 H 531.496 -1.21631 -3.71916 0
M  V30 5654 H 531.119 0.483576 -3.94648 0
M  V30 5655 N 532.116 1.54067 -0.331816 0
M  V30 5656 C 533.344 2.05131 0.269996 0
M  V30 5657 C 533.759 1.20749 1.45138 0
M  V30 5658 O 533.116 0.240069 1.80914 0
M  V30 5659 C 533.167 3.54728 0.696456 0
M  V30 5660 O 532.888 4.35906 -0.43794 0
M  V30 5661 C 534.389 4.21916 1.36021 0
M  V30 5662 H 531.609 0.668807 0.0542042 0
M  V30 5663 H 534.153 1.98777 -0.4804 0
M  V30 5664 H 532.308 3.61342 1.39681 0
M  V30 5665 H 532.722 5.24404 -0.100334 0
M  V30 5666 H 534.196 5.28015 1.60947 0
M  V30 5667 H 534.673 3.73538 2.31011 0
M  V30 5668 H 535.279 4.19463 0.702212 0
M  V30 5669 N 533.594 0.0601682 1.57485 0
M  V30 5670 C 534.542 -0.928899 2.13247 0
M  V30 5671 C 535.536 -1.31616 1.06647 0
M  V30 5672 O 536.742 -1.29476 1.25043 0
M  V30 5673 H 533.117 -0.317455 0.681708 0
M  V30 5674 H 535.088 -0.433566 2.95233 0
M  V30 5675 C 533.837 -2.19121 2.69965 0
M  V30 5676 H 533.16 -1.90204 3.51657 0
M  V30 5677 H 534.6 -2.86465 3.12592 0
M  V30 5678 C 533.059 -2.94195 1.64168 0
M  V30 5679 O 533.589 -3.87468 1.05978 0
M  V30 5680 N 531.795 -2.57089 1.35476 0
M  V30 5681 H 531.342 -1.81314 1.82984 0
M  V30 5682 H 531.3 -3.07624 0.649196 0
M  V30 5683 N 535.072 -1.5615 -0.213296 0
M  V30 5684 C 536.3 -1.83638 -0.953139 0
M  V30 5685 C 536.715 -0.640362 -1.77609 0
M  V30 5686 O 536.072 0.391071 -1.78261 0
M  V30 5687 C 536.123 -3.09735 -1.86405 0
M  V30 5688 O 535.844 -4.24723 -1.07435 0
M  V30 5689 C 537.345 -3.5027 -2.71709 0
M  V30 5690 H 534.565 -0.610263 -0.278962 0
M  V30 5691 H 537.109 -2.03247 -0.226035 0
M  V30 5692 H 535.264 -2.92077 -2.545 0
M  V30 5693 H 535.678 -4.9641 -1.69343 0
M  V30 5694 H 537.152 -4.41515 -3.31313 0
M  V30 5695 H 537.629 -2.72406 -3.44516 0
M  V30 5696 H 538.235 -3.70396 -2.09015 0
M  V30 5697 N 536.55 0.480323 -1.50102 0
M  V30 5698 C 537.966 0.813295 -1.37323 0
M  V30 5699 C 538.166 1.97027 -0.422206 0
M  V30 5700 O 537.222 2.5212 0.138563 0
M  V30 5701 C 538.535 1.13404 -2.78496 0
M  V30 5702 C 540.083 1.24104 -2.87345 0
M  V30 5703 C 540.558 1.59497 -4.29331 0
M  V30 5704 N 542.049 1.66507 -4.32238 0
M  V30 5705 C 542.784 1.95378 -5.39087 0
M  V30 5706 N 542.28 2.22333 -6.56155 0
M  V30 5707 N 544.073 1.96803 -5.26522 0
M  V30 5708 H 536.224 -0.282291 -2.10516 0
M  V30 5709 H 538.487 -0.063752 -0.945854 0
M  V30 5710 H 538.193 0.357064 -3.49883 0
M  V30 5711 H 538.067 2.07251 -3.15162 0
M  V30 5712 H 540.454 2.00871 -2.16183 0
M  V30 5713 H 540.535 0.282593 -2.54234 0
M  V30 5714 H 540.179 0.832736 -5.01027 0
M  V30 5715 H 540.109 2.56477 -4.59921 0
M  V30 5716 H 542.6 1.47753 -3.47818 0
M  V30 5717 H 542.913 2.43611 -7.33399 0
M  V30 5718 H 541.258 2.19745 -6.59346 0
M  V30 5719 H 544.449 1.75235 -4.34062 0
M  V30 5720 H 544.622 2.18969 -6.09883 0
M  V30 5721 N 538.028 1.39524 0.732853 0
M  V30 5722 C 538.976 1.38563 1.86824 0
M  V30 5723 C 539.97 0.268467 1.67259 0
M  V30 5724 O 541.176 0.438613 1.74574 0
M  V30 5725 H 537.551 0.432737 0.615014 0
M  V30 5726 H 539.522 2.34328 1.84751 0
M  V30 5727 C 538.271 1.2481 3.24527 0
M  V30 5728 H 537.594 2.10044 3.40179 0
M  V30 5729 H 539.034 1.28194 4.04156 0
M  V30 5730 C 537.493 -0.0432825 3.36872 0
M  V30 5731 O 538.023 -1.01268 3.88726 0
M  V30 5732 N 536.229 -0.107055 2.90403 0
M  V30 5733 H 535.776 0.682512 2.48394 0
M  V30 5734 H 535.734 -0.970618 2.99042 0
M  V30 5735 N 539.506 -0.963266 1.24736 0
M  V30 5736 C 540.917 -1.52145 1.08207 0
M  V30 5737 C 541.268 -1.93142 -0.345061 0
M  V30 5738 O 540.393 -1.77769 -1.23399 0
M  V30 5739 C 540.988 -2.76486 1.95808 0
M  V30 5740 C 539.547 -3.28646 1.8349 0
M  V30 5741 C 538.694 -2.01529 1.90476 0
M  V30 5742 H 541.645 -0.781083 1.38148 0
M  V30 5743 H 541.666 -3.49986 1.49297 0
M  V30 5744 H 541.178 -2.46617 2.99669 0
M  V30 5745 H 539.279 -3.63357 0.824787 0
M  V30 5746 H 539.392 -3.97246 2.67829 0
M  V30 5747 H 537.756 -2.16442 1.34258 0
M  V30 5748 H 538.539 -1.7402 2.95926 0
M  V30 5749 N 540.985 -1.06182 -1.16461 0
M  V30 5750 C 542.231 -0.788825 -1.87481 0
M  V30 5751 C 542.586 0.677298 -1.80085 0
M  V30 5752 O 541.879 1.48976 -1.20486 0
M  V30 5753 C 542.073 -1.21633 -3.36066 0
M  V30 5754 C 541.902 -2.72247 -3.57927 0
M  V30 5755 C 540.672 -3.39696 -3.74079 0
M  V30 5756 C 542.87 -3.70461 -3.56739 0
M  V30 5757 N 540.852 -4.79072 -3.83879 0
M  V30 5758 C 542.223 -4.95616 -3.72511 0
M  V30 5759 C 544.278 -3.63788 -3.39945 0
M  V30 5760 C 542.981 -6.14895 -3.73225 0
M  V30 5761 C 545.007 -4.82517 -3.41953 0
M  V30 5762 C 544.369 -6.065 -3.58242 0
M  V30 5763 H 540.468 -0.341034 -0.703719 0
M  V30 5764 H 543.052 -1.35575 -1.39741 0
M  V30 5765 H 541.223 -0.67725 -3.8245 0
M  V30 5766 H 542.955 -0.892119 -3.94745 0
M  V30 5767 H 539.71 -2.90097 -3.74354 0
M  V30 5768 H 540.134 -5.51573 -3.92551 0
M  V30 5769 H 544.776 -2.68888 -3.26281 0
M  V30 5770 H 542.494 -7.10129 -3.85672 0
M  V30 5771 H 546.08 -4.79017 -3.30203 0
M  V30 5772 H 544.96 -6.96833 -3.59712 0
M  V30 5773 N 542.463 1.3308 -0.844243 0
M  V30 5774 C 543.71 1.97605 -0.44255 0
M  V30 5775 C 544.038 1.66856 0.999458 0
M  V30 5776 O 543.293 0.943586 1.7145 0
M  V30 5777 C 543.592 3.52045 -0.616354 0
M  V30 5778 C 543.258 4.02757 -2.02726 0
M  V30 5779 C 541.92 4.16316 -2.41317 0
M  V30 5780 C 544.272 4.29776 -2.9486 0
M  V30 5781 C 541.6 4.54232 -3.71335 0
M  V30 5782 C 543.952 4.69146 -4.24364 0
M  V30 5783 C 542.616 4.80911 -4.62904 0
M  V30 5784 H 541.886 0.723088 -0.161941 0
M  V30 5785 H 544.533 1.58663 -1.0723 0
M  V30 5786 H 542.838 3.91681 0.0966812 0
M  V30 5787 H 544.535 3.99981 -0.285756 0
M  V30 5788 H 541.125 3.9268 -1.71756 0
M  V30 5789 H 545.309 4.18818 -2.6628 0
M  V30 5790 H 540.565 4.61535 -4.00993 0
M  V30 5791 H 544.739 4.89008 -4.95827 0
M  V30 5792 H 542.366 5.10048 -5.63698 0
M  V30 5793 N 543.941 0.601185 1.45683 0
M  V30 5794 C 545.352 0.179659 1.85834 0
M  V30 5795 C 545.703 -1.26189 1.50236 0
M  V30 5796 O 544.828 -1.95587 0.925987 0
M  V30 5797 C 545.423 0.319277 3.37292 0
M  V30 5798 C 543.982 -0.0475092 3.7637 0
M  V30 5799 C 543.129 0.646692 2.69654 0
M  V30 5800 H 546.08 0.808268 1.36575 0
M  V30 5801 H 546.101 -0.4503 3.77826 0
M  V30 5802 H 545.613 1.36855 3.6317 0
M  V30 5803 H 543.714 -1.0962 3.5611 0
M  V30 5804 H 543.827 0.34168 4.7788 0
M  V30 5805 H 542.191 0.0849971 2.54558 0
M  V30 5806 H 542.974 1.69797 2.98369 0
M  V30 5807 N 545.419 -1.53889 0.339982 0
M  V30 5808 C 546.329 -2.28604 -0.526988 0
M  V30 5809 C 547.345 -1.33578 -1.11503 0
M  V30 5810 O 548.521 -1.66612 -1.13148 0
M  V30 5811 C 545.586 -3.04164 -1.66389 0
M  V30 5812 C 544.647 -4.14809 -1.10599 0
M  V30 5813 C 543.88 -4.86756 -2.18871 0
M  V30 5814 O 544.103 -4.58343 -3.39526 0
M  V30 5815 O 543.037 -5.73289 -1.83366 0
M  V30 5816 H 546.863 -3.03594 0.0802707 0
M  V30 5817 H 544.448 -1.4903 0.105141 0
M  V30 5818 H 546.33 -3.51427 -2.32544 0
M  V30 5819 H 545.005 -2.32035 -2.25703 0
M  V30 5820 H 543.912 -3.71857 -0.409067 0
M  V30 5821 H 545.245 -4.89029 -0.557771 0
M  V30 5822 N 546.897 -0.0685191 -1.57451 0
M  V30 5823 C 548.144 0.601348 -1.93365 0
M  V30 5824 C 548.472 1.69816 -0.948294 0
M  V30 5825 O 547.727 1.95666 0.0366199 0
M  V30 5826 C 548.026 1.22051 -3.35914 0
M  V30 5827 C 547.692 0.250165 -4.50205 0
M  V30 5828 C 546.354 -0.0167954 -4.81197 0
M  V30 5829 C 548.706 -0.413867 -5.19554 0
M  V30 5830 C 546.034 -0.95493 -5.78876 0
M  V30 5831 C 548.386 -1.3403 -6.18238 0
M  V30 5832 C 547.05 -1.61576 -6.47649 0
M  V30 5833 H 546.32 0.220049 -0.707573 0
M  V30 5834 H 548.967 -0.138697 -1.90997 0
M  V30 5835 H 547.272 2.03622 -3.34732 0
M  V30 5836 H 548.969 1.74605 -3.6099 0
M  V30 5837 H 545.559 0.468421 -4.26033 0
M  V30 5838 H 549.743 -0.220733 -4.95809 0
M  V30 5839 H 544.999 -1.17563 -5.99991 0
M  V30 5840 H 549.173 -1.86081 -6.71079 0
M  V30 5841 H 546.8 -2.34431 -7.2315 0
M  V30 5842 N 548.375 1.56261 0.205012 0
M  V30 5843 C 549.621 1.81211 0.923805 0
M  V30 5844 C 549.976 0.644065 1.813 0
M  V30 5845 O 549.269 -0.361208 1.88164 0
M  V30 5846 C 549.463 3.09722 1.78345 0
M  V30 5847 C 549.292 4.38915 0.978979 0
M  V30 5848 C 548.062 5.00874 0.667332 0
M  V30 5849 C 550.26 5.13199 0.336386 0
M  V30 5850 N 548.242 6.137 -0.156814 0
M  V30 5851 C 549.613 6.19009 -0.350402 0
M  V30 5852 C 551.668 4.97266 0.251101 0
M  V30 5853 C 550.371 7.10616 -1.11434 0
M  V30 5854 C 552.397 5.89288 -0.499413 0
M  V30 5855 C 551.759 6.94536 -1.17468 0
M  V30 5856 H 547.858 0.714528 0.317764 0
M  V30 5857 H 550.442 1.93738 0.193317 0
M  V30 5858 H 548.613 2.98448 2.48563 0
M  V30 5859 H 550.345 3.22798 2.44098 0
M  V30 5860 H 547.1 4.63151 0.989366 0
M  V30 5861 H 547.524 6.74695 -0.558206 0
M  V30 5862 H 552.166 4.15935 0.758823 0
M  V30 5863 H 549.884 7.91417 -1.63353 0
M  V30 5864 H 553.47 5.79034 -0.566627 0
M  V30 5865 H 552.35 7.64513 -1.74613 0
M  V30 5866 N 549.853 -0.472356 1.50355 0
M  V30 5867 C 550.785 -1.58795 1.65278 0
M  V30 5868 C 551.798 -1.53782 0.534313 0
M  V30 5869 O 552.987 -1.59193 0.807446 0
M  V30 5870 C 550.087 -2.97672 1.62001 0
M  V30 5871 C 549.26 -3.27568 2.89859 0
M  V30 5872 C 548.319 -4.45993 2.79242 0
M  V30 5873 O 547.345 -4.46364 3.53197 0
M  V30 5874 N 548.547 -5.47578 1.92713 0
M  V30 5875 H 551.312 -1.46411 2.61503 0
M  V30 5876 H 548.873 -0.660751 1.47803 0
M  V30 5877 H 550.865 -3.74862 1.52513 0
M  V30 5878 H 549.435 -3.03832 0.735159 0
M  V30 5879 H 548.655 -2.39003 3.13483 0
M  V30 5880 H 549.943 -3.44352 3.74565 0
M  V30 5881 H 549.341 -5.50099 1.31939 0
M  V30 5882 H 547.898 -6.23757 1.8913 0
M  V30 5883 N 551.331 -1.39911 -0.725443 0
M  V30 5884 C 552.281 -1.35878 -1.83088 0
M  V30 5885 C 553.265 -0.237989 -1.5913 0
M  V30 5886 O 554.457 -0.476302 -1.70471 0
M  V30 5887 C 551.586 -1.21403 -3.21117 0
M  V30 5888 C 550.672 -2.38223 -3.50871 0
M  V30 5889 N 551.063 -3.63703 -3.51502 0
M  V30 5890 C 549.361 -2.31388 -3.81281 0
M  V30 5891 C 550.062 -4.4101 -3.79322 0
M  V30 5892 N 549.038 -3.7072 -3.97577 0
M  V30 5893 H 552.84 -2.3085 -1.81895 0
M  V30 5894 H 550.354 -1.33543 -0.924125 0
M  V30 5895 H 552.351 -1.16597 -4.00263 0
M  V30 5896 H 551.011 -0.273902 -3.23543 0
M  V30 5897 H 552.022 -3.96998 -3.32586 0
M  V30 5898 H 548.699 -1.45689 -3.91256 0
M  V30 5899 H 550.089 -5.49819 -3.86198 0
M  V30 5900 N 552.809 0.956637 -1.25245 0
M  V30 5901 C 554.225 1.22733 -1.02023 0
M  V30 5902 C 554.425 1.99761 0.264186 0
M  V30 5903 O 553.481 2.32814 0.977436 0
M  V30 5904 C 554.794 2.00367 -2.24217 0
M  V30 5905 C 556.342 2.13418 -2.28958 0
M  V30 5906 C 556.817 2.9445 -3.50803 0
M  V30 5907 N 558.308 3.02029 -3.51187 0
M  V30 5908 C 559.043 3.65116 -4.42129 0
M  V30 5909 N 558.539 4.2983 -5.43339 0
M  V30 5910 N 560.332 3.62237 -4.29815 0
M  V30 5911 H 552.483 0.441282 -2.07765 0
M  V30 5912 H 554.746 0.257686 -0.912306 0
M  V30 5913 H 554.452 1.51165 -3.17556 0
M  V30 5914 H 554.326 3.01077 -2.27228 0
M  V30 5915 H 556.713 2.61819 -1.36143 0
M  V30 5916 H 556.794 1.1202 -2.29968 0
M  V30 5917 H 556.438 2.46741 -4.43939 0
M  V30 5918 H 556.368 3.9607 -3.47039 0
M  V30 5919 H 558.859 2.56007 -2.77973 0
M  V30 5920 H 559.172 4.75819 -6.08947 0
M  V30 5921 H 557.517 4.28465 -5.47214 0
M  V30 5922 H 560.708 3.10863 -3.49974 0
M  V30 5923 H 560.881 4.11117 -5.00886 0
M  V30 5924 N 554.287 1.06798 1.15896 0
M  V30 5925 C 555.534 0.787767 1.86549 0
M  V30 5926 C 555.862 -0.685959 1.82002 0
M  V30 5927 O 555.117 -1.5188 1.23414 0
M  V30 5928 C 555.416 1.23414 3.35416 0
M  V30 5929 C 555.082 2.71285 3.6016 0
M  V30 5930 C 553.744 3.11676 3.66622 0
M  V30 5931 C 556.096 3.6676 3.7032 0
M  V30 5932 C 553.424 4.4637 3.8075 0
M  V30 5933 C 555.776 5.01209 3.8597 0
M  V30 5934 C 554.44 5.41229 3.90676 0
M  V30 5935 H 553.71 0.288264 0.682631 0
M  V30 5936 H 556.357 1.338 1.37003 0
M  V30 5937 H 554.662 0.60319 3.87129 0
M  V30 5938 H 556.359 0.994298 3.88477 0
M  V30 5939 H 552.949 2.39015 3.55767 0
M  V30 5940 H 557.133 3.36685 3.64633 0
M  V30 5941 H 552.389 4.76855 3.82648 0
M  V30 5942 H 556.563 5.75067 3.92773 0
M  V30 5943 H 554.19 6.45602 4.01375 0
M  V30 5944 N 555.766 -1.3263 0.851289 0
M  V30 5945 C 556.698 -2.27824 0.250757 0
M  V30 5946 C 557.711 -1.52285 -0.575598 0
M  V30 5947 O 558.9 -1.73946 -0.400638 0
M  V30 5948 C 556 -3.3232 -0.664571 0
M  V30 5949 C 555.173 -4.37221 0.125187 0
M  V30 5950 C 554.232 -5.21314 -0.715385 0
M  V30 5951 O 553.258 -5.69002 -0.150111 0
M  V30 5952 N 554.46 -5.43823 -2.03069 0
M  V30 5953 H 557.225 -2.79997 1.06873 0
M  V30 5954 H 554.786 -1.45455 0.710943 0
M  V30 5955 H 556.778 -3.85486 -1.23216 0
M  V30 5956 H 555.348 -2.80331 -1.38323 0
M  V30 5957 H 554.568 -3.84384 0.874199 0
M  V30 5958 H 555.856 -5.04399 0.667774 0
M  V30 5959 H 555.254 -5.06803 -2.51332 0
M  V30 5960 H 553.811 -5.99998 -2.54648 0
M  V30 5961 N 557.244 -0.608902 -1.45362 0
M  V30 5962 C 558.484 -0.10763 -2.04116 0
M  V30 5963 C 558.848 1.23883 -1.46686 0
M  V30 5964 O 560.049 1.83091 -1.96803 0
M  V30 5965 C 558.32 -0.0703351 -3.57331 0
M  V30 5966 S 559.879 0.369554 -4.37241 0
M  V30 5967 H 556.697 -0.0502123 -0.709225 0
M  V30 5968 H 559.299 -0.8073 -1.78053 0
M  V30 5969 H 558.003 -1.05379 -3.9664 0
M  V30 5970 H 557.534 0.651287 -3.87971 0
M  V30 5971 H 559.549 1.61878 -4.69052 0
M  V30 5972 N 558.722 1.53707 -0.348139 0
M  V30 5973 C 560.138 1.596 0.00361134 0
M  V30 5974 C 560.338 1.36394 1.4832 0
M  V30 5975 O 559.394 1.16046 2.24253 0
M  V30 5976 C 560.707 2.97512 -0.436682 0
M  V30 5977 C 562.255 3.10568 -0.389416 0
M  V30 5978 C 562.73 4.50866 -0.805249 0
M  V30 5979 N 564.221 4.56929 -0.759616 0
M  V30 5980 C 564.956 5.63643 -1.05327 0
M  V30 5981 N 564.452 6.78189 -1.41531 0
M  V30 5982 N 566.245 5.5354 -0.977207 0
M  V30 5983 H 558.396 1.67044 -1.31187 0
M  V30 5984 H 560.659 0.782559 -0.535075 0
M  V30 5985 H 560.365 3.19575 -1.46849 0
M  V30 5986 H 560.239 3.76742 0.185744 0
M  V30 5987 H 562.626 2.88226 0.633228 0
M  V30 5988 H 562.707 2.33387 -1.04711 0
M  V30 5989 H 562.351 4.73943 -1.82593 0
M  V30 5990 H 562.281 5.26452 -0.124989 0
M  V30 5991 H 564.772 3.74675 -0.49265 0
M  V30 5992 H 565.085 7.55541 -1.62411 0
M  V30 5993 H 563.43 6.79624 -1.45381 0
M  V30 5994 H 566.621 4.62932 -0.693675 0
M  V30 5995 H 566.794 6.36614 -1.2094 0
M  V30 5996 N 560.2 0.0768682 1.57412 0
M  V30 5997 C 561.13 -0.886026 2.16037 0
M  V30 5998 C 562.111 -1.30691 1.08876 0
M  V30 5999 O 563.296 -1.37705 1.36934 0
M  V30 6000 C 560.426 -2.1518 2.72608 0
M  V30 6001 C 559.38 -1.87015 3.8498 0
M  V30 6002 C 558.706 -3.20266 4.28175 0
M  V30 6003 C 560.006 -1.17143 5.08994 0
M  V30 6004 H 561.7 -0.397642 2.96748 0
M  V30 6005 H 559.246 -0.189823 1.42743 0
M  V30 6006 H 561.199 -2.82962 3.12266 0
M  V30 6007 H 559.923 -2.66269 1.89125 0
M  V30 6008 H 558.582 -1.21636 3.45833 0
M  V30 6009 H 558.23 -3.69207 3.41607 0
M  V30 6010 H 557.93 -3.0221 5.03927 0
M  V30 6011 H 559.454 -3.89237 4.70454 0
M  V30 6012 H 560.868 -1.75003 5.45937 0
M  V30 6013 H 559.265 -1.09328 5.90057 0
M  V30 6014 H 560.335 -0.151295 4.84664 0
M  V30 6015 N 561.678 -1.56367 -0.196722 0
M  V30 6016 C 563.089 -1.70462 -0.761545 0
M  V30 6017 C 563.44 -0.683161 -1.83922 0
M  V30 6018 O 562.565 0.160753 -2.15802 0
M  V30 6019 C 563.16 -3.09057 -1.38814 0
M  V30 6020 C 561.719 -3.24922 -1.90007 0
M  V30 6021 C 560.866 -2.66412 -0.769399 0
M  V30 6022 H 563.817 -1.58675 0.0283263 0
M  V30 6023 H 563.838 -3.06296 -2.2575 0
M  V30 6024 H 563.35 -3.83378 -0.603559 0
M  V30 6025 H 561.451 -2.55514 -2.71189 0
M  V30 6026 H 561.564 -4.3241 -2.06297 0
M  V30 6027 H 559.928 -2.25546 -1.18326 0
M  V30 6028 H 560.711 -3.433 0.00291773 0
M  V30 6029 N 563.156 0.464375 -1.50603 0
M  V30 6030 C 564.404 1.21356 -1.61608 0
M  V30 6031 C 564.725 1.92329 -0.321643 0
M  V30 6032 O 563.995 1.84403 0.661232 0
M  V30 6033 H 562.575 0.45094 -0.595535 0
M  V30 6034 H 565.237 0.535046 -1.87412 0
M  V30 6035 H 564.333 1.95783 -2.43054 0
M  V30 6036 N 564.634 1.40294 0.718013 0
M  V30 6037 C 565.584 1.36847 1.82365 0
M  V30 6038 C 566.568 0.246424 1.59002 0
M  V30 6039 O 567.76 0.485336 1.70216 0
M  V30 6040 C 564.889 1.23105 3.20469 0
M  V30 6041 C 563.975 2.4008 3.49603 0
M  V30 6042 N 564.366 3.65562 3.49568 0
M  V30 6043 C 562.664 2.33407 3.80049 0
M  V30 6044 C 563.365 4.43015 3.76978 0
M  V30 6045 N 562.341 3.72823 3.95606 0
M  V30 6046 H 566.143 2.31811 1.80668 0
M  V30 6047 H 563.657 1.34031 0.91703 0
M  V30 6048 H 565.654 1.18718 3.9964 0
M  V30 6049 H 564.314 0.291056 3.23393 0
M  V30 6050 H 565.325 3.98756 3.30476 0
M  V30 6051 H 562.002 1.47762 3.90478 0
M  V30 6052 H 563.392 5.51859 3.83276 0
M  V30 6053 N 566.112 -0.949982 1.2575 0
M  V30 6054 C 567.042 -2.06483 1.09028 0
M  V30 6055 C 568.023 -1.701 -0.00201532 0
M  V30 6056 O 569.208 -1.93469 0.168383 0
M  V30 6057 C 566.338 -3.39899 0.71316 0
M  V30 6058 C 565.292 -3.90309 1.75621 0
M  V30 6059 C 564.618 -5.20274 1.23365 0
M  V30 6060 C 565.918 -4.16169 3.15596 0
M  V30 6061 H 567.612 -2.20731 2.02283 0
M  V30 6062 H 565.158 -1.06066 0.973964 0
M  V30 6063 H 567.111 -4.17346 0.58309 0
M  V30 6064 H 565.835 -3.25602 -0.255091 0
M  V30 6065 H 564.494 -3.15035 1.8748 0
M  V30 6066 H 564.142 -5.02351 0.255491 0
M  V30 6067 H 563.842 -5.54971 1.93082 0
M  V30 6068 H 565.366 -6.00314 1.11607 0
M  V30 6069 H 566.78 -4.84259 3.06864 0
M  V30 6070 H 565.177 -4.62131 3.82825 0
M  V30 6071 H 566.247 -3.22273 3.6231 0
M  V30 6072 N 567.59 -1.07411 -1.15328 0
M  V30 6073 C 568.52 -0.716472 -2.22236 0
M  V30 6074 C 569.501 0.296373 -1.67498 0
M  V30 6075 O 570.686 0.168989 -1.93463 0
M  V30 6076 C 567.816 -0.114142 -3.47112 0
M  V30 6077 C 566.77 -1.05421 -4.14814 0
M  V30 6078 C 566.096 -0.314604 -5.33774 0
M  V30 6079 C 567.396 -2.38808 -4.64508 0
M  V30 6080 H 569.09 -1.61029 -2.52408 0
M  V30 6081 H 566.636 -0.775702 -1.21321 0
M  V30 6082 H 568.589 0.148001 -4.2114 0
M  V30 6083 H 567.313 0.814755 -3.16274 0
M  V30 6084 H 565.972 -1.30128 -3.42728 0
M  V30 6085 H 565.62 0.617772 -4.99192 0
M  V30 6086 H 565.32 -0.941209 -5.80013 0
M  V30 6087 H 566.844 -0.0602747 -6.1057 0
M  V30 6088 H 568.258 -2.18424 -5.3006 0
M  V30 6089 H 566.655 -2.97069 -5.21412 0
M  V30 6090 H 567.725 -3.01067 -3.80114 0
M  V30 6091 N 569.068 1.32177 -0.85831 0
M  V30 6092 C 569.978 2.32561 -0.308606 0
M  V30 6093 C 570.994 1.64209 0.575462 0
M  V30 6094 O 572.17 1.95719 0.474961 0
M  V30 6095 C 569.235 3.43207 0.490909 0
M  V30 6096 C 568.296 4.27243 -0.419733 0
M  V30 6097 C 567.529 5.32605 0.341719 0
M  V30 6098 O 567.752 5.48332 1.57125 0
M  V30 6099 O 566.686 6.0118 -0.294379 0
M  V30 6100 H 570.512 2.81477 -1.14037 0
M  V30 6101 H 568.097 1.35866 -0.621349 0
M  V30 6102 H 569.979 4.10677 0.944574 0
M  V30 6103 H 568.654 2.96474 1.29941 0
M  V30 6104 H 567.561 3.62569 -0.921652 0
M  V30 6105 H 568.894 4.7751 -1.19352 0
M  V30 6106 N 570.547 0.616602 1.45037 0
M  V30 6107 C 571.495 -0.109318 2.32343 0
M  V30 6108 C 572.489 -0.850543 1.465 0
M  V30 6109 O 573.695 -0.765088 1.62931 0
M  V30 6110 H 570.07 -0.0541091 0.750051 0
M  V30 6111 H 572.041 0.645326 2.91338 0
M  V30 6112 C 570.79 -1.0872 3.30266 0
M  V30 6113 H 570.113 -0.526267 3.96321 0
M  V30 6114 H 571.553 -1.56489 3.94065 0
M  V30 6115 C 570.012 -2.16525 2.58105 0
M  V30 6116 O 570.542 -3.244 2.36913 0
M  V30 6117 N 568.748 -1.92057 2.18088 0
M  V30 6118 H 568.295 -1.04337 2.35524 0
M  V30 6119 H 568.253 -2.64391 1.70131 0
M  V30 6120 N 572.025 -1.5352 0.356285 0
M  V30 6121 C 573.436 -1.86282 -0.12492 0
M  V30 6122 C 573.787 -1.27717 -1.48939 0
M  V30 6123 O 572.912 -0.595614 -2.08042 0
M  V30 6124 C 573.507 -3.37995 -0.23345 0
M  V30 6125 C 572.066 -3.70588 -0.658899 0
M  V30 6126 C 571.213 -2.76581 0.199596 0
M  V30 6127 H 574.164 -1.47901 0.575423 0
M  V30 6128 H 574.185 -3.65475 -1.0587 0
M  V30 6129 H 573.697 -3.8059 0.759776 0
M  V30 6130 H 571.798 -3.33544 -1.66069 0
M  V30 6131 H 571.911 -4.77076 -0.439957 0
M  V30 6132 H 570.275 -2.52552 -0.330076 0
M  V30 6133 H 571.058 -3.22008 1.19019 0
M  V30 6134 N 573.503 -0.0852151 -1.57369 0
M  V30 6135 C 574.451 0.894856 -2.14698 0
M  V30 6136 C 575.445 1.29903 -1.08727 0
M  V30 6137 O 576.651 1.27471 -1.27088 0
M  V30 6138 H 573.026 0.306569 -0.686673 0
M  V30 6139 H 574.997 0.386542 -2.95886 0
M  V30 6140 C 573.746 2.14798 -2.73417 0
M  V30 6141 H 573.069 1.84585 -3.54638 0
M  V30 6142 H 574.509 2.81456 -3.1711 0
M  V30 6143 C 572.968 2.91546 -1.68828 0
M  V30 6144 O 573.498 3.85733 -1.12129 0
M  V30 6145 N 571.704 2.54901 -1.39549 0
M  V30 6146 H 571.251 1.7838 -1.85845 0
M  V30 6147 H 571.209 3.06553 -0.698054 0
M  V30 6148 N 574.981 1.5647 0.188427 0
M  V30 6149 C 576.228 1.81013 0.907779 0
M  V30 6150 C 576.556 0.65953 1.82977 0
M  V30 6151 O 575.811 -0.354308 1.92466 0
M  V30 6152 C 576.11 3.11596 1.7505 0
M  V30 6153 C 575.776 4.40145 0.978922 0
M  V30 6154 C 574.438 4.75066 0.765912 0
M  V30 6155 C 576.79 5.19369 0.436498 0
M  V30 6156 C 574.118 5.867 -0.00089868 0
M  V30 6157 C 576.47 6.31805 -0.317136 0
M  V30 6158 C 575.134 6.65303 -0.541103 0
M  V30 6159 H 574.404 0.662373 0.33218 0
M  V30 6160 H 577.051 1.9071 0.173732 0
M  V30 6161 H 575.356 2.97165 2.55343 0
M  V30 6162 H 577.053 3.27793 2.30983 0
M  V30 6163 H 573.643 4.12745 1.15497 0
M  V30 6164 H 577.827 4.92799 0.588449 0
M  V30 6165 H 573.083 6.11122 -0.184329 0
M  V30 6166 H 577.257 6.92406 -0.744788 0
M  V30 6167 H 574.884 7.51646 -1.13718 0
M  V30 6168 N 576.459 -0.456382 1.50847 0
M  V30 6169 C 577.406 -1.55249 1.70782 0
M  V30 6170 C 578.376 -1.56757 0.549231 0
M  V30 6171 O 579.561 -1.74061 0.7815 0
M  V30 6172 C 576.701 -2.93118 1.82143 0
M  V30 6173 C 575.814 -3.01285 3.09598 0
M  V30 6174 C 574.949 -4.30159 3.11667 0
M  V30 6175 C 573.988 -4.32124 4.33515 0
M  V30 6176 N 573.125 -5.52492 4.3324 0
M  V30 6177 H 577.965 -1.37555 2.64353 0
M  V30 6178 H 575.502 -0.668543 1.3103 0
M  V30 6179 H 577.46 -3.73088 1.86711 0
M  V30 6180 H 576.09 -3.09413 0.919978 0
M  V30 6181 H 575.142 -2.14096 3.14431 0
M  V30 6182 H 576.454 -2.98597 3.99551 0
M  V30 6183 H 575.608 -5.18489 3.15046 0
M  V30 6184 H 574.347 -4.35477 2.1957 0
M  V30 6185 H 573.352 -3.42189 4.30333 0
M  V30 6186 H 574.577 -4.28485 5.26856 0
M  V30 6187 H 572.523 -5.58567 3.44004 0
M  V30 6188 H 572.44 -5.51605 5.16979 0
M  V30 6189 H 573.708 -6.42906 4.40786 0
M  V30 6190 N 577.937 -1.40673 -0.710563 0
M  V30 6191 C 579.353 -1.22813 -1.01928 0
M  V30 6192 C 579.553 -0.10687 -2.01216 0
M  V30 6193 O 578.609 0.533614 -2.46797 0
M  V30 6194 C 579.922 -2.57178 -1.5582 0
M  V30 6195 C 581.47 -2.64233 -1.67779 0
M  V30 6196 C 581.945 -3.98879 -2.25076 0
M  V30 6197 N 583.436 -4.00647 -2.32456 0
M  V30 6198 C 584.171 -5.01621 -2.77784 0
M  V30 6199 N 583.667 -6.12989 -3.22826 0
M  V30 6200 N 585.46 -4.88988 -2.77213 0
M  V30 6201 H 577.611 -2.12335 -0.05253 0
M  V30 6202 H 579.874 -0.9441 -0.085898 0
M  V30 6203 H 579.58 -3.39903 -0.903249 0
M  V30 6204 H 579.454 -2.78618 -2.54267 0
M  V30 6205 H 581.841 -1.81876 -2.3239 0
M  V30 6206 H 581.922 -2.46619 -0.679178 0
M  V30 6207 H 581.566 -4.81678 -1.61086 0
M  V30 6208 H 581.496 -4.13826 -3.25661 0
M  V30 6209 H 583.987 -3.20231 -2.0065 0
M  V30 6210 H 584.3 -6.85921 -3.55995 0
M  V30 6211 H 582.645 -6.16547 -3.20773 0
M  V30 6212 H 585.836 -4.01075 -2.41363 0
M  V30 6213 H 586.009 -5.67822 -3.12221 0
M  V30 6214 N 579.415 0.9433 -1.26252 0
M  V30 6215 C 580.664 1.68369 -1.11062 0
M  V30 6216 C 580.977 1.92514 0.346104 0
M  V30 6217 O 582.183 2.64358 0.618646 0
M  V30 6218 C 580.639 3.03171 -1.93946 0
M  V30 6219 C 580.247 2.86782 -3.4418 0
M  V30 6220 C 581.991 3.80916 -1.87359 0
M  V30 6221 C 579.898 4.17044 -4.19319 0
M  V30 6222 H 578.828 0.631469 -0.412023 0
M  V30 6223 H 581.479 1.04922 -1.50544 0
M  V30 6224 H 579.861 3.67587 -1.47296 0
M  V30 6225 H 581.035 2.31229 -3.98585 0
M  V30 6226 H 579.35 2.22482 -3.51981 0
M  V30 6227 H 581.947 4.77417 -2.40784 0
M  V30 6228 H 582.29 4.07658 -0.843857 0
M  V30 6229 H 582.823 3.2327 -2.31821 0
M  V30 6230 H 579.562 3.95487 -5.22753 0
M  V30 6231 H 579.082 4.72319 -3.69696 0
M  V30 6232 H 580.761 4.85513 -4.27651 0
M  V30 6233 N 580.893 1.08022 1.14757 0
M  V30 6234 C 582.133 0.816959 1.87364 0
M  V30 6235 C 582.497 -0.645407 1.80827 0
M  V30 6236 O 583.698 -1.024 2.48531 0
M  V30 6237 C 581.969 1.31961 3.32146 0
M  V30 6238 S 583.528 1.18806 4.2241 0
M  V30 6239 H 580.346 0.295862 0.646519 0
M  V30 6240 H 582.948 1.3807 1.38408 0
M  V30 6241 H 581.652 2.37847 3.3445 0
M  V30 6242 H 581.183 0.751371 3.86158 0
M  V30 6243 H 583.198 0.129865 4.9603 0
M  V30 6244 N 582.371 -1.3172 0.865308 0
M  V30 6245 C 583.599 -2.01057 0.488251 0
M  V30 6246 C 584.014 -1.64979 -0.918 0
M  V30 6247 O 583.371 -0.876597 -1.60069 0
M  V30 6248 C 583.422 -3.55964 0.630224 0
M  V30 6249 O 583.143 -3.90749 1.98109 0
M  V30 6250 C 584.644 -4.42574 0.253567 0
M  V30 6251 H 581.864 -0.64332 0.190736 0
M  V30 6252 H 584.408 -1.68058 1.16519 0
M  V30 6253 H 582.563 -3.874 0.000895422 0
M  V30 6254 H 582.977 -4.85467 1.9855 0
M  V30 6255 H 584.451 -5.50521 0.403875 0
M  V30 6256 H 584.928 -4.31724 -0.806895 0
M  V30 6257 H 585.534 -4.16547 0.858404 0
M  V30 6258 N 583.85 -0.624285 -1.44708 0
M  V30 6259 C 585.098 -0.125802 -2.01708 0
M  V30 6260 C 585.418 1.2543 -1.49306 0
M  V30 6261 O 584.689 1.83198 -0.693924 0
M  V30 6262 H 583.269 -0.0435161 -0.745731 0
M  V30 6263 H 585.931 -0.809446 -1.77296 0
M  V30 6264 H 585.027 -0.0882734 -3.11975 0
M  V30 6265 N 585.328 1.53329 -0.364422 0
M  V30 6266 C 586.276 2.27212 0.497737 0
M  V30 6267 C 587.27 1.30146 1.08437 0
M  V30 6268 O 588.476 1.47778 1.0277 0
M  V30 6269 H 584.851 0.730329 0.179232 0
M  V30 6270 H 586.822 2.98037 -0.147182 0
M  V30 6271 C 585.571 3.07333 1.6261 0
M  V30 6272 H 584.894 3.81866 1.184 0
M  V30 6273 H 586.334 3.62209 2.20409 0
M  V30 6274 C 584.793 2.18102 2.56775 0
M  V30 6275 O 585.323 1.79104 3.59562 0
M  V30 6276 N 583.529 1.82759 2.25937 0
M  V30 6277 H 583.076 2.14671 1.42387 0
M  V30 6278 H 583.034 1.23342 2.89196 0
M  V30 6279 N 586.806 0.0935595 1.57322 0
M  V30 6280 C 587.716 -0.880192 2.17462 0
M  V30 6281 C 588.732 -1.31135 1.14366 0
M  V30 6282 O 589.908 -1.37958 1.46729 0
M  V30 6283 C 586.973 -2.12184 2.74188 0
M  V30 6284 C 586.034 -1.74503 3.92234 0
M  V30 6285 C 585.267 -2.92748 4.46245 0
M  V30 6286 O 585.49 -4.07427 3.99198 0
M  V30 6287 O 584.424 -2.71303 5.37288 0
M  V30 6288 H 588.25 -0.398516 3.01074 0
M  V30 6289 H 585.835 -0.130707 1.48827 0
M  V30 6290 H 587.717 -2.84953 3.10451 0
M  V30 6291 H 586.392 -2.59407 1.93623 0
M  V30 6292 H 585.299 -0.989186 3.60785 0
M  V30 6293 H 586.632 -1.32044 4.74157 0
M  V30 6294 N 588.284 -1.56567 -0.180126 0
M  V30 6295 C 589.509 -1.85975 -0.918041 0
M  V30 6296 C 589.934 -0.678888 -1.75422 0
M  V30 6297 O 589.292 0.372168 -1.77439 0
M  V30 6298 C 589.34 -3.13731 -1.77779 0
M  V30 6299 O 588.444 -2.95335 -2.87838 0
M  V30 6300 H 587.785 -0.61196 -0.257683 0
M  V30 6301 H 590.315 -2.03798 -0.180923 0
M  V30 6302 H 590.325 -3.4491 -2.17948 0
M  V30 6303 H 589 -3.99293 -1.16352 0
M  V30 6304 H 587.577 -2.7549 -2.51316 0
M  V30 6305 N 589.762 0.448376 -1.51087 0
M  V30 6306 C 590.692 1.55102 -1.74544 0
M  V30 6307 C 591.673 1.59357 -0.594932 0
M  V30 6308 O 592.858 1.75261 -0.836491 0
M  V30 6309 C 589.988 2.93268 -1.86041 0
M  V30 6310 C 588.942 3.03877 -3.01402 0
M  V30 6311 C 588.268 4.43914 -2.98068 0
M  V30 6312 C 589.568 2.7898 -4.41551 0
M  V30 6313 H 591.262 1.35724 -2.66869 0
M  V30 6314 H 588.808 0.651498 -1.28419 0
M  V30 6315 H 590.761 3.70356 -2.01034 0
M  V30 6316 H 589.485 3.13853 -0.903548 0
M  V30 6317 H 588.144 2.29227 -2.86096 0
M  V30 6318 H 587.792 4.6145 -2.00182 0
M  V30 6319 H 587.492 4.51944 -3.75527 0
M  V30 6320 H 589.016 5.22991 -3.1514 0
M  V30 6321 H 590.43 3.45805 -4.57265 0
M  V30 6322 H 588.827 2.98431 -5.20633 0
M  V30 6323 H 589.897 1.74663 -4.5235 0
M  V30 6324 N 591.24 1.41047 0.703093 0
M  V30 6325 C 592.15 1.44645 1.84703 0
M  V30 6326 C 593.166 0.337778 1.7069 0
M  V30 6327 O 594.342 0.584327 1.92737 0
M  V30 6328 C 591.407 1.31928 3.20618 0
M  V30 6329 C 590.468 2.53047 3.46794 0
M  V30 6330 C 589.701 2.40927 4.76224 0
M  V30 6331 O 589.924 1.42978 5.5219 0
M  V30 6332 O 588.858 3.30543 5.03016 0
M  V30 6333 H 592.684 2.41139 1.84624 0
M  V30 6334 H 590.269 1.22504 0.855167 0
M  V30 6335 H 592.151 1.27092 4.01778 0
M  V30 6336 H 590.826 0.385469 3.21397 0
M  V30 6337 H 589.733 2.6346 2.65593 0
M  V30 6338 H 591.066 3.45231 3.50822 0
M  V30 6339 N 592.718 -0.936591 1.26751 0
M  V30 6340 C 593.628 -2.06949 1.10496 0
M  V30 6341 C 594.644 -1.7396 0.037271 0
M  V30 6342 O 595.82 -1.99941 0.241944 0
M  V30 6343 C 592.885 -3.38612 0.744491 0
M  V30 6344 C 591.946 -3.85355 1.89209 0
M  V30 6345 C 591.179 -5.10735 1.54873 0
M  V30 6346 O 591.402 -5.68602 0.452546 0
M  V30 6347 O 590.336 -5.52632 2.38499 0
M  V30 6348 H 594.162 -2.23571 2.05547 0
M  V30 6349 H 591.747 -1.05428 1.05855 0
M  V30 6350 H 593.629 -4.17711 0.556396 0
M  V30 6351 H 592.304 -3.23218 -0.176582 0
M  V30 6352 H 591.211 -3.07182 2.13518 0
M  V30 6353 H 592.544 -4.05277 2.79305 0
M  V30 6354 N 594.196 -1.08629 -1.14182 0
M  V30 6355 C 595.144 -0.71284 -2.21408 0
M  V30 6356 C 596.138 0.282457 -1.67029 0
M  V30 6357 O 597.344 0.144783 -1.79417 0
M  V30 6358 H 593.719 -0.212497 -0.721352 0
M  V30 6359 H 595.69 -1.6265 -2.50175 0
M  V30 6360 C 594.439 -0.140704 -3.47415 0
M  V30 6361 H 593.762 -0.897739 -3.8959 0
M  V30 6362 H 595.202 0.0827677 -4.23919 0
M  V30 6363 C 593.661 1.122 -3.17668 0
M  V30 6364 O 594.191 2.20652 -3.35672 0
M  V30 6365 N 592.397 1.03328 -2.71609 0
M  V30 6366 H 591.944 0.150666 -2.57159 0
M  V30 6367 H 591.902 1.8789 -2.52081 0
M  V30 6368 N 595.674 1.31259 -0.872281 0
M  V30 6369 C 596.904 2.00504 -0.498183 0
M  V30 6370 C 597.312 1.65632 0.914479 0
M  V30 6371 O 596.655 0.882849 1.61095 0
M  V30 6372 C 596.717 3.5482 -0.578194 0
M  V30 6373 C 596.381 4.13172 -1.95289 0
M  V30 6374 C 597.378 4.30107 -2.92069 0
M  V30 6375 C 595.063 4.48846 -2.25483 0
M  V30 6376 C 597.057 4.81908 -4.17185 0
M  V30 6377 C 594.744 5.00349 -3.50847 0
M  V30 6378 C 595.742 5.16831 -4.46514 0
M  V30 6379 O 595.43 5.67228 -5.69656 0
M  V30 6380 H 595.162 0.648055 -0.192354 0
M  V30 6381 H 597.716 1.6841 -1.17589 0
M  V30 6382 H 595.946 3.86383 0.156438 0
M  V30 6383 H 597.635 4.05318 -0.217192 0
M  V30 6384 H 598.401 4.02862 -2.7005 0
M  V30 6385 H 594.28 4.35292 -1.51795 0
M  V30 6386 H 597.824 4.94688 -4.91863 0
M  V30 6387 H 593.721 5.27028 -3.72708 0
M  V30 6388 H 594.489 5.85592 -5.7186 0
M  V30 6389 N 597.152 0.631951 1.44375 0
M  V30 6390 C 598.398 0.13697 2.02337 0
M  V30 6391 C 598.731 -1.23826 1.49602 0
M  V30 6392 O 598.006 -1.8221 0.680415 0
M  V30 6393 C 598.289 0.124536 3.59885 0
M  V30 6394 C 598.142 1.53217 4.229 0
M  V30 6395 C 599.461 -0.550481 4.36644 0
M  V30 6396 H 596.58 0.051247 0.735216 0
M  V30 6397 H 599.222 0.808581 1.71936 0
M  V30 6398 H 597.372 -0.44737 3.85916 0
M  V30 6399 H 599.044 2.15303 4.07973 0
M  V30 6400 H 597.287 2.0858 3.80364 0
M  V30 6401 H 597.958 1.4755 5.31914 0
M  V30 6402 H 600.434 -0.0641154 4.16051 0
M  V30 6403 H 599.31 -0.528371 5.46351 0
M  V30 6404 H 599.571 -1.62097 4.11311 0
M  V30 6405 N 598.631 -1.53133 0.372548 0
M  V30 6406 C 599.563 -2.23557 -0.505444 0
M  V30 6407 C 600.576 -1.25211 -1.04049 0
M  V30 6408 O 601.765 -1.51391 -0.945675 0
M  V30 6409 C 598.865 -2.92516 -1.71136 0
M  V30 6410 C 598.038 -4.17428 -1.30661 0
M  V30 6411 C 597.097 -4.69535 -2.37536 0
M  V30 6412 O 596.123 -5.33042 -1.99637 0
M  V30 6413 N 597.325 -4.47947 -3.6922 0
M  V30 6414 H 600.09 -2.9954 0.0978259 0
M  V30 6415 H 597.651 -1.60684 0.198068 0
M  V30 6416 H 599.643 -3.24281 -2.42124 0
M  V30 6417 H 598.213 -2.19944 -2.22134 0
M  V30 6418 H 597.433 -3.91888 -0.426292 0
M  V30 6419 H 598.721 -4.98622 -1.01259 0
M  V30 6420 H 598.119 -3.97219 -4.02783 0
M  V30 6421 H 596.676 -4.84245 -4.36292 0
M  V30 6422 N 600.109 -0.101901 -1.5727 0
M  V30 6423 C 601.386 0.602832 -1.86079 0
M  V30 6424 C 601.766 1.85912 -1 0
M  V30 6425 O 601.114 2.28379 -0.0742488 0
M  V30 6426 C 601.324 0.911694 -3.36881 0
M  V30 6427 C 602.672 1.2722 -4.05093 0
M  V30 6428 O 603.696 1.0025 -3.41802 0
M  V30 6429 O 602.555 1.7776 -5.16782 0
M  V30 6430 H 599.649 0.302366 -0.769743 0
M  V30 6431 H 602.195 -0.135113 -1.69161 0
M  V30 6432 H 600.967 0.0207256 -3.91295 0
M  V30 6433 H 600.59 1.70538 -3.59169 0
M  V30 6434 N 601.587 1.56661 0.17182 0
M  V30 6435 C 602.812 1.86459 0.908165 0
M  V30 6436 C 603.237 0.688181 1.75059 0
M  V30 6437 O 602.595 -0.362753 1.77634 0
M  V30 6438 C 602.643 3.14669 1.76112 0
M  V30 6439 O 601.747 2.96858 2.86268 0
M  V30 6440 H 601.088 0.613318 0.254434 0
M  V30 6441 H 603.618 2.03892 0.170113 0
M  V30 6442 H 603.628 3.46061 2.16115 0
M  V30 6443 H 602.303 3.99905 1.14233 0
M  V30 6444 H 600.88 2.76819 2.49852 0
M  V30 6445 N 603.065 -0.440357 1.51323 0
M  V30 6446 C 604.012 -1.53429 1.72419 0
M  V30 6447 C 604.982 -1.56165 0.565826 0
M  V30 6448 O 606.167 -1.73222 0.799917 0
M  V30 6449 C 603.307 -2.91169 1.85242 0
M  V30 6450 C 602.42 -2.97985 3.12777 0
M  V30 6451 C 601.555 -4.26829 3.16212 0
M  V30 6452 C 600.594 -4.27501 4.38074 0
M  V30 6453 N 599.731 -5.47866 4.39076 0
M  V30 6454 H 604.571 -1.34743 2.65797 0
M  V30 6455 H 602.108 -0.654608 1.31732 0
M  V30 6456 H 604.066 -3.71087 1.90658 0
M  V30 6457 H 602.696 -3.0842 0.952744 0
M  V30 6458 H 601.748 -2.10749 3.16685 0
M  V30 6459 H 603.06 -2.94342 4.02696 0
M  V30 6460 H 602.214 -5.15118 3.20527 0
M  V30 6461 H 600.953 -4.33124 2.24176 0
M  V30 6462 H 599.958 -3.37606 4.33938 0
M  V30 6463 H 601.183 -4.22873 5.31371 0
M  V30 6464 H 599.129 -5.54887 3.49909 0
M  V30 6465 H 599.046 -5.46091 5.22801 0
M  V30 6466 H 600.314 -6.38195 4.4758 0
M  V30 6467 N 604.543 -1.41418 -0.695603 0
M  V30 6468 C 605.476 -1.3768 -1.81988 0
M  V30 6469 C 606.454 -0.244061 -1.60758 0
M  V30 6470 O 607.638 -0.430965 -1.83507 0
M  V30 6471 C 604.765 -1.1476 -3.18666 0
M  V30 6472 C 603.811 -2.30752 -3.58686 0
M  V30 6473 S 604.644 -3.9323 -3.63498 0
M  V30 6474 C 605.8 -3.72613 -5.02902 0
M  V30 6475 H 606.033 -2.32822 -1.84882 0
M  V30 6476 H 603.566 -1.27942 -0.86431 0
M  V30 6477 H 605.524 -1.02223 -3.97569 0
M  V30 6478 H 604.185 -0.212385 -3.13381 0
M  V30 6479 H 603.378 -2.10409 -4.57978 0
M  V30 6480 H 602.98 -2.39696 -2.87092 0
M  V30 6481 H 605.272 -3.32317 -5.904 0
M  V30 6482 H 606.215 -4.71507 -5.28286 0
M  V30 6483 H 606.623 -3.0589 -4.74438 0
M  V30 6484 N 606.021 0.929856 -1.27246 0
M  V30 6485 C 607.269 1.674 -1.13233 0
M  V30 6486 C 607.59 1.92311 0.322744 0
M  V30 6487 O 606.86 1.52784 1.22612 0
M  V30 6488 H 605.44 0.620411 -0.416052 0
M  V30 6489 H 608.102 1.11663 -1.59741 0
M  V30 6490 H 607.198 2.64308 -1.65975 0
M  V30 6491 N 607.499 1.09233 1.13605 0
M  V30 6492 C 608.746 0.827159 1.84836 0
M  V30 6493 C 609.074 -0.647199 1.83416 0
M  V30 6494 O 608.329 -1.49228 1.26608 0
M  V30 6495 C 608.628 1.305 3.32723 0
M  V30 6496 C 608.294 2.78864 3.54325 0
M  V30 6497 C 606.956 3.19382 3.59928 0
M  V30 6498 C 609.308 3.74532 3.62457 0
M  V30 6499 C 606.636 4.54346 3.71196 0
M  V30 6500 C 608.988 5.09283 3.75252 0
M  V30 6501 C 607.652 5.49394 3.79108 0
M  V30 6502 H 606.922 0.302679 0.676363 0
M  V30 6503 H 609.569 1.36676 1.34134 0
M  V30 6504 H 607.874 0.68517 3.85762 0
M  V30 6505 H 609.571 1.07648 3.86281 0
M  V30 6506 H 606.161 2.46507 3.50617 0
M  V30 6507 H 610.345 3.44343 3.57409 0
M  V30 6508 H 605.601 4.84864 3.72447 0
M  V30 6509 H 609.775 5.83269 3.80487 0
M  V30 6510 H 607.402 6.5397 3.87591 0
M  V30 6511 N 608.977 -1.30795 0.87923 0
M  V30 6512 C 610.223 -1.96653 0.495519 0
M  V30 6513 C 610.556 -1.69282 -0.951703 0
M  V30 6514 O 609.831 -0.994374 -1.6716 0
M  V30 6515 C 610.114 -3.51898 0.764174 0
M  V30 6516 C 609.967 -3.88808 2.2616 0
M  V30 6517 C 611.286 -4.39462 0.236825 0
M  V30 6518 H 608.405 -0.7143 0.181507 0
M  V30 6519 H 611.047 -1.54765 1.10217 0
M  V30 6520 H 609.197 -3.87709 0.247841 0
M  V30 6521 H 610.869 -3.63051 2.8459 0
M  V30 6522 H 609.112 -3.37082 2.73053 0
M  V30 6523 H 609.783 -4.97086 2.4002 0
M  V30 6524 H 612.259 -4.10528 0.678683 0
M  V30 6525 H 611.135 -5.47018 0.454176 0
M  V30 6526 H 611.396 -4.33621 -0.861683 0
M  V30 6527 N 610.455 -0.639598 -1.44038 0
M  V30 6528 C 611.704 -0.144885 -2.01179 0
M  V30 6529 C 612.017 1.24372 -1.50967 0
M  V30 6530 O 613.223 1.83291 -2.00292 0
M  V30 6531 C 611.679 -0.208244 -3.59297 0
M  V30 6532 C 611.287 -1.59869 -4.18504 0
M  V30 6533 C 613.031 0.229568 -4.23879 0
M  V30 6534 C 610.938 -1.61671 -5.68873 0
M  V30 6535 H 609.868 -0.0504005 -0.752314 0
M  V30 6536 H 612.519 -0.799639 -1.65161 0
M  V30 6537 H 610.901 0.513767 -3.92653 0
M  V30 6538 H 612.075 -2.34496 -3.96671 0
M  V30 6539 H 610.39 -1.98131 -3.66242 0
M  V30 6540 H 612.987 0.235758 -5.3418 0
M  V30 6541 H 613.33 1.25848 -3.96822 0
M  V30 6542 H 613.863 -0.440233 -3.95357 0
M  V30 6543 H 610.602 -2.62427 -6.00677 0
M  V30 6544 H 610.122 -0.913489 -5.92803 0
M  V30 6545 H 611.801 -1.35439 -6.32665 0
M  V30 6546 N 611.933 1.52934 -0.380664 0
M  V30 6547 C 612.881 2.27727 0.47361 0
M  V30 6548 C 613.875 1.31288 1.0705 0
M  V30 6549 O 615.081 1.4886 1.01197 0
M  V30 6550 H 611.456 0.732189 0.171475 0
M  V30 6551 H 613.427 2.97864 -0.178785 0
M  V30 6552 C 612.176 3.0904 1.59341 0
M  V30 6553 H 611.499 3.831 1.14343 0
M  V30 6554 H 612.939 3.64527 2.16555 0
M  V30 6555 C 611.398 2.20813 2.54447 0
M  V30 6556 O 611.928 1.82907 3.57642 0
M  V30 6557 N 610.134 1.85145 2.23986 0
M  V30 6558 H 609.681 2.16169 1.40103 0
M  V30 6559 H 609.639 1.26402 2.87871 0
M  V30 6560 N 613.412 0.11024 1.57214 0
M  V30 6561 C 614.375 -0.828808 2.1369 0
M  V30 6562 C 615.375 -1.20059 1.06969 0
M  V30 6563 O 616.565 -1.12754 1.32786 0
M  V30 6564 C 613.697 -2.11959 2.66994 0
M  V30 6565 H 614.89 -0.338146 2.97988 0
M  V30 6566 H 612.443 -0.138913 1.55681 0
M  V30 6567 H 613.178 -2.65476 1.8626 0
M  V30 6568 H 612.963 -1.86258 3.45037 0
M  V30 6569 H 614.453 -2.79105 3.10629 0
M  V30 6570 N 614.89 -1.56749 -0.16351 0
M  V30 6571 C 616.139 -1.81626 -0.877211 0
M  V30 6572 C 616.452 -0.688791 -1.83071 0
M  V30 6573 O 617.658 -0.822697 -2.58735 0
M  V30 6574 C 616.114 -3.21858 -1.61045 0
M  V30 6575 C 615.722 -4.42494 -0.700195 0
M  V30 6576 C 617.466 -3.56021 -2.31192 0
M  V30 6577 C 615.373 -5.73748 -1.43412 0
M  V30 6578 H 614.303 -0.67731 -0.331312 0
M  V30 6579 H 616.954 -1.83039 -0.13006 0
M  V30 6580 H 615.336 -3.14784 -2.40264 0
M  V30 6581 H 616.51 -4.60766 0.0555849 0
M  V30 6582 H 614.825 -4.1626 -0.10799 0
M  V30 6583 H 617.422 -4.51333 -2.8671 0
M  V30 6584 H 617.765 -2.81277 -3.06902 0
M  V30 6585 H 618.298 -3.64682 -1.58909 0
M  V30 6586 H 615.037 -6.51543 -0.719186 0
M  V30 6587 H 614.557 -5.5944 -2.16302 0
M  V30 6588 H 616.236 -6.15975 -1.9795 0
M  V30 6589 N 616.368 0.432326 -1.51554 0
M  V30 6590 C 617.598 1.2019 -1.68042 0
M  V30 6591 C 618.006 1.85356 -0.379434 0
M  V30 6592 O 617.349 1.71724 0.652427 0
M  V30 6593 C 617.411 2.32387 -2.74292 0
M  V30 6594 C 617.075 1.87548 -4.16743 0
M  V30 6595 C 618.072 1.37611 -5.01357 0
M  V30 6596 C 615.757 1.95087 -4.62868 0
M  V30 6597 C 617.751 0.958069 -6.30159 0
M  V30 6598 C 615.438 1.52894 -5.91664 0
M  V30 6599 C 616.436 1.03336 -6.75137 0
M  V30 6600 O 616.124 0.617435 -8.01525 0
M  V30 6601 H 615.856 0.368132 -0.56697 0
M  V30 6602 H 618.41 0.517875 -1.98764 0
M  V30 6603 H 616.64 3.04082 -2.38895 0
M  V30 6604 H 618.329 2.94235 -2.79608 0
M  V30 6605 H 619.095 1.31178 -4.66923 0
M  V30 6606 H 614.974 2.32606 -3.98015 0
M  V30 6607 H 618.518 0.570562 -6.95263 0
M  V30 6608 H 614.415 1.58999 -6.25611 0
M  V30 6609 H 615.183 0.742835 -8.15122 0
M  V30 6610 N 617.846 1.41785 0.688094 0
M  V30 6611 C 618.809 1.43936 1.78368 0
M  V30 6612 C 619.809 0.328866 1.57401 0
M  V30 6613 O 620.999 0.589093 1.63937 0
M  V30 6614 C 618.131 1.25804 3.16838 0
M  V30 6615 H 619.324 2.41472 1.77852 0
M  V30 6616 H 616.877 1.28037 0.896448 0
M  V30 6617 H 617.612 0.291386 3.22988 0
M  V30 6618 H 617.397 2.06272 3.33458 0
M  V30 6619 H 618.887 1.30162 3.96797 0
M  V30 6620 N 619.324 -0.923095 1.27737 0
M  V30 6621 C 620.257 -2.02515 1.05181 0
M  V30 6622 C 621.235 -1.62574 -0.0292204 0
M  V30 6623 O 622.419 -1.88137 0.116848 0
M  V30 6624 C 619.546 -3.33407 0.596468 0
M  V30 6625 C 618.592 -3.92328 1.67276 0
M  V30 6626 S 619.425 -4.24342 3.26641 0
M  V30 6627 C 620.581 -5.58308 2.82919 0
M  V30 6628 H 620.814 -2.21336 1.98488 0
M  V30 6629 H 618.347 -1.06679 1.1162 0
M  V30 6630 H 620.305 -4.09086 0.34044 0
M  V30 6631 H 618.966 -3.125 -0.316614 0
M  V30 6632 H 618.159 -4.86797 1.30556 0
M  V30 6633 H 617.761 -3.2325 1.8811 0
M  V30 6634 H 620.053 -6.37801 2.28509 0
M  V30 6635 H 620.996 -5.99931 3.7615 0
M  V30 6636 H 621.404 -5.19049 2.21919 0
M  V30 6637 N 620.802 -1.09834 -1.13024 0
M  V30 6638 C 621.765 -0.745058 -2.16752 0
M  V30 6639 C 622.765 0.227435 -1.59183 0
M  V30 6640 O 623.955 0.0050786 -1.74199 0
M  V30 6641 C 621.087 -0.102543 -3.40746 0
M  V30 6642 H 622.28 -1.66375 -2.49518 0
M  V30 6643 H 619.833 -0.898061 -1.27924 0
M  V30 6644 H 620.568 0.827177 -3.13573 0
M  V30 6645 H 620.353 -0.80235 -3.83803 0
M  V30 6646 H 621.843 0.129082 -4.174 0
M  V30 6647 N 622.28 1.30327 -0.886154 0
M  V30 6648 C 623.23 2.25668 -0.325248 0
M  V30 6649 C 624.214 1.51318 0.546972 0
M  V30 6650 O 625.406 1.72623 0.391203 0
M  V30 6651 C 622.535 3.40229 0.458167 0
M  V30 6652 C 621.621 4.21933 -0.428208 0
M  V30 6653 N 622.012 4.82129 -1.52921 0
M  V30 6654 C 620.31 4.45439 -0.223535 0
M  V30 6655 C 621.011 5.43351 -2.07714 0
M  V30 6656 N 619.987 5.26002 -1.37195 0
M  V30 6657 H 623.789 2.69759 -1.1665 0
M  V30 6658 H 621.303 1.4478 -0.735691 0
M  V30 6659 H 623.3 4.07579 0.876648 0
M  V30 6660 H 621.96 2.97678 1.29684 0
M  V30 6661 H 622.971 4.81312 -1.91205 0
M  V30 6662 H 619.648 4.13481 0.577875 0
M  V30 6663 H 621.038 6.01118 -3.00178 0
M  V30 6664 N 623.758 0.647228 1.43697 0
M  V30 6665 C 625.006 0.157876 2.01482 0
M  V30 6666 C 625.327 -1.23039 1.51282 0
M  V30 6667 O 624.597 -1.82071 0.722982 0
M  V30 6668 H 623.177 0.0553745 0.744945 0
M  V30 6669 H 625.839 0.83755 1.75986 0
M  V30 6670 H 624.935 0.137895 3.11795 0
M  V30 6671 N 625.236 -1.5273 0.388769 0
M  V30 6672 C 626.166 -2.29353 -0.438111 0
M  V30 6673 C 627.147 -1.32719 -1.06394 0
M  V30 6674 O 628.332 -1.61612 -1.07681 0
M  V30 6675 C 625.462 -3.09995 -1.56589 0
M  V30 6676 C 624.416 -4.14509 -1.06613 0
M  V30 6677 C 623.742 -4.83372 -2.28594 0
M  V30 6678 C 625.042 -5.22127 -0.134459 0
M  V30 6679 H 626.736 -2.98723 0.201206 0
M  V30 6680 H 624.282 -1.43665 0.0982089 0
M  V30 6681 H 626.235 -3.62357 -2.15118 0
M  V30 6682 H 624.959 -2.38357 -2.23279 0
M  V30 6683 H 623.618 -3.63128 -0.503383 0
M  V30 6684 H 623.266 -4.08283 -2.93792 0
M  V30 6685 H 622.966 -5.54012 -1.95817 0
M  V30 6686 H 624.49 -5.38538 -2.87766 0
M  V30 6687 H 625.904 -5.69851 -0.627914 0
M  V30 6688 H 624.301 -6.00011 0.103534 0
M  V30 6689 H 625.371 -4.77971 0.816798 0
M  V30 6690 N 626.714 -0.118576 -1.57153 0
M  V30 6691 C 627.646 0.862247 -2.12363 0
M  V30 6692 C 628.659 1.23025 -1.06625 0
M  V30 6693 O 629.848 1.17927 -1.33998 0
M  V30 6694 C 626.948 2.16425 -2.60794 0
M  V30 6695 C 626.121 1.96801 -3.90626 0
M  V30 6696 C 625.18 3.10726 -4.2466 0
M  V30 6697 O 624.206 2.83659 -4.93484 0
M  V30 6698 N 625.408 4.37147 -3.81946 0
M  V30 6699 H 628.173 0.390564 -2.97144 0
M  V30 6700 H 625.734 0.0658591 -1.61766 0
M  V30 6701 H 627.726 2.91633 -2.80593 0
M  V30 6702 H 626.296 2.54943 -1.80895 0
M  V30 6703 H 625.516 1.05787 -3.7974 0
M  V30 6704 H 626.804 1.80993 -4.7552 0
M  V30 6705 H 626.202 4.62014 -3.26435 0
M  V30 6706 H 624.759 5.09229 -4.06853 0
M  V30 6707 N 628.193 1.56834 0.155195 0
M  V30 6708 C 629.141 1.98584 1.21107 0
M  V30 6709 C 630.135 0.876987 1.44932 0
M  V30 6710 O 631.341 1.06215 1.45322 0
M  V30 6711 H 627.716 0.632039 0.407469 0
M  V30 6712 H 629.687 2.86561 0.832195 0
M  V30 6713 C 628.436 2.37555 2.53895 0
M  V30 6714 H 627.759 3.22428 2.3639 0
M  V30 6715 H 629.199 2.70598 3.26424 0
M  V30 6716 C 627.658 1.22507 3.13837 0
M  V30 6717 O 628.188 0.521388 3.98302 0
M  V30 6718 N 626.394 0.991444 2.73164 0
M  V30 6719 H 625.941 1.56544 2.04577 0
M  V30 6720 H 625.899 0.223546 3.13604 0
M  V30 6721 N 629.671 -0.424282 1.51781 0
M  V30 6722 C 630.604 -1.53633 1.68737 0
M  V30 6723 C 631.582 -1.53549 0.534915 0
M  V30 6724 O 632.766 -1.72483 0.760391 0
M  V30 6725 C 629.893 -2.92195 1.71288 0
M  V30 6726 C 628.939 -3.10251 2.92654 0
M  V30 6727 S 629.772 -2.85166 4.53256 0
M  V30 6728 C 630.928 -4.25986 4.58571 0
M  V30 6729 H 631.161 -1.39018 2.62795 0
M  V30 6730 H 628.694 -0.614854 1.41629 0
M  V30 6731 H 630.652 -3.72059 1.73443 0
M  V30 6732 H 629.313 -3.04162 0.783847 0
M  V30 6733 H 628.506 -4.1159 2.90877 0
M  V30 6734 H 628.108 -2.38231 2.88308 0
M  V30 6735 H 630.4 -5.19392 4.35015 0
M  V30 6736 H 631.343 -4.32792 5.60444 0
M  V30 6737 H 631.751 -4.1025 3.87757 0
M  V30 6738 N 631.149 -1.42148 -0.680565 0
M  V30 6739 C 632.099 -1.41634 -1.78672 0
M  V30 6740 C 633.083 -0.288494 -1.58293 0
M  V30 6741 O 634.275 -0.530295 -1.68869 0
M  V30 6742 C 631.404 -1.31558 -3.17092 0
M  V30 6743 C 630.49 -2.49265 -3.43115 0
M  V30 6744 N 630.881 -3.74702 -3.39753 0
M  V30 6745 C 629.179 -2.43401 -3.73727 0
M  V30 6746 C 629.88 -4.52854 -3.651 0
M  V30 6747 N 628.856 -3.83181 -3.85582 0
M  V30 6748 H 632.658 -2.3652 -1.74458 0
M  V30 6749 H 630.172 -1.36415 -0.881171 0
M  V30 6750 H 632.169 -1.29272 -3.96351 0
M  V30 6751 H 630.829 -0.376696 -3.22508 0
M  V30 6752 H 631.84 -4.07378 -3.19787 0
M  V30 6753 H 628.517 -1.58062 -3.86423 0
M  V30 6754 H 629.907 -5.61827 -3.6851 0
M  V30 6755 N 632.627 0.916307 -1.28225 0
M  V30 6756 C 633.577 2.00488 -1.08574 0
M  V30 6757 C 634.561 1.60897 -0.0101874 0
M  V30 6758 O 635.753 1.75499 -0.230034 0
M  V30 6759 C 632.882 3.35076 -0.746943 0
M  V30 6760 C 631.968 3.81077 -1.86121 0
M  V30 6761 N 632.359 3.99475 -3.10247 0
M  V30 6762 C 630.657 4.10212 -1.75048 0
M  V30 6763 C 631.358 4.37965 -3.82834 0
M  V30 6764 N 630.334 4.4608 -3.10667 0
M  V30 6765 H 634.136 2.1276 -2.02757 0
M  V30 6766 H 631.65 1.10397 -1.19107 0
M  V30 6767 H 633.647 4.12743 -0.587252 0
M  V30 6768 H 632.307 3.2416 0.187146 0
M  V30 6769 H 633.318 3.85466 -3.45885 0
M  V30 6770 H 629.995 4.07947 -0.887999 0
M  V30 6771 H 631.385 4.60183 -4.89572 0
M  V30 6772 N 634.105 1.10431 1.1244 0
M  V30 6773 C 635.068 0.756542 2.16354 0
M  V30 6774 C 636.068 -0.21899 1.59302 0
M  V30 6775 O 637.258 0.00415969 1.742 0
M  V30 6776 C 634.39 0.120612 3.40687 0
M  V30 6777 H 635.583 1.67696 2.48632 0
M  V30 6778 H 633.136 0.904832 1.27446 0
M  V30 6779 H 633.871 -0.810536 3.14008 0
M  V30 6780 H 633.656 0.822693 3.83372 0
M  V30 6781 H 635.146 -0.106945 4.17463 0
M  V30 6782 N 635.583 -1.29855 0.893053 0
M  V30 6783 C 636.513 -2.3035 0.382249 0
M  V30 6784 C 637.494 -1.61328 -0.539203 0
M  V30 6785 O 638.679 -1.88882 -0.451342 0
M  V30 6786 C 635.809 -3.45024 -0.396983 0
M  V30 6787 C 634.763 -4.258 0.433437 0
M  V30 6788 C 634.089 -5.32605 -0.472889 0
M  V30 6789 C 635.389 -4.94549 1.67984 0
M  V30 6790 H 637.083 -2.73325 1.22205 0
M  V30 6791 H 634.629 -1.314 0.589073 0
M  V30 6792 H 636.582 -4.14398 -0.765024 0
M  V30 6793 H 635.306 -3.00875 -1.2705 0
M  V30 6794 H 633.965 -3.58125 0.783723 0
M  V30 6795 H 633.613 -4.84702 -1.34435 0
M  V30 6796 H 633.313 -5.87547 0.0789958 0
M  V30 6797 H 634.837 -6.04832 -0.837269 0
M  V30 6798 H 636.251 -5.56395 1.38192 0
M  V30 6799 H 634.648 -5.59393 2.17254 0
M  V30 6800 H 635.718 -4.20215 2.41965 0
M  V30 6801 N 637.061 -0.65484 -1.43351 0
M  V30 6802 C 638.301 -0.172514 -2.03671 0
M  V30 6803 C 638.665 1.19154 -1.50553 0
M  V30 6804 O 639.866 1.76737 -2.02528 0
M  V30 6805 C 638.137 -0.183982 -3.56926 0
M  V30 6806 S 639.696 0.230262 -4.38195 0
M  V30 6807 H 636.514 -0.0727503 -0.707268 0
M  V30 6808 H 639.116 -0.863537 -1.75395 0
M  V30 6809 H 637.82 -1.17945 -3.93087 0
M  V30 6810 H 637.351 0.527527 -3.89847 0
M  V30 6811 H 639.366 1.46874 -4.73965 0
M  V30 6812 N 638.539 1.52521 -0.396863 0
M  V30 6813 C 639.95 1.86547 0.0754868 0
M  V30 6814 C 640.301 1.31621 1.45501 0
M  V30 6815 O 639.426 0.650563 2.0639 0
M  V30 6816 C 640.021 3.38495 0.143754 0
M  V30 6817 C 638.58 3.72205 0.560413 0
M  V30 6818 C 637.727 2.75954 -0.272856 0
M  V30 6819 H 640.678 1.46323 -0.614434 0
M  V30 6820 H 640.699 3.68153 0.961425 0
M  V30 6821 H 640.211 3.78442 -0.860415 0
M  V30 6822 H 638.312 3.3783 1.57167 0
M  V30 6823 H 638.425 4.78074 0.313314 0
M  V30 6824 H 636.789 2.53339 0.263 0
M  V30 6825 H 637.572 3.1874 -1.27515 0
M  V30 6826 N 640.017 0.126909 1.57088 0
M  V30 6827 C 641.265 -0.528123 1.95078 0
M  V30 6828 C 641.586 -1.66708 1.0116 0
M  V30 6829 O 640.856 -1.95777 0.0693527 0
M  V30 6830 H 639.436 -0.198087 0.720257 0
M  V30 6831 H 642.098 0.197703 1.93895 0
M  V30 6832 H 641.194 -0.917507 2.98309 0
M  V30 6833 N 641.495 -1.56914 -0.146875 0
M  V30 6834 C 642.445 -1.94693 -1.18653 0
M  V30 6835 C 643.429 -0.81821 -1.38543 0
M  V30 6836 O 644.621 -1.08167 -1.40103 0
M  V30 6837 C 641.75 -2.33117 -2.52014 0
M  V30 6838 C 640.836 -3.5256 -2.35717 0
M  V30 6839 N 641.227 -4.69091 -1.89175 0
M  V30 6840 C 639.525 -3.57647 -2.66467 0
M  V30 6841 C 640.226 -5.51187 -1.85924 0
M  V30 6842 N 639.202 -4.92899 -2.29242 0
M  V30 6843 H 643.004 -2.82264 -0.81879 0
M  V30 6844 H 640.518 -1.58474 -0.354929 0
M  V30 6845 H 642.515 -2.58387 -3.27172 0
M  V30 6846 H 641.175 -1.46898 -2.89571 0
M  V30 6847 H 642.186 -4.92844 -1.59139 0
M  V30 6848 H 638.863 -2.81967 -3.07898 0
M  V30 6849 H 640.253 -6.54613 -1.51431 0
M  V30 6850 N 642.974 0.416227 -1.52004 0
M  V30 6851 C 644.22 1.16555 -1.6596 0
M  V30 6852 C 644.553 1.90347 -0.384906 0
M  V30 6853 O 643.828 1.84474 0.616405 0
M  V30 6854 C 644.111 2.1657 -2.87696 0
M  V30 6855 C 643.964 1.46722 -4.25197 0
M  V30 6856 C 645.283 3.17321 -3.04951 0
M  V30 6857 H 642.402 0.422369 -0.603965 0
M  V30 6858 H 645.044 0.452141 -1.84542 0
M  V30 6859 H 643.194 2.77411 -2.71985 0
M  V30 6860 H 644.866 0.89056 -4.52622 0
M  V30 6861 H 643.109 0.769263 -4.26925 0
M  V30 6862 H 643.78 2.19665 -5.0641 0
M  V30 6863 H 646.256 2.66552 -3.19514 0
M  V30 6864 H 645.132 3.84573 -3.91656 0
M  V30 6865 H 645.393 3.84643 -2.17951 0
M  V30 6866 N 644.452 1.42507 0.673017 0
M  V30 6867 C 645.7 1.42789 1.43023 0
M  V30 6868 C 646.021 0.0459738 1.94946 0
M  V30 6869 O 645.291 -0.915765 1.73178 0
M  V30 6870 H 643.871 0.525657 0.530748 0
M  V30 6871 H 646.533 1.77944 0.795113 0
M  V30 6872 H 645.629 2.12872 2.28237 0
M  V30 6873 N 645.93 -0.909495 1.28709 0
M  V30 6874 C 646.86 -2.0291 1.15542 0
M  V30 6875 C 647.841 -1.7002 0.0521017 0
M  V30 6876 O 649.026 -1.92835 0.229849 0
M  V30 6877 C 646.156 -3.37458 0.820935 0
M  V30 6878 C 645.11 -3.84524 1.87949 0
M  V30 6879 C 644.436 -5.16086 1.39854 0
M  V30 6880 C 645.736 -4.05918 3.28676 0
M  V30 6881 H 647.43 -2.14183 2.09203 0
M  V30 6882 H 644.976 -1.02913 1.00722 0
M  V30 6883 H 646.929 -4.1528 0.715571 0
M  V30 6884 H 645.653 -3.26249 -0.151374 0
M  V30 6885 H 644.312 -3.08911 1.97408 0
M  V30 6886 H 643.96 -5.01284 0.41518 0
M  V30 6887 H 643.66 -5.48547 2.1064 0
M  V30 6888 H 645.184 -5.96459 1.30649 0
M  V30 6889 H 646.598 -4.74252 3.22115 0
M  V30 6890 H 644.995 -4.49717 3.97334 0
M  V30 6891 H 646.065 -3.10583 3.72379 0
M  V30 6892 N 647.408 -1.11026 -1.11852 0
M  V30 6893 C 648.648 -0.866348 -1.85132 0
M  V30 6894 C 649.012 0.597236 -1.82475 0
M  V30 6895 O 650.213 0.957744 -2.51159 0
M  V30 6896 C 648.484 -1.40721 -3.28531 0
M  V30 6897 S 650.043 -1.29964 -4.19112 0
M  V30 6898 H 646.861 -0.312899 -0.638447 0
M  V30 6899 H 649.463 -1.41691 -1.34699 0
M  V30 6900 H 648.167 -2.46631 -3.28027 0
M  V30 6901 H 647.698 -0.85349 -3.8403 0
M  V30 6902 H 649.713 -0.261333 -4.95511 0
M  V30 6903 N 648.886 1.2938 -0.899927 0
M  V30 6904 C 650.163 1.9046 -0.445443 0
M  V30 6905 C 650.543 1.81683 1.07492 0
M  V30 6906 O 649.891 1.24371 1.91688 0
M  V30 6907 C 650.101 3.35529 -0.960279 0
M  V30 6908 C 651.449 4.12556 -1.00412 0
M  V30 6909 O 652.473 3.44434 -0.907965 0
M  V30 6910 O 651.332 5.34294 -1.14857 0
M  V30 6911 H 648.426 0.815253 -0.138893 0
M  V30 6912 H 650.972 1.37844 -0.989808 0
M  V30 6913 H 649.744 3.36074 -2.00425 0
M  V30 6914 H 649.367 3.95624 -0.395939 0
M  V30 6915 N 650.364 0.662433 1.43002 0
M  V30 6916 C 651.327 -0.0142016 2.29196 0
M  V30 6917 C 652.327 -0.741394 1.42688 0
M  V30 6918 O 653.517 -0.581257 1.64216 0
M  V30 6919 C 650.649 -1.03084 3.24941 0
M  V30 6920 H 651.842 0.7443 2.90517 0
M  V30 6921 H 649.395 0.424133 1.50435 0
M  V30 6922 H 650.13 -1.81826 2.68533 0
M  V30 6923 H 649.915 -0.512946 3.8873 0
M  V30 6924 H 651.405 -1.50308 3.89612 0
M  V30 6925 N 651.842 -1.52309 0.404946 0
M  V30 6926 C 652.775 -2.23369 -0.467087 0
M  V30 6927 C 653.753 -1.24034 -1.0514 0
M  V30 6928 O 654.937 -1.53071 -1.10006 0
M  V30 6929 C 652.064 -2.95906 -1.64795 0
M  V30 6930 C 651.11 -4.09637 -1.18743 0
M  V30 6931 S 651.943 -5.35273 -0.156022 0
M  V30 6932 C 653.099 -6.11337 -1.34231 0
M  V30 6933 H 653.332 -2.96987 0.136294 0
M  V30 6934 H 650.865 -1.53236 0.189219 0
M  V30 6935 H 652.823 -3.38304 -2.3251 0
M  V30 6936 H 651.484 -2.21937 -2.22267 0
M  V30 6937 H 650.677 -4.59549 -2.06955 0
M  V30 6938 H 650.279 -3.69333 -0.588981 0
M  V30 6939 H 652.571 -6.38458 -2.26665 0
M  V30 6940 H 653.514 -7.02563 -0.883804 0
M  V30 6941 H 653.922 -5.42338 -1.56621 0
M  V30 6942 N 653.32 -0.135238 -1.57019 0
M  V30 6943 C 654.267 0.808908 -2.1616 0
M  V30 6944 C 655.237 1.25234 -1.09113 0
M  V30 6945 O 656.422 1.32697 -1.37099 0
M  V30 6946 C 653.562 2.04729 -2.77813 0
M  V30 6947 C 652.675 1.65074 -3.99218 0
M  V30 6948 C 651.81 2.84002 -4.48906 0
M  V30 6949 C 650.849 2.40663 -5.62803 0
M  V30 6950 N 649.986 3.5256 -6.07162 0
M  V30 6951 H 654.826 0.297751 -2.96509 0
M  V30 6952 H 652.363 0.135264 -1.46477 0
M  V30 6953 H 654.321 2.7731 -3.11697 0
M  V30 6954 H 652.951 2.53275 -2.00128 0
M  V30 6955 H 652.003 0.823029 -3.7139 0
M  V30 6956 H 653.315 1.29236 -4.81767 0
M  V30 6957 H 652.469 3.64788 -4.84783 0
M  V30 6958 H 651.208 3.23076 -3.65339 0
M  V30 6959 H 650.213 1.58314 -5.26514 0
M  V30 6960 H 651.438 2.02687 -6.48147 0
M  V30 6961 H 649.384 3.91278 -5.26534 0
M  V30 6962 H 649.301 3.20699 -6.84608 0
M  V30 6963 H 650.569 4.33738 -6.47682 0
M  V30 6964 N 654.798 1.5699 0.138552 0
M  V30 6965 C 656.209 1.73171 0.697754 0
M  V30 6966 C 656.56 0.750952 1.8126 0
M  V30 6967 O 655.685 -0.080549 2.1625 0
M  V30 6968 C 656.28 3.13996 1.27248 0
M  V30 6969 C 654.839 3.3175 1.77816 0
M  V30 6970 C 653.986 2.69084 0.669991 0
M  V30 6971 H 656.937 1.5846 -0.0871979 0
M  V30 6972 H 656.958 3.14463 2.14227 0
M  V30 6973 H 656.47 3.85354 0.460855 0
M  V30 6974 H 654.571 2.65403 2.61519 0
M  V30 6975 H 654.684 4.39768 1.90107 0
M  V30 6976 H 653.048 2.29782 1.09874 0
M  V30 6977 H 653.831 3.43053 -0.130329 0
M  V30 6978 N 656.276 -0.40816 1.52223 0
M  V30 6979 C 657.525 -1.15212 1.65557 0
M  V30 6980 C 657.838 -1.9163 0.392096 0
M  V30 6981 O 659.044 -2.68458 0.405256 0
M  V30 6982 C 657.5 -2.09691 2.92502 0
M  V30 6983 C 657.108 -1.38785 4.25961 0
M  V30 6984 C 658.852 -2.8434 3.152 0
M  V30 6985 C 656.759 -2.31919 5.44029 0
M  V30 6986 H 655.689 -0.433776 0.616729 0
M  V30 6987 H 658.34 -0.4165 1.78711 0
M  V30 6988 H 656.722 -2.8681 2.7305 0
M  V30 6989 H 657.896 -0.670248 4.55899 0
M  V30 6990 H 656.211 -0.761741 4.09373 0
M  V30 6991 H 658.808 -3.54166 4.00587 0
M  V30 6992 H 659.151 -3.47344 2.29473 0
M  V30 6993 H 659.684 -2.14321 3.35129 0
M  V30 6994 H 656.423 -1.7356 6.32105 0
M  V30 6995 H 655.943 -3.0165 5.18428 0
M  V30 6996 H 657.622 -2.92424 5.77146 0
M  V30 6997 N 657.755 -1.42862 -0.66545 0
M  V30 6998 C 659.032 -1.3431 -1.42197 0
M  V30 6999 C 659.412 0.0150265 -2.11095 0
M  V30 7000 O 658.76 1.03101 -2.03918 0
M  V30 7001 C 658.97 -2.51783 -2.41674 0
M  V30 7002 C 660.318 -2.94321 -3.0604 0
M  V30 7003 O 661.342 -2.51741 -2.52001 0
M  V30 7004 O 660.201 -3.68047 -4.03985 0
M  V30 7005 H 657.295 -0.530159 -0.634713 0
M  V30 7006 H 659.841 -1.54888 -0.693386 0
M  V30 7007 H 658.613 -3.42282 -1.89627 0
M  V30 7008 H 658.236 -2.33241 -3.22001 0
M  V30 7009 N 659.233 0.902656 -1.29189 0
M  V30 7010 C 660.481 1.6496 -1.16758 0
M  V30 7011 C 660.802 1.92952 0.28188 0
M  V30 7012 O 660.072 1.55351 1.19344 0
M  V30 7013 H 658.652 0.611447 -0.429118 0
M  V30 7014 H 661.314 1.0825 -1.62074 0
M  V30 7015 H 660.41 2.60728 -1.71544 0
M  V30 7016 N 660.711 1.11618 1.11262 0
M  V30 7017 C 661.936 0.889013 1.8738 0
M  V30 7018 C 662.361 -0.555884 1.79698 0
M  V30 7019 O 661.719 -1.39272 1.16073 0
M  V30 7020 C 661.767 1.35759 3.34069 0
M  V30 7021 O 660.871 0.530499 4.08974 0
M  V30 7022 H 660.212 0.320082 0.581759 0
M  V30 7023 H 662.742 1.48611 1.40627 0
M  V30 7024 H 662.752 1.35291 3.84916 0
M  V30 7025 H 661.427 2.40973 3.38976 0
M  V30 7026 H 660.004 0.601439 3.68018 0
M  V30 7027 N 662.189 -1.289 0.906776 0
M  V30 7028 C 663.136 -2.2751 0.388313 0
M  V30 7029 C 664.106 -1.57301 -0.533439 0
M  V30 7030 O 665.291 -1.85243 -0.457148 0
M  V30 7031 C 662.431 -3.43091 -0.37181 0
M  V30 7032 C 661.544 -4.28066 0.581647 0
M  V30 7033 C 660.679 -5.30837 -0.19623 0
M  V30 7034 C 659.718 -6.07472 0.751294 0
M  V30 7035 N 658.855 -7.021 0.00737727 0
M  V30 7036 H 663.695 -2.71237 1.23428 0
M  V30 7037 H 661.232 -1.33397 0.619962 0
M  V30 7038 H 663.19 -4.08888 -0.828641 0
M  V30 7039 H 661.82 -3.00374 -1.18218 0
M  V30 7040 H 660.872 -3.62378 1.157 0
M  V30 7041 H 662.184 -4.81382 1.30665 0
M  V30 7042 H 661.338 -6.02485 -0.71394 0
M  V30 7043 H 660.077 -4.78272 -0.954324 0
M  V30 7044 H 659.082 -5.34682 1.28044 0
M  V30 7045 H 660.307 -6.62126 1.50883 0
M  V30 7046 H 658.253 -6.51894 -0.732854 0
M  V30 7047 H 658.17 -7.53004 0.672334 0
M  V30 7048 H 659.438 -7.77956 -0.490365 0
M  V30 7049 N 663.667 -0.670007 -1.42649 0
M  V30 7050 C 664.597 -0.00258501 -2.335 0
M  V30 7051 C 665.578 0.794364 -1.50412 0
M  V30 7052 O 666.763 0.75248 -1.79029 0
M  V30 7053 C 663.893 0.952748 -3.33976 0
M  V30 7054 C 662.847 0.264733 -4.2718 0
M  V30 7055 C 662.173 1.33267 -5.17826 0
M  V30 7056 C 663.473 -0.853289 -5.15283 0
M  V30 7057 H 665.167 -0.761326 -2.89559 0
M  V30 7058 H 662.713 -0.367561 -1.3923 0
M  V30 7059 H 664.666 1.4287 -3.96442 0
M  V30 7060 H 663.39 1.74285 -2.7621 0
M  V30 7061 H 662.049 -0.190938 -3.66102 0
M  V30 7062 H 661.697 2.11464 -4.5639 0
M  V30 7063 H 661.397 0.877476 -5.81011 0
M  V30 7064 H 662.921 1.80965 -5.83167 0
M  V30 7065 H 664.335 -0.458763 -5.71462 0
M  V30 7066 H 662.732 -1.23398 -5.87276 0
M  V30 7067 H 663.802 -1.70412 -4.53969 0
M  V30 7068 N 665.145 1.52092 -0.413018 0
M  V30 7069 C 666.075 2.30021 0.401567 0
M  V30 7070 C 667.056 1.34395 1.04269 0
M  V30 7071 O 668.241 1.63304 1.05097 0
M  V30 7072 C 665.371 3.12447 1.51638 0
M  V30 7073 C 664.325 4.16153 1.00005 0
M  V30 7074 C 663.651 4.86948 2.20875 0
M  V30 7075 C 664.951 5.22275 0.0513757 0
M  V30 7076 H 666.645 2.98365 -0.248704 0
M  V30 7077 H 664.191 1.4349 -0.121052 0
M  V30 7078 H 666.144 3.65733 2.09326 0
M  V30 7079 H 664.868 2.41879 2.19458 0
M  V30 7080 H 663.527 3.63882 0.445549 0
M  V30 7081 H 663.175 4.12905 2.8726 0
M  V30 7082 H 662.875 5.57057 1.86978 0
M  V30 7083 H 664.399 5.43048 2.79162 0
M  V30 7084 H 665.813 5.70778 0.537176 0
M  V30 7085 H 664.21 5.9977 -0.198977 0
M  V30 7086 H 665.28 4.76611 -0.892736 0
M  V30 7087 N 666.623 0.143563 1.56945 0
M  V30 7088 C 667.9 -0.553285 1.87612 0
M  V30 7089 C 668.28 -1.83195 1.04894 0
M  V30 7090 O 667.628 -2.28102 0.134773 0
M  V30 7091 C 667.838 -0.822055 3.3918 0
M  V30 7092 C 669.186 -1.16435 4.08324 0
M  V30 7093 O 670.21 -0.911522 3.4434 0
M  V30 7094 O 669.069 -1.63996 5.21313 0
M  V30 7095 H 666.163 -0.281851 0.777489 0
M  V30 7096 H 668.709 0.179916 1.68744 0
M  V30 7097 H 667.481 0.0830265 3.91212 0
M  V30 7098 H 667.104 -1.60956 3.63564 0
M  V30 7099 N 668.101 -1.57061 -0.130224 0
M  V30 7100 C 669.348 -1.84257 -0.839972 0
M  V30 7101 C 669.676 -0.726986 -1.80403 0
M  V30 7102 O 668.931 0.282632 -1.93648 0
M  V30 7103 C 669.23 -3.17878 -1.63365 0
M  V30 7104 C 668.896 -4.43475 -0.814891 0
M  V30 7105 C 667.558 -4.77581 -0.589066 0
M  V30 7106 C 669.91 -5.20631 -0.243437 0
M  V30 7107 C 667.238 -5.86292 0.218648 0
M  V30 7108 C 669.59 -6.30192 0.551408 0
M  V30 7109 C 668.254 -6.62837 0.787653 0
M  V30 7110 H 667.524 -0.674245 -0.307367 0
M  V30 7111 H 670.171 -1.91224 -0.102832 0
M  V30 7112 H 668.476 -3.06437 -2.44138 0
M  V30 7113 H 670.173 -3.3614 -2.18658 0
M  V30 7114 H 666.763 -4.16747 -1.00098 0
M  V30 7115 H 670.947 -4.94644 -0.405145 0
M  V30 7116 H 666.203 -6.10017 0.411016 0
M  V30 7117 H 670.377 -6.89165 1.00126 0
M  V30 7118 H 668.004 -7.46908 1.41537 0
M  V30 7119 N 669.579 0.400081 -1.52437 0
M  V30 7120 C 670.509 1.4947 -1.7939 0
M  V30 7121 C 671.49 1.57383 -0.645329 0
M  V30 7122 O 672.675 1.72511 -0.891826 0
M  V30 7123 C 669.805 2.87201 -1.95276 0
M  V30 7124 C 668.759 2.94134 -3.10917 0
M  V30 7125 C 668.085 4.34207 -3.1204 0
M  V30 7126 C 669.385 2.64791 -4.50203 0
M  V30 7127 H 671.079 1.27165 -2.71052 0
M  V30 7128 H 668.625 0.610312 -1.30427 0
M  V30 7129 H 670.578 3.63772 -2.12715 0
M  V30 7130 H 669.302 3.10819 -1.00294 0
M  V30 7131 H 667.961 2.20009 -2.93243 0
M  V30 7132 H 667.609 4.54848 -2.14761 0
M  V30 7133 H 667.309 4.39768 -3.89715 0
M  V30 7134 H 668.833 5.127 -3.31619 0
M  V30 7135 H 670.247 3.31083 -4.68035 0
M  V30 7136 H 668.644 2.81717 -5.29864 0
M  V30 7137 H 669.714 1.60184 -4.57678 0
M  V30 7138 N 671.057 1.43213 0.657864 0
M  V30 7139 C 672.306 1.43871 1.41365 0
M  V30 7140 C 672.619 0.064898 1.95492 0
M  V30 7141 O 673.825 -0.0510796 2.71452 0
M  V30 7142 C 672.281 2.53158 2.55811 0
M  V30 7143 C 671.889 3.96624 2.08311 0
M  V30 7144 C 673.633 2.63004 3.3321 0
M  V30 7145 C 671.54 4.97385 3.1994 0
M  V30 7146 H 670.47 0.535174 0.531136 0
M  V30 7147 H 673.121 1.69185 0.710543 0
M  V30 7148 H 671.503 2.21037 3.2857 0
M  V30 7149 H 672.677 4.38182 1.42593 0
M  V30 7150 H 670.992 3.90781 1.43804 0
M  V30 7151 H 673.589 3.3546 4.16378 0
M  V30 7152 H 673.932 1.67918 3.80932 0
M  V30 7153 H 674.465 2.94403 2.67529 0
M  V30 7154 H 671.204 5.94007 2.77192 0
M  V30 7155 H 670.724 4.60444 3.84385 0
M  V30 7156 H 672.403 5.19877 3.85145 0
M  V30 7157 N 672.536 -0.895792 1.29666 0
M  V30 7158 C 673.483 -2.00035 1.15129 0
M  V30 7159 C 674.453 -1.66043 0.0435819 0
M  V30 7160 O 675.638 -1.89621 0.211811 0
M  V30 7161 C 672.778 -3.34774 0.83787 0
M  V30 7162 C 671.891 -3.81525 2.0264 0
M  V30 7163 C 671.026 -5.04858 1.65201 0
M  V30 7164 C 670.065 -5.43988 2.80612 0
M  V30 7165 N 669.202 -6.58507 2.43544 0
M  V30 7166 H 674.042 -2.11802 2.09628 0
M  V30 7167 H 671.579 -1.03719 1.04311 0
M  V30 7168 H 673.537 -4.12311 0.636824 0
M  V30 7169 H 672.167 -3.22724 -0.0702314 0
M  V30 7170 H 671.219 -2.9999 2.33903 0
M  V30 7171 H 672.531 -4.06472 2.89106 0
M  V30 7172 H 671.685 -5.8999 1.41408 0
M  V30 7173 H 670.424 -4.81759 0.758893 0
M  V30 7174 H 669.429 -4.57388 3.05083 0
M  V30 7175 H 670.654 -5.69066 3.70595 0
M  V30 7176 H 668.6 -6.37004 1.56724 0
M  V30 7177 H 668.517 -6.83269 3.23542 0
M  V30 7178 H 669.785 -7.46897 2.2308 0
M  V30 7179 N 674.014 -1.12206 -1.10668 0
M  V30 7180 C 675.239 -0.898938 -1.86906 0
M  V30 7181 C 675.664 0.546346 -1.79991 0
M  V30 7182 O 675.022 1.38655 -1.1681 0
M  V30 7183 C 675.07 -1.37529 -3.33344 0
M  V30 7184 O 674.174 -0.55218 -4.08687 0
M  V30 7185 H 673.515 -0.323163 -0.580053 0
M  V30 7186 H 676.045 -1.49355 -1.39837 0
M  V30 7187 H 676.055 -1.3733 -3.84193 0
M  V30 7188 H 674.73 -2.42767 -3.37693 0
M  V30 7189 H 673.307 -0.620947 -3.67694 0
M  V30 7190 N 675.492 1.28418 -0.913599 0
M  V30 7191 C 676.717 1.99643 -0.561899 0
M  V30 7192 C 677.142 1.67819 0.849608 0
M  V30 7193 O 676.5 0.910503 1.56779 0
M  V30 7194 C 676.548 3.52116 -0.777622 0
M  V30 7195 O 675.652 4.12076 0.163457 0
M  V30 7196 H 674.993 0.627229 -0.217898 0
M  V30 7197 H 677.523 1.63575 -1.229 0
M  V30 7198 H 677.533 4.02163 -0.687666 0
M  V30 7199 H 676.208 3.74613 -1.8066 0
M  V30 7200 H 674.785 3.72892 0.0247827 0
M  V30 7201 N 676.97 0.677563 1.42291 0
M  V30 7202 C 678.217 0.200975 2.015 0
M  V30 7203 C 678.545 -1.19342 1.53583 0
M  V30 7204 O 677.8 -1.81579 0.7299 0
M  V30 7205 C 678.099 0.187229 3.56909 0
M  V30 7206 C 677.765 1.52667 4.24268 0
M  V30 7207 C 676.427 1.89341 4.42384 0
M  V30 7208 C 678.779 2.40869 4.62203 0
M  V30 7209 C 676.107 3.13836 4.95705 0
M  V30 7210 C 678.459 3.64679 5.16906 0
M  V30 7211 C 677.123 4.01519 5.33234 0
M  V30 7212 H 676.393 0.0735418 0.737342 0
M  V30 7213 H 679.04 0.873095 1.70439 0
M  V30 7214 H 677.345 -0.568407 3.87655 0
M  V30 7215 H 679.042 -0.198773 4.00507 0
M  V30 7216 H 675.632 1.23138 4.1053 0
M  V30 7217 H 679.816 2.1382 4.47878 0
M  V30 7218 H 675.072 3.42396 5.06532 0
M  V30 7219 H 679.246 4.33224 5.45243 0
M  V30 7220 H 676.873 4.98062 5.74316 0
M  V30 7221 N 678.448 -1.51871 0.421078 0
M  V30 7222 C 679.697 -2.01125 -0.152206 0
M  V30 7223 C 680.01 -1.3106 -1.45199 0
M  V30 7224 O 681.216 -1.71195 -2.10724 0
M  V30 7225 C 679.672 -3.58458 -0.3218 0
M  V30 7226 C 679.28 -4.37448 0.96659 0
M  V30 7227 C 681.024 -4.15908 -0.84973 0
M  V30 7228 C 678.931 -5.86451 0.763529 0
M  V30 7229 H 677.861 -0.751556 -0.0606565 0
M  V30 7230 H 680.512 -1.75115 0.548354 0
M  V30 7231 H 678.894 -3.80847 -1.08498 0
M  V30 7232 H 680.068 -4.26814 1.73684 0
M  V30 7233 H 678.383 -3.91373 1.42183 0
M  V30 7234 H 680.98 -5.24922 -1.01788 0
M  V30 7235 H 681.323 -3.74031 -1.82774 0
M  V30 7236 H 681.856 -3.97535 -0.145297 0
M  V30 7237 H 678.595 -6.3271 1.71344 0
M  V30 7238 H 678.115 -5.99791 0.0327889 0
M  V30 7239 H 679.794 -6.45697 0.410354 0
M  V30 7240 N 679.926 -0.151884 -1.56866 0
M  V30 7241 C 681.174 0.497021 -1.95893 0
M  V30 7242 C 681.495 1.65078 -1.03799 0
M  V30 7243 O 680.765 1.95642 -0.10049 0
M  V30 7244 H 679.345 0.186603 -0.723318 0
M  V30 7245 H 682.007 -0.228525 -1.93556 0
M  V30 7246 H 681.103 0.869933 -2.99731 0
M  V30 7247 N 681.404 1.57128 0.121893 0
M  V30 7248 C 682.65 1.84974 0.831418 0
M  V30 7249 C 682.983 0.737204 1.79663 0
M  V30 7250 O 682.258 -0.257199 1.92792 0
M  V30 7251 C 682.541 3.23397 1.58386 0
M  V30 7252 C 682.394 4.45246 0.638445 0
M  V30 7253 C 683.713 3.59355 2.54071 0
M  V30 7254 H 680.832 0.67282 0.300803 0
M  V30 7255 H 683.474 1.89759 0.0957587 0
M  V30 7256 H 681.624 3.19449 2.21098 0
M  V30 7257 H 683.296 4.61295 0.0203925 0
M  V30 7258 H 681.539 4.33771 -0.05023 0
M  V30 7259 H 682.21 5.38765 1.20151 0
M  V30 7260 H 684.686 3.64075 2.01465 0
M  V30 7261 H 683.562 4.57193 3.03752 0
M  V30 7262 H 683.823 2.86622 3.36601 0
M  V30 7263 N 682.882 -0.391992 1.52647 0
M  V30 7264 C 684.107 -1.16312 1.71716 0
M  V30 7265 C 684.532 -1.83042 0.433279 0
M  V30 7266 O 683.89 -1.70705 -0.610707 0
M  V30 7267 C 683.938 -2.18908 2.86551 0
M  V30 7268 O 683.042 -3.2543 2.53316 0
M  V30 7269 H 682.383 -0.338743 0.571095 0
M  V30 7270 H 684.913 -0.457202 1.99426 0
M  V30 7271 H 684.923 -2.62954 3.1196 0
M  V30 7272 H 683.598 -1.69726 3.79692 0
M  V30 7273 H 682.175 -2.86543 2.38637 0
M  V30 7274 N 684.36 -1.4356 -0.65026 0
M  V30 7275 C 685.608 -1.45046 -1.40734 0
M  V30 7276 C 685.929 -0.0769822 -1.94848 0
M  V30 7277 O 685.199 0.888098 -1.74613 0
M  V30 7278 H 683.779 -0.534034 -0.522318 0
M  V30 7279 H 686.441 -1.79186 -0.766703 0
M  V30 7280 H 685.537 -2.16476 -2.24822 0
M  V30 7281 N 685.838 0.888903 -1.30139 0
M  V30 7282 C 686.748 2.02705 -1.18101 0
M  V30 7283 C 687.764 1.73702 -0.101809 0
M  V30 7284 O 688.94 1.98906 -0.315984 0
M  V30 7285 C 686.005 3.35616 -0.869651 0
M  V30 7286 C 685.066 3.78067 -2.03381 0
M  V30 7287 C 684.299 5.04635 -1.73721 0
M  V30 7288 O 684.522 5.66531 -0.663267 0
M  V30 7289 O 683.456 5.43399 -2.58845 0
M  V30 7290 H 687.282 2.15788 -2.13704 0
M  V30 7291 H 684.867 1.01426 -1.09695 0
M  V30 7292 H 686.749 4.15358 -0.711043 0
M  V30 7293 H 685.424 3.23651 0.0565002 0
M  V30 7294 H 684.331 2.99046 -2.24772 0
M  V30 7295 H 685.664 3.94631 -2.94155 0
M  V30 7296 N 687.317 1.12792 1.10072 0
M  V30 7297 C 688.227 0.812369 2.20086 0
M  V30 7298 C 689.243 -0.200349 1.72843 0
M  V30 7299 O 690.419 -0.0330262 2.01373 0
M  V30 7300 C 687.484 0.275685 3.45602 0
M  V30 7301 C 686.545 1.34881 4.07561 0
M  V30 7302 C 685.778 0.837639 5.27086 0
M  V30 7303 O 686.001 -0.327224 5.69461 0
M  V30 7304 O 684.935 1.60894 5.79997 0
M  V30 7305 H 688.761 1.73133 2.49517 0
M  V30 7306 H 686.346 0.904863 1.18881 0
M  V30 7307 H 688.228 -0.0185375 4.21396 0
M  V30 7308 H 686.903 -0.615783 3.17789 0
M  V30 7309 H 685.81 1.69625 3.33434 0
M  V30 7310 H 687.143 2.21418 4.39585 0
M  V30 7311 N 688.795 -1.27931 0.920396 0
M  V30 7312 C 690.041 -1.94977 0.557832 0
M  V30 7313 C 690.374 -1.72224 -0.897365 0
M  V30 7314 O 689.649 -1.04705 -1.63912 0
M  V30 7315 C 689.932 -3.49289 0.875741 0
M  V30 7316 C 689.785 -3.81416 2.38416 0
M  V30 7317 C 691.104 -4.38486 0.376517 0
M  V30 7318 H 688.223 -0.708164 0.20414 0
M  V30 7319 H 690.865 -1.5118 1.15085 0
M  V30 7320 H 689.015 -3.86724 0.371062 0
M  V30 7321 H 690.687 -3.53813 2.95997 0
M  V30 7322 H 688.93 -3.28225 2.83639 0
M  V30 7323 H 689.601 -4.89198 2.55713 0
M  V30 7324 H 692.077 -4.08161 0.808945 0
M  V30 7325 H 690.953 -5.45296 0.627976 0
M  V30 7326 H 691.214 -4.36143 -0.723293 0
M  V30 7327 N 690.273 -0.685099 -1.4193 0
M  V30 7328 C 691.519 -0.220688 -2.02199 0
M  V30 7329 C 691.874 1.16329 -1.5325 0
M  V30 7330 O 691.167 1.77175 -0.729345 0
M  V30 7331 C 691.361 -0.206154 -3.56805 0
M  V30 7332 C 691.19 -1.58718 -4.2076 0
M  V30 7333 C 689.96 -2.18747 -4.55497 0
M  V30 7334 C 692.158 -2.53182 -4.47664 0
M  V30 7335 N 690.14 -3.49523 -5.04685 0
M  V30 7336 C 691.511 -3.68625 -4.98514 0
M  V30 7337 C 693.566 -2.51582 -4.29664 0
M  V30 7338 C 692.269 -4.82734 -5.33255 0
M  V30 7339 C 694.295 -3.64795 -4.65487 0
M  V30 7340 C 693.657 -4.78967 -5.16498 0
M  V30 7341 H 689.756 -0.12591 -0.771797 0
M  V30 7342 H 692.34 -0.900316 -1.72634 0
M  V30 7343 H 690.511 0.442923 -3.85866 0
M  V30 7344 H 692.243 0.272103 -4.03784 0
M  V30 7345 H 688.998 -1.71135 -4.41599 0
M  V30 7346 H 689.422 -4.1653 -5.33696 0
M  V30 7347 H 694.064 -1.64535 -3.89472 0
M  V30 7348 H 691.782 -5.7045 -5.72375 0
M  V30 7349 H 695.368 -3.64796 -4.53227 0
M  V30 7350 H 694.248 -5.6512 -5.437 0
M  V30 7351 N 691.751 1.51645 -0.429126 0
M  V30 7352 C 692.998 2.02015 0.140079 0
M  V30 7353 C 693.326 1.31374 1.43427 0
M  V30 7354 O 692.581 0.414779 1.91254 0
M  V30 7355 C 692.88 3.54989 0.414472 0
M  V30 7356 C 692.546 4.43874 -0.792911 0
M  V30 7357 C 691.208 4.67887 -1.12404 0
M  V30 7358 C 693.56 4.96074 -1.59875 0
M  V30 7359 C 690.888 5.41348 -2.26184 0
M  V30 7360 C 693.24 5.70782 -2.72747 0
M  V30 7361 C 691.904 5.93062 -3.06324 0
M  V30 7362 H 691.174 0.739225 0.0512585 0
M  V30 7363 H 693.821 1.82675 -0.574641 0
M  V30 7364 H 692.126 3.72615 1.21099 0
M  V30 7365 H 693.823 3.91489 0.868173 0
M  V30 7366 H 690.413 4.25374 -0.524871 0
M  V30 7367 H 694.597 4.77412 -1.35614 0
M  V30 7368 H 689.853 5.56815 -2.52522 0
M  V30 7369 H 694.027 6.10221 -3.35564 0
M  V30 7370 H 691.654 6.49764 -3.94602 0
M  V30 7371 N 693.229 0.160201 1.56784 0
M  V30 7372 C 694.506 -0.533355 1.88188 0
M  V30 7373 C 694.886 -1.82072 1.06831 0
M  V30 7374 O 694.234 -2.27946 0.158959 0
M  V30 7375 C 694.444 -0.786034 3.40033 0
M  V30 7376 C 695.792 -1.12097 4.09536 0
M  V30 7377 O 696.816 -0.874949 3.45287 0
M  V30 7378 O 695.675 -1.58457 5.23023 0
M  V30 7379 H 692.769 -0.273589 0.780434 0
M  V30 7380 H 695.315 0.197803 1.68543 0
M  V30 7381 H 694.087 0.124515 3.91102 0
M  V30 7382 H 693.71 -1.57091 3.65251 0
M  V30 7383 N 694.707 -1.5719 -0.113559 0
M  V30 7384 C 695.617 -2.04041 -1.15777 0
M  V30 7385 C 696.633 -0.961812 -1.45001 0
M  V30 7386 O 697.809 -1.2737 -1.56009 0
M  V30 7387 C 694.874 -2.43994 -2.46308 0
M  V30 7388 C 693.935 -3.65962 -2.24433 0
M  V30 7389 C 693.168 -4.04 -3.4874 0
M  V30 7390 O 693.391 -3.42321 -4.56259 0
M  V30 7391 O 692.325 -4.97069 -3.3942 0
M  V30 7392 H 696.151 -2.93248 -0.789899 0
M  V30 7393 H 693.736 -1.45828 -0.324748 0
M  V30 7394 H 695.618 -2.70401 -3.23204 0
M  V30 7395 H 694.293 -1.57932 -2.82558 0
M  V30 7396 H 693.2 -3.44697 -1.45377 0
M  V30 7397 H 694.533 -4.52746 -1.93084 0
M  V30 7398 N 696.185 0.383891 -1.52853 0
M  V30 7399 C 697.132 1.46924 -1.77995 0
M  V30 7400 C 698.102 1.53958 -0.623396 0
M  V30 7401 O 699.287 1.70134 -0.863657 0
M  V30 7402 C 696.427 2.84093 -1.95921 0
M  V30 7403 C 695.54 2.86171 -3.23621 0
M  V30 7404 C 694.675 4.14799 -3.31836 0
M  V30 7405 C 693.714 4.10948 -4.53639 0
M  V30 7406 N 692.851 5.31192 -4.59107 0
M  V30 7407 H 697.691 1.24786 -2.70615 0
M  V30 7408 H 695.228 0.605265 -1.34071 0
M  V30 7409 H 697.186 3.63755 -2.04299 0
M  V30 7410 H 695.816 3.04671 -1.06656 0
M  V30 7411 H 694.868 1.9885 -3.24288 0
M  V30 7412 H 696.18 2.79194 -4.13343 0
M  V30 7413 H 695.334 5.02867 -3.39425 0
M  V30 7414 H 694.073 4.24505 -2.40097 0
M  V30 7415 H 693.078 3.21268 -4.46169 0
M  V30 7416 H 694.303 4.0286 -5.467 0
M  V30 7417 H 692.249 5.41518 -3.70262 0
M  V30 7418 H 692.166 5.26311 -5.42708 0
M  V30 7419 H 693.434 6.21143 -4.70958 0
M  V30 7420 N 697.663 1.43903 0.642637 0
M  V30 7421 C 698.911 1.45791 1.39962 0
M  V30 7422 C 699.232 0.0873144 1.94804 0
M  V30 7423 O 698.502 -0.878825 1.75081 0
M  V30 7424 H 697.082 0.536797 0.519479 0
M  V30 7425 H 699.744 1.7959 0.757189 0
M  V30 7426 H 698.84 2.17665 2.2367 0
M  V30 7427 N 699.141 -0.881989 1.30609 0
M  V30 7428 C 700.418 -1.61563 1.10258 0
M  V30 7429 C 700.798 -2.08228 -0.347053 0
M  V30 7430 O 700.146 -1.85151 -1.33908 0
M  V30 7431 C 700.356 -2.78287 2.10612 0
M  V30 7432 C 701.704 -3.48545 2.4249 0
M  V30 7433 O 702.728 -2.88479 2.08945 0
M  V30 7434 O 701.587 -4.56873 2.99883 0
M  V30 7435 H 698.681 -0.710238 0.423663 0
M  V30 7436 H 701.227 -0.928503 1.42045 0
M  V30 7437 H 699.999 -2.41131 3.08174 0
M  V30 7438 H 699.622 -3.54695 1.79659 0
M  V30 7439 N 700.619 -1.13374 -1.09472 0
M  V30 7440 C 701.582 -0.813639 -2.14272 0
M  V30 7441 C 702.582 0.176677 -1.59826 0
M  V30 7442 O 703.772 -0.0503441 -1.74127 0
M  V30 7443 C 700.904 -0.210897 -3.40247 0
M  V30 7444 H 702.097 -1.74229 -2.44099 0
M  V30 7445 H 699.65 -0.938304 -1.25002 0
M  V30 7446 H 700.385 0.726998 -3.16046 0
M  V30 7447 H 700.17 -0.924048 -3.81056 0
M  V30 7448 H 701.66 -0.00377603 -4.176 0
M  V30 7449 N 702.098 1.27442 -0.927168 0
M  V30 7450 C 703.509 1.76385 -0.611979 0
M  V30 7451 C 703.86 1.75715 0.872853 0
M  V30 7452 O 702.985 1.3603 1.683 0
M  V30 7453 C 703.58 3.20303 -1.10414 0
M  V30 7454 C 702.139 3.66916 -0.839628 0
M  V30 7455 C 701.286 2.46859 -1.26317 0
M  V30 7456 H 704.237 1.13716 -1.107 0
M  V30 7457 H 704.258 3.77811 -0.451578 0
M  V30 7458 H 703.77 3.20759 -2.18484 0
M  V30 7459 H 701.871 3.71906 0.227292 0
M  V30 7460 H 701.984 4.56415 -1.45679 0
M  V30 7461 H 700.348 2.45407 -0.681723 0
M  V30 7462 H 701.131 2.50025 -2.3525 0
M  V30 7463 N 703.576 0.692616 1.41565 0
M  V30 7464 C 704.824 0.221896 2.00878 0
M  V30 7465 C 705.145 -1.18164 1.5512 0
M  V30 7466 O 704.415 -1.79679 0.78054 0
M  V30 7467 H 702.995 0.0790463 0.742806 0
M  V30 7468 H 705.657 0.893115 1.73232 0
M  V30 7469 H 704.753 0.23702 3.11199 0
M  V30 7470 N 705.054 -1.51416 0.437162 0
M  V30 7471 C 706.47 -1.59349 0.0894459 0
M  V30 7472 C 706.67 -1.44809 -1.40116 0
M  V30 7473 O 705.726 -1.28924 -2.17106 0
M  V30 7474 C 707.039 -2.9446 0.609398 0
M  V30 7475 C 708.587 -3.07769 0.569824 0
M  V30 7476 C 709.062 -4.45404 1.06675 0
M  V30 7477 N 710.553 -4.51723 1.02473 0
M  V30 7478 C 711.288 -5.56544 1.3801 0
M  V30 7479 N 710.784 -6.68784 1.80831 0
M  V30 7480 N 712.577 -5.46901 1.29828 0
M  V30 7481 H 704.728 -1.59112 1.40703 0
M  V30 7482 H 706.991 -0.750031 0.579791 0
M  V30 7483 H 706.697 -3.1047 1.65231 0
M  V30 7484 H 706.571 -3.77184 0.0342236 0
M  V30 7485 H 708.958 -2.91428 -0.464107 0
M  V30 7486 H 709.039 -2.26885 1.1814 0
M  V30 7487 H 708.683 -4.62492 2.09914 0
M  V30 7488 H 708.613 -5.24827 0.431712 0
M  V30 7489 H 711.104 -3.71165 0.710258 0
M  V30 7490 H 711.417 -7.44787 2.06185 0
M  V30 7491 H 709.762 -6.69992 1.84757 0
M  V30 7492 H 712.953 -4.581 0.962397 0
M  V30 7493 H 713.126 -6.2848 1.57851 0
M  V30 7494 N 706.532 -0.168513 -1.56696 0
M  V30 7495 C 707.762 0.482802 -2.0088 0
M  V30 7496 C 708.17 1.57537 -1.0478 0
M  V30 7497 O 707.513 1.83656 -0.0402746 0
M  V30 7498 C 707.575 1.1236 -3.4149 0
M  V30 7499 C 707.239 0.173027 -4.56672 0
M  V30 7500 C 708.236 -0.607565 -5.16338 0
M  V30 7501 C 705.921 0.0696691 -5.02252 0
M  V30 7502 C 707.915 -1.47874 -6.2001 0
M  V30 7503 C 705.602 -0.805096 -6.05773 0
M  V30 7504 C 706.6 -1.57789 -6.64524 0
M  V30 7505 O 706.288 -2.43804 -7.66038 0
M  V30 7506 H 706.02 0.128246 -0.663723 0
M  V30 7507 H 708.574 -0.266532 -2.03663 0
M  V30 7508 H 706.804 1.921 -3.35611 0
M  V30 7509 H 708.493 1.67683 -3.69645 0
M  V30 7510 H 709.259 -0.53787 -4.82008 0
M  V30 7511 H 705.138 0.660957 -4.56237 0
M  V30 7512 H 708.682 -2.0824 -6.65794 0
M  V30 7513 H 704.579 -0.876005 -6.39528 0
M  V30 7514 H 705.347 -2.37289 -7.83349 0
M  V30 7515 N 708.01 1.57248 0.105221 0
M  V30 7516 C 709.287 1.76566 0.841647 0
M  V30 7517 C 709.667 0.747566 1.9742 0
M  V30 7518 O 709.015 -0.225886 2.27381 0
M  V30 7519 C 709.225 3.22016 1.3456 0
M  V30 7520 C 710.573 3.84911 1.79244 0
M  V30 7521 O 711.597 3.25703 1.44207 0
M  V30 7522 O 710.456 4.89008 2.43995 0
M  V30 7523 H 707.55 0.723443 0.400698 0
M  V30 7524 H 710.096 1.69472 0.0878893 0
M  V30 7525 H 708.868 3.87644 0.533685 0
M  V30 7526 H 708.491 3.33703 2.16167 0
M  V30 7527 N 709.488 -0.375779 1.53054 0
M  V30 7528 C 710.737 -1.11674 1.67964 0
M  V30 7529 C 711.05 -1.90755 0.432655 0
M  V30 7530 O 712.256 -2.67538 0.462109 0
M  V30 7531 C 710.712 -2.0344 2.96884 0
M  V30 7532 C 710.32 -1.29719 4.28809 0
M  V30 7533 C 712.064 -2.7759 3.2116 0
M  V30 7534 C 709.971 -2.20327 5.48826 0
M  V30 7535 H 708.901 -0.420597 0.625791 0
M  V30 7536 H 711.552 -0.378499 1.79554 0
M  V30 7537 H 709.934 -2.80953 2.79072 0
M  V30 7538 H 711.108 -0.573394 4.57219 0
M  V30 7539 H 709.423 -0.674735 4.10897 0
M  V30 7540 H 712.02 -3.4559 4.0801 0
M  V30 7541 H 712.363 -3.42399 2.36789 0
M  V30 7542 H 712.896 -2.07164 3.396 0
M  V30 7543 H 709.635 -1.60113 6.35645 0
M  V30 7544 H 709.155 -2.90585 5.2471 0
M  V30 7545 H 710.834 -2.80116 5.83219 0
M  V30 7546 N 710.966 -1.44241 -0.634997 0
M  V30 7547 C 711.899 -1.45274 -1.75985 0
M  V30 7548 C 712.877 -0.312025 -1.59578 0
M  V30 7549 O 714.061 -0.508409 -1.81514 0
M  V30 7550 C 711.188 -1.28173 -3.13511 0
M  V30 7551 C 710.234 -2.45757 -3.48576 0
M  V30 7552 S 711.067 -4.08293 -3.46492 0
M  V30 7553 C 712.223 -3.93608 -4.86645 0
M  V30 7554 H 712.456 -2.40454 -1.74841 0
M  V30 7555 H 709.989 -1.31492 -0.809268 0
M  V30 7556 H 711.947 -1.18993 -3.92875 0
M  V30 7557 H 710.608 -0.34511 -3.12198 0
M  V30 7558 H 709.801 -2.29644 -4.48642 0
M  V30 7559 H 709.403 -2.51657 -2.76667 0
M  V30 7560 H 711.695 -3.57059 -5.75774 0
M  V30 7561 H 712.638 -4.9349 -5.07813 0
M  V30 7562 H 713.046 -3.25737 -4.61038 0
M  V30 7563 N 712.444 0.87505 -1.31075 0
M  V30 7564 C 713.392 2.00317 -1.18219 0
M  V30 7565 C 714.386 1.69152 -0.0916872 0
M  V30 7566 O 715.592 1.7821 -0.253229 0
M  V30 7567 H 711.967 0.656981 -0.365895 0
M  V30 7568 H 713.938 2.08293 -2.13674 0
M  V30 7569 C 712.687 3.35821 -0.901095 0
M  V30 7570 H 712.01 3.6032 -1.73233 0
M  V30 7571 H 713.45 4.15366 -0.851295 0
M  V30 7572 C 711.909 3.34563 0.396114 0
M  V30 7573 O 712.439 3.75971 1.41452 0
M  V30 7574 N 710.645 2.87681 0.410832 0
M  V30 7575 H 710.192 2.54179 -0.418415 0
M  V30 7576 H 710.15 2.87223 1.27869 0
M  V30 7577 N 713.922 1.13953 1.08869 0
M  V30 7578 C 714.852 0.844824 2.17681 0
M  V30 7579 C 715.833 -0.198213 1.68941 0
M  V30 7580 O 717.018 -0.0559073 1.9412 0
M  V30 7581 C 714.148 0.316325 3.45856 0
M  V30 7582 C 713.102 1.29426 4.07962 0
M  V30 7583 C 712.428 0.625275 5.31031 0
M  V30 7584 C 713.728 2.65484 4.49795 0
M  V30 7585 H 715.422 1.75471 2.42591 0
M  V30 7586 H 712.968 0.845116 1.16592 0
M  V30 7587 H 714.921 0.0977876 4.21287 0
M  V30 7588 H 713.645 -0.628972 3.20486 0
M  V30 7589 H 712.304 1.49889 3.34558 0
M  V30 7590 H 711.952 -0.325678 5.01945 0
M  V30 7591 H 711.652 1.27777 5.73539 0
M  V30 7592 H 713.176 0.416152 6.0918 0
M  V30 7593 H 714.59 2.48957 5.16424 0
M  V30 7594 H 712.987 3.26963 5.03205 0
M  V30 7595 H 714.057 3.22717 3.61914 0
M  V30 7596 N 715.4 -1.26948 0.933913 0
M  V30 7597 C 716.332 -2.25768 0.395137 0
M  V30 7598 C 717.345 -1.55637 -0.477585 0
M  V30 7599 O 718.534 -1.76142 -0.289204 0
M  V30 7600 C 715.634 -3.35874 -0.451882 0
M  V30 7601 C 714.807 -4.3554 0.40299 0
M  V30 7602 C 713.866 -5.24809 -0.3824 0
M  V30 7603 O 712.892 -5.68805 0.212057 0
M  V30 7604 N 714.094 -5.55636 -1.68072 0
M  V30 7605 H 716.859 -2.72634 1.24463 0
M  V30 7606 H 714.42 -1.40639 0.802008 0
M  V30 7607 H 716.412 -3.92542 -0.984516 0
M  V30 7608 H 714.982 -2.8856 -1.20215 0
M  V30 7609 H 714.202 -3.78047 1.11688 0
M  V30 7610 H 715.49 -4.99131 0.987201 0
M  V30 7611 H 714.888 -5.2176 -2.18592 0
M  V30 7612 H 713.445 -6.14978 -2.15975 0
M  V30 7613 N 716.879 -0.700114 -1.41195 0
M  V30 7614 C 718.109 -0.241828 -2.0518 0
M  V30 7615 C 718.517 1.1157 -1.52803 0
M  V30 7616 O 717.86 1.70926 -0.673042 0
M  V30 7617 C 717.922 -0.12695 -3.59276 0
M  V30 7618 C 717.586 -1.41725 -4.34469 0
M  V30 7619 C 718.583 -2.35604 -4.63451 0
M  V30 7620 C 716.268 -1.67189 -4.73659 0
M  V30 7621 C 718.262 -3.53204 -5.3059 0
M  V30 7622 C 715.949 -2.85073 -5.40534 0
M  V30 7623 C 716.947 -3.77904 -5.68927 0
M  V30 7624 O 716.635 -4.93723 -6.34424 0
M  V30 7625 H 716.367 -0.109247 -0.667114 0
M  V30 7626 H 718.921 -0.954538 -1.81873 0
M  V30 7627 H 717.151 0.641571 -3.81341 0
M  V30 7628 H 718.84 0.294748 -4.04828 0
M  V30 7629 H 719.606 -2.1719 -4.33651 0
M  V30 7630 H 715.485 -0.957935 -4.50937 0
M  V30 7631 H 719.029 -4.25679 -5.52669 0
M  V30 7632 H 714.926 -3.03402 -5.69752 0
M  V30 7633 H 715.694 -4.93597 -6.5292 0
M  V30 7634 N 718.357 1.51182 -0.445186 0
M  V30 7635 C 719.585 2.06568 0.117091 0
M  V30 7636 C 720 1.31182 1.35781 0
M  V30 7637 O 719.357 0.373605 1.78635 0
M  V30 7638 C 719.408 3.58917 0.431408 0
M  V30 7639 O 719.129 4.31456 -0.760078 0
M  V30 7640 C 720.63 4.30843 1.0435 0
M  V30 7641 H 717.85 0.670985 0.00444436 0
M  V30 7642 H 720.394 1.94666 -0.626525 0
M  V30 7643 H 718.549 3.70708 1.12493 0
M  V30 7644 H 718.963 5.22215 -0.489048 0
M  V30 7645 H 720.437 5.38499 1.21337 0
M  V30 7646 H 720.914 3.89644 2.02667 0
M  V30 7647 H 721.52 4.23516 0.38913 0
M  V30 7648 N 719.835 0.176821 1.56605 0
M  V30 7649 C 720.745 -0.763682 2.21822 0
M  V30 7650 C 721.761 -1.24889 1.21156 0
M  V30 7651 O 722.937 -1.29987 1.53836 0
M  V30 7652 C 720.002 -1.97352 2.8505 0
M  V30 7653 C 719.063 -1.53466 4.00932 0
M  V30 7654 C 718.296 -2.68682 4.61135 0
M  V30 7655 O 718.519 -3.85694 4.20234 0
M  V30 7656 O 717.453 -2.42442 5.50913 0
M  V30 7657 H 721.279 -0.238363 3.02763 0
M  V30 7658 H 718.864 -0.0516331 1.49311 0
M  V30 7659 H 720.746 -2.68096 3.25119 0
M  V30 7660 H 719.421 -2.48779 2.07101 0
M  V30 7661 H 718.328 -0.796551 3.65521 0
M  V30 7662 H 719.661 -1.06724 4.8049 0
M  V30 7663 N 721.313 -1.57302 -0.09688 0
M  V30 7664 C 722.276 -2.00976 -1.10188 0
M  V30 7665 C 723.276 -0.903009 -1.3305 0
M  V30 7666 O 724.466 -1.16853 -1.29194 0
M  V30 7667 C 721.598 -2.36893 -2.45142 0
M  V30 7668 H 722.791 -2.9098 -0.726003 0
M  V30 7669 H 720.344 -1.52515 -0.341872 0
M  V30 7670 H 721.079 -1.49837 -2.8761 0
M  V30 7671 H 720.864 -3.17632 -2.29897 0
M  V30 7672 H 722.354 -2.71345 -3.1743 0
M  V30 7673 N 722.791 0.367657 -1.53252 0
M  V30 7674 C 723.739 1.47061 -1.8021 0
M  V30 7675 C 724.733 1.55539 -0.671112 0
M  V30 7676 O 725.939 1.58451 -0.854014 0
M  V30 7677 H 722.314 0.489868 -0.570555 0
M  V30 7678 H 724.285 1.21527 -2.72532 0
M  V30 7679 C 723.034 2.83924 -2.00706 0
M  V30 7680 H 722.357 2.78158 -2.87172 0
M  V30 7681 H 723.797 3.60281 -2.23547 0
M  V30 7682 C 722.256 3.27613 -0.785568 0
M  V30 7683 O 722.786 4.01691 0.0267459 0
M  V30 7684 N 720.992 2.84134 -0.609597 0
M  V30 7685 H 720.539 2.24017 -1.27178 0
M  V30 7686 H 720.497 3.13723 0.206281 0
M  V30 7687 N 724.269 1.44576 0.627338 0
M  V30 7688 C 725.685 1.28546 0.945938 0
M  V30 7689 C 725.885 0.224003 2.00251 0
M  V30 7690 O 724.941 -0.388817 2.49488 0
M  V30 7691 C 726.254 2.65825 1.40561 0
M  V30 7692 C 727.802 2.73566 1.52088 0
M  V30 7693 C 728.277 4.11323 2.01438 0
M  V30 7694 N 729.768 4.13519 2.08702 0
M  V30 7695 C 730.503 5.16964 2.48065 0
M  V30 7696 N 729.999 6.30768 2.86538 0
M  V30 7697 N 731.792 5.04319 2.48232 0
M  V30 7698 H 723.943 2.1228 -0.0713567 0
M  V30 7699 H 726.206 0.947503 0.0307081 0
M  V30 7700 H 725.912 3.44591 0.703539 0
M  V30 7701 H 725.786 2.92969 2.37591 0
M  V30 7702 H 728.173 1.95116 2.21391 0
M  V30 7703 H 728.254 2.50159 0.534237 0
M  V30 7704 H 727.898 4.9025 1.32729 0
M  V30 7705 H 727.828 4.32109 3.0098 0
M  V30 7706 H 730.319 3.31385 1.81638 0
M  V30 7707 H 730.632 7.0551 3.15398 0
M  V30 7708 H 728.977 6.342 2.84281 0
M  V30 7709 H 732.168 4.14465 2.17569 0
M  V30 7710 H 732.341 5.85059 2.78585 0
M  V30 7711 N 725.747 -0.868086 1.31537 0
M  V30 7712 C 726.977 -1.65162 1.24118 0
M  V30 7713 C 727.385 -1.88187 -0.195558 0
M  V30 7714 O 726.728 -1.44154 -1.13866 0
M  V30 7715 C 726.79 -3.04119 1.91708 0
M  V30 7716 C 726.454 -3.04194 3.4105 0
M  V30 7717 C 727.451 -2.82016 4.36764 0
M  V30 7718 C 725.136 -3.25256 3.82772 0
M  V30 7719 C 727.13 -2.80881 5.72175 0
M  V30 7720 C 724.817 -3.23749 5.18295 0
M  V30 7721 C 725.815 -3.01589 6.12808 0
M  V30 7722 O 725.503 -2.9993 7.45853 0
M  V30 7723 H 725.235 -0.521597 0.430015 0
M  V30 7724 H 727.789 -1.09165 1.73989 0
M  V30 7725 H 726.019 -3.61849 1.36389 0
M  V30 7726 H 727.708 -3.64701 1.78179 0
M  V30 7727 H 728.474 -2.65525 4.05859 0
M  V30 7728 H 724.353 -3.41534 3.09638 0
M  V30 7729 H 727.897 -2.63503 6.45919 0
M  V30 7730 H 723.794 -3.39781 5.48834 0
M  V30 7731 H 724.562 -3.15979 7.55049 0
M  V30 7732 N 727.225 -1.14528 -1.08264 0
M  V30 7733 C 728.502 -0.825185 -1.77342 0
M  V30 7734 C 728.882 0.681037 -1.99813 0
M  V30 7735 O 728.23 1.62234 -1.60912 0
M  V30 7736 C 728.44 -1.62556 -3.08831 0
M  V30 7737 C 729.788 -1.82585 -3.83338 0
M  V30 7738 O 730.812 -1.59254 -3.18617 0
M  V30 7739 O 729.671 -2.21598 -4.99556 0
M  V30 7740 H 726.765 -0.302531 -0.769678 0
M  V30 7741 H 729.311 -1.25056 -1.14713 0
M  V30 7742 H 728.083 -2.64862 -2.88035 0
M  V30 7743 H 727.706 -1.1959 -3.79189 0
M  V30 7744 N 728.703 1.26451 -0.940633 0
M  V30 7745 C 729.933 1.97581 -0.603766 0
M  V30 7746 C 730.341 1.70246 0.825395 0
M  V30 7747 O 729.684 0.967001 1.56188 0
M  V30 7748 C 729.746 3.51256 -0.765463 0
M  V30 7749 C 729.41 4.0224 -2.16915 0
M  V30 7750 C 730.407 4.1402 -3.14457 0
M  V30 7751 C 728.092 4.36263 -2.48958 0
M  V30 7752 C 730.086 4.59117 -4.42143 0
M  V30 7753 C 727.773 4.81048 -3.76877 0
M  V30 7754 C 728.771 4.92436 -4.73282 0
M  V30 7755 O 728.459 5.36234 -5.98923 0
M  V30 7756 H 728.191 0.636948 -0.226436 0
M  V30 7757 H 730.745 1.61941 -1.2635 0
M  V30 7758 H 728.975 3.86669 -0.0485956 0
M  V30 7759 H 730.664 4.03597 -0.431738 0
M  V30 7760 H 731.43 3.87981 -2.91026 0
M  V30 7761 H 727.309 4.26634 -1.74656 0
M  V30 7762 H 730.853 4.6792 -5.17394 0
M  V30 7763 H 726.75 5.06531 -4.00121 0
M  V30 7764 H 727.518 5.54456 -6.02097 0
M  V30 7765 N 730.181 0.707592 1.40822 0
M  V30 7766 C 731.427 0.244031 2.01326 0
M  V30 7767 C 731.76 -1.15722 1.55955 0
M  V30 7768 O 731.035 -1.78347 0.776044 0
M  V30 7769 C 731.318 0.315128 3.58718 0
M  V30 7770 C 731.171 1.75419 4.14184 0
M  V30 7771 C 732.49 -0.318251 4.38948 0
M  V30 7772 H 729.609 0.0901471 0.731466 0
M  V30 7773 H 732.251 0.898584 1.67408 0
M  V30 7774 H 730.401 -0.242176 3.87744 0
M  V30 7775 H 732.073 2.36626 3.95987 0
M  V30 7776 H 730.316 2.28449 3.68773 0
M  V30 7777 H 730.987 1.75538 5.23345 0
M  V30 7778 H 733.463 0.156514 4.15806 0
M  V30 7779 H 732.339 -0.238019 5.48384 0
M  V30 7780 H 732.6 -1.40067 4.19325 0
M  V30 7781 N 731.66 -1.50943 0.453197 0
M  V30 7782 C 732.61 -2.25003 -0.368467 0
M  V30 7783 C 733.594 -1.27864 -0.976714 0
M  V30 7784 O 734.786 -1.52867 -0.892228 0
M  V30 7785 C 731.915 -3.10701 -1.46014 0
M  V30 7786 C 731.001 -4.15278 -0.860506 0
M  V30 7787 N 731.392 -5.05799 0.00849611 0
M  V30 7788 C 729.69 -4.31542 -1.1264 0
M  V30 7789 C 730.391 -5.80664 0.346951 0
M  V30 7790 N 729.367 -5.42912 -0.273426 0
M  V30 7791 H 733.169 -2.92352 0.301246 0
M  V30 7792 H 730.683 -1.60203 0.266233 0
M  V30 7793 H 732.68 -3.62348 -2.06179 0
M  V30 7794 H 731.34 -2.44898 -2.13202 0
M  V30 7795 H 732.351 -5.16533 0.376077 0
M  V30 7796 H 729.028 -3.76962 -1.7946 0
M  V30 7797 H 730.418 -6.63565 1.05507 0
M  V30 7798 N 733.138 -0.185124 -1.56509 0
M  V30 7799 C 734.384 0.456934 -1.97585 0
M  V30 7800 C 734.717 1.61957 -1.07161 0
M  V30 7801 O 733.992 1.9412 -0.121546 0
M  V30 7802 C 734.275 0.926666 -3.47973 0
M  V30 7803 C 734.128 -0.237097 -4.49175 0
M  V30 7804 C 735.447 1.79561 -4.01803 0
M  V30 7805 H 732.566 0.164619 -0.71838 0
M  V30 7806 H 735.208 -0.274039 -1.88013 0
M  V30 7807 H 733.358 1.54954 -3.56261 0
M  V30 7808 H 735.03 -0.87454 -4.52934 0
M  V30 7809 H 733.273 -0.890446 -4.24563 0
M  V30 7810 H 733.944 0.133924 -5.51838 0
M  V30 7811 H 736.42 1.27039 -3.96232 0
M  V30 7812 H 735.296 2.09327 -5.07418 0
M  V30 7813 H 735.557 2.74629 -3.46455 0
M  V30 7814 N 734.616 1.57351 0.0885366 0
M  V30 7815 C 735.864 1.86051 0.789262 0
M  V30 7816 C 736.185 0.774763 1.78948 0
M  V30 7817 O 735.455 -0.198324 1.94894 0
M  V30 7818 H 734.035 0.686508 0.294475 0
M  V30 7819 H 736.697 1.94779 0.0686055 0
M  V30 7820 H 735.793 2.83007 1.31581 0
M  V30 7821 N 736.094 -0.359525 1.53444 0
M  V30 7822 C 737.322 -1.12198 1.73837 0
M  V30 7823 C 737.737 -1.82854 0.470107 0
M  V30 7824 O 737.094 -1.73781 -0.557349 0
M  V30 7825 C 737.145 -2.14769 2.90786 0
M  V30 7826 O 736.866 -1.46989 4.12706 0
M  V30 7827 C 738.367 -3.03514 3.231 0
M  V30 7828 H 735.587 -0.33524 0.581253 0
M  V30 7829 H 738.131 -0.416598 2.00212 0
M  V30 7830 H 736.286 -2.80896 2.66788 0
M  V30 7831 H 736.7 -2.15378 4.78239 0
M  V30 7832 H 738.174 -3.71453 4.08322 0
M  V30 7833 H 738.651 -3.68658 2.38721 0
M  V30 7834 H 739.257 -2.42996 3.49046 0
M  V30 7835 N 737.572 -1.44907 -0.619662 0
M  V30 7836 C 738.818 -1.49504 -1.37914 0
M  V30 7837 C 739.173 -0.130158 -1.91959 0
M  V30 7838 O 738.466 0.856263 -1.71402 0
M  V30 7839 C 738.66 -2.50002 -2.55409 0
M  V30 7840 C 738.489 -3.96128 -2.12867 0
M  V30 7841 C 737.259 -4.64204 -1.99606 0
M  V30 7842 C 739.457 -4.85014 -1.71074 0
M  V30 7843 N 737.439 -5.95104 -1.50748 0
M  V30 7844 C 738.81 -6.05447 -1.33544 0
M  V30 7845 C 740.865 -4.71979 -1.58557 0
M  V30 7846 C 739.568 -7.1429 -0.847484 0
M  V30 7847 C 741.594 -5.80858 -1.11165 0
M  V30 7848 C 740.956 -7.00439 -0.745932 0
M  V30 7849 H 737.055 -0.60207 -0.499034 0
M  V30 7850 H 739.639 -1.81305 -0.70968 0
M  V30 7851 H 737.81 -2.20172 -3.19967 0
M  V30 7852 H 739.542 -2.44823 -3.22248 0
M  V30 7853 H 736.297 -4.19182 -2.20417 0
M  V30 7854 H 736.721 -6.64676 -1.28585 0
M  V30 7855 H 741.363 -3.79953 -1.85461 0
M  V30 7856 H 739.081 -8.06116 -0.565974 0
M  V30 7857 H 742.667 -5.72803 -1.01923 0
M  V30 7858 H 741.547 -7.83255 -0.384848 0
M  V30 7859 N 739.05 0.861098 -1.31996 0
M  V30 7860 C 740 1.95703 -1.1698 0
M  V30 7861 C 740.984 1.60709 -0.0784201 0
M  V30 7862 O 742.176 1.74365 -0.304262 0
M  V30 7863 C 739.305 3.31606 -0.888388 0
M  V30 7864 C 738.391 3.7284 -2.02117 0
M  V30 7865 N 738.782 3.85957 -3.26911 0
M  V30 7866 C 737.08 4.02419 -1.92289 0
M  V30 7867 C 737.781 4.21333 -4.01065 0
M  V30 7868 N 736.757 4.32502 -3.29307 0
M  V30 7869 H 740.559 2.03968 -2.11599 0
M  V30 7870 H 738.073 1.05245 -1.23682 0
M  V30 7871 H 740.07 4.09881 -0.761782 0
M  V30 7872 H 738.73 3.24662 0.0494898 0
M  V30 7873 H 739.741 3.70449 -3.61923 0
M  V30 7874 H 736.418 4.03814 -1.06022 0
M  V30 7875 H 737.808 4.39005 -5.08649 0
M  V30 7876 N 740.528 1.15101 1.07655 0
M  V30 7877 C 741.438 0.858869 2.18313 0
M  V30 7878 C 742.454 -0.163641 1.73229 0
M  V30 7879 O 743.63 0.00969541 2.01398 0
M  V30 7880 C 740.695 0.34893 3.4494 0
M  V30 7881 C 739.756 1.43495 4.04608 0
M  V30 7882 C 738.989 0.949253 5.2519 0
M  V30 7883 O 739.212 -0.20636 5.70027 0
M  V30 7884 O 738.146 1.73161 5.76454 0
M  V30 7885 H 741.972 1.78386 2.45788 0
M  V30 7886 H 739.557 0.929876 1.16934 0
M  V30 7887 H 741.439 0.070851 4.2134 0
M  V30 7888 H 740.114 -0.548237 3.19024 0
M  V30 7889 H 739.021 1.7666 3.29761 0
M  V30 7890 H 740.354 2.30692 4.3479 0
M  V30 7891 N 742.006 -1.2595 0.947325 0
M  V30 7892 C 743.254 -1.93081 0.596996 0
M  V30 7893 C 743.575 -1.74632 -0.867672 0
M  V30 7894 O 742.845 -1.1056 -1.6172 0
M  V30 7895 H 741.425 -0.714542 0.217805 0
M  V30 7896 H 744.087 -1.53265 1.20398 0
M  V30 7897 H 743.183 -3.01134 0.82004 0
M  V30 7898 N 743.484 -0.715051 -1.40445 0
M  V30 7899 C 744.73 -0.254705 -2.01194 0
M  V30 7900 C 745.063 1.14894 -1.56567 0
M  V30 7901 O 744.338 1.77933 -0.785491 0
M  V30 7902 C 744.621 -0.334148 -3.58546 0
M  V30 7903 C 744.474 -1.77613 -4.13248 0
M  V30 7904 C 745.793 0.294968 -4.3911 0
M  V30 7905 H 742.912 -0.094025 -0.730978 0
M  V30 7906 H 745.554 -0.907449 -1.66929 0
M  V30 7907 H 743.704 0.221609 -3.87867 0
M  V30 7908 H 745.376 -2.38723 -3.94727 0
M  V30 7909 H 743.619 -2.30402 -3.67556 0
M  V30 7910 H 744.29 -1.78311 -5.22407 0
M  V30 7911 H 746.766 -0.178563 -4.15717 0
M  V30 7912 H 745.642 0.208934 -5.48502 0
M  V30 7913 H 745.903 1.37841 -4.20062 0
M  V30 7914 N 744.962 1.50701 -0.461195 0
M  V30 7915 C 745.892 2.31182 0.328184 0
M  V30 7916 C 746.873 1.37644 0.999408 0
M  V30 7917 O 748.058 1.66565 0.99848 0
M  V30 7918 C 745.188 3.17113 1.41621 0
M  V30 7919 C 744.142 4.19124 0.867148 0
M  V30 7920 C 743.468 4.93728 2.05272 0
M  V30 7921 C 744.768 5.22174 -0.114808 0
M  V30 7922 H 746.462 2.97423 -0.343501 0
M  V30 7923 H 744.008 1.43033 -0.166641 0
M  V30 7924 H 745.961 3.72208 1.97584 0
M  V30 7925 H 744.685 2.48739 2.11652 0
M  V30 7926 H 743.344 3.65116 0.329557 0
M  V30 7927 H 742.992 4.21835 2.73978 0
M  V30 7928 H 742.692 5.62724 1.69161 0
M  V30 7929 H 744.216 5.51654 2.61744 0
M  V30 7930 H 745.63 5.72198 0.355316 0
M  V30 7931 H 744.027 5.98833 -0.389689 0
M  V30 7932 H 745.097 4.7353 -1.04391 0
M  V30 7933 N 746.441 0.193421 1.56409 0
M  V30 7934 C 747.389 -0.744829 2.20352 0
M  V30 7935 C 748.383 -1.22104 1.17418 0
M  V30 7936 O 749.589 -1.18413 1.35567 0
M  V30 7937 H 745.964 -0.258538 0.70616 0
M  V30 7938 H 747.935 -0.181794 2.97846 0
M  V30 7939 C 746.684 -1.95453 2.87565 0
M  V30 7940 H 746.007 -1.59716 3.66512 0
M  V30 7941 H 747.447 -2.58942 3.35745 0
M  V30 7942 C 745.906 -2.79223 1.8851 0
M  V30 7943 O 746.436 -3.77093 1.38434 0
M  V30 7944 N 744.642 -2.44682 1.56777 0
M  V30 7945 H 744.189 -1.65153 1.97692 0
M  V30 7946 H 744.147 -3.01016 0.907573 0
M  V30 7947 N 747.919 -1.57396 -0.0801906 0
M  V30 7948 C 749.168 -1.8602 -0.779702 0
M  V30 7949 C 749.481 -0.784864 -1.79163 0
M  V30 7950 O 750.687 -0.958691 -2.54011 0
M  V30 7951 C 749.143 -3.29942 -1.43758 0
M  V30 7952 C 748.751 -4.45584 -0.464654 0
M  V30 7953 C 750.495 -3.67775 -2.11995 0
M  V30 7954 C 748.402 -5.80544 -1.12797 0
M  V30 7955 H 747.332 -0.69392 -0.294943 0
M  V30 7956 H 749.983 -1.83471 -0.0328527 0
M  V30 7957 H 748.365 -3.27078 -2.2324 0
M  V30 7958 H 749.539 -4.59824 0.299749 0
M  V30 7959 H 747.854 -4.16247 0.112813 0
M  V30 7960 H 750.451 -4.65896 -2.62383 0
M  V30 7961 H 750.794 -2.9715 -2.91561 0
M  V30 7962 H 751.327 -3.72593 -1.39354 0
M  V30 7963 H 748.066 -6.54439 -0.372807 0
M  V30 7964 H 747.586 -5.70119 -1.86344 0
M  V30 7965 H 749.265 -6.25602 -1.6502 0
M  V30 7966 N 749.397 0.351382 -1.53633 0
M  V30 7967 C 750.674 1.10903 -1.6112 0
M  V30 7968 C 751.054 2.06725 -0.427556 0
M  V30 7969 O 750.402 2.20992 0.580916 0
M  V30 7970 C 750.612 1.83561 -2.96827 0
M  V30 7971 C 751.96 2.37587 -3.51906 0
M  V30 7972 O 752.984 1.93669 -2.9895 0
M  V30 7973 O 751.843 3.17913 -4.44515 0
M  V30 7974 H 748.937 0.509558 -0.651368 0
M  V30 7975 H 751.483 0.353504 -1.65977 0
M  V30 7976 H 750.255 1.1371 -3.74414 0
M  V30 7977 H 749.878 2.6599 -2.95525 0
M  V30 7978 N 750.875 1.45233 0.611969 0
M  V30 7979 C 752.152 1.39495 1.37115 0
M  V30 7980 C 752.532 0.0633303 2.11005 0
M  V30 7981 O 751.88 -0.954617 2.07604 0
M  V30 7982 C 752.09 2.60579 2.32163 0
M  V30 7983 C 753.438 3.05477 2.94905 0
M  V30 7984 O 754.462 2.60921 2.42485 0
M  V30 7985 O 753.321 3.82787 3.90047 0
M  V30 7986 H 750.415 0.55335 0.614599 0
M  V30 7987 H 752.961 1.57355 0.635423 0
M  V30 7988 H 751.733 3.49085 1.76793 0
M  V30 7989 H 751.356 2.45031 3.13122 0
M  V30 7990 N 752.353 -0.854086 1.3245 0
M  V30 7991 C 753.583 -1.63836 1.25862 0
M  V30 7992 C 753.991 -1.88383 -0.175588 0
M  V30 7993 O 753.334 -1.45353 -1.1233 0
M  V30 7994 C 753.396 -3.02068 1.94923 0
M  V30 7995 C 753.06 -3.0056 3.44257 0
M  V30 7996 C 754.057 -2.77368 4.39731 0
M  V30 7997 C 751.742 -3.21177 3.862 0
M  V30 7998 C 753.736 -2.74797 5.75122 0
M  V30 7999 C 751.423 -3.18234 5.217 0
M  V30 8000 C 752.421 -2.95072 6.15972 0
M  V30 8001 O 752.109 -2.92003 7.48992 0
M  V30 8002 H 751.841 -0.517007 0.435523 0
M  V30 8003 H 754.395 -1.07314 1.75137 0
M  V30 8004 H 752.625 -3.60382 1.40219 0
M  V30 8005 H 754.314 -3.62791 1.82037 0
M  V30 8006 H 755.08 -2.61205 4.08653 0
M  V30 8007 H 750.959 -3.38231 3.13243 0
M  V30 8008 H 754.503 -2.56638 6.48678 0
M  V30 8009 H 750.4 -3.33941 5.52407 0
M  V30 8010 H 751.168 -3.07953 7.58358 0
M  V30 8011 N 753.831 -1.1567 -1.07043 0
M  V30 8012 C 754.778 -0.856336 -2.14326 0
M  V30 8013 C 755.748 0.192051 -1.64986 0
M  V30 8014 O 756.933 0.0589148 -1.90709 0
M  V30 8015 C 754.073 -0.355227 -3.43267 0
M  V30 8016 C 753.186 -1.46555 -4.06381 0
M  V30 8017 C 752.321 -0.920245 -5.23168 0
M  V30 8018 C 751.36 -2.00729 -5.78251 0
M  V30 8019 N 750.497 -1.47813 -6.86364 0
M  V30 8020 H 755.337 -1.77514 -2.39359 0
M  V30 8021 H 752.874 -0.885676 -1.17449 0
M  V30 8022 H 754.832 -0.0463804 -4.17174 0
M  V30 8023 H 753.462 0.526649 -3.18475 0
M  V30 8024 H 752.514 -1.89052 -3.30096 0
M  V30 8025 H 753.826 -2.28616 -4.43324 0
M  V30 8026 H 752.98 -0.564127 -6.04072 0
M  V30 8027 H 751.719 -0.0688477 -4.87651 0
M  V30 8028 H 750.724 -2.3722 -4.95991 0
M  V30 8029 H 751.949 -2.86252 -6.15822 0
M  V30 8030 H 749.895 -0.649145 -6.5278 0
M  V30 8031 H 749.812 -2.23498 -7.22208 0
M  V30 8032 H 751.08 -1.15036 -7.70965 0
M  V30 8033 N 755.309 1.25446 -0.953992 0
M  V30 8034 C 756.558 1.92441 -0.604101 0
M  V30 8035 C 756.871 1.75543 0.862796 0
M  V30 8036 O 758.077 2.37106 1.32262 0
M  V30 8037 C 756.533 3.44854 -1.02974 0
M  V30 8038 C 756.141 3.70464 -2.51914 0
M  V30 8039 C 757.885 4.1778 -0.752352 0
M  V30 8040 C 755.792 5.1638 -2.88281 0
M  V30 8041 H 754.722 0.720508 -0.222227 0
M  V30 8042 H 757.373 1.42318 -1.15836 0
M  V30 8043 H 755.755 3.93935 -0.403904 0
M  V30 8044 H 756.929 3.32038 -3.19511 0
M  V30 8045 H 755.244 3.10797 -2.77117 0
M  V30 8046 H 757.841 5.25261 -1.00024 0
M  V30 8047 H 758.184 4.15135 0.311212 0
M  V30 8048 H 758.717 3.74605 -1.33851 0
M  V30 8049 H 755.456 5.24135 -3.93653 0
M  V30 8050 H 754.976 5.55855 -2.25357 0
M  V30 8051 H 756.655 5.84497 -2.77439 0
M  V30 8052 N 756.787 0.722489 1.40064 0
M  V30 8053 C 757.719 0.0349057 2.29173 0
M  V30 8054 C 758.732 -0.716571 1.46182 0
M  V30 8055 O 759.921 -0.562806 1.69395 0
M  V30 8056 C 757.021 -0.974839 3.24577 0
M  V30 8057 C 756.194 -0.287471 4.36454 0
M  V30 8058 C 755.253 -1.20356 5.12251 0
M  V30 8059 O 754.279 -0.685753 5.65054 0
M  V30 8060 N 755.481 -2.53422 5.22262 0
M  V30 8061 H 758.246 0.800058 2.88824 0
M  V30 8062 H 755.807 0.57068 1.51509 0
M  V30 8063 H 757.799 -1.59002 3.72157 0
M  V30 8064 H 756.369 -1.6413 2.66046 0
M  V30 8065 H 755.589 0.508008 3.90913 0
M  V30 8066 H 756.877 0.189382 5.08447 0
M  V30 8067 H 756.275 -2.97981 4.80857 0
M  V30 8068 H 754.832 -3.10067 5.73325 0
M  V30 8069 N 758.265 -1.50454 0.469181 0
M  V30 8070 C 759.198 -2.25149 -0.371928 0
M  V30 8071 C 760.176 -1.28382 -0.997845 0
M  V30 8072 O 761.36 -1.57599 -1.03415 0
M  V30 8073 C 758.487 -3.02629 -1.52097 0
M  V30 8074 C 757.533 -4.14305 -1.01262 0
M  V30 8075 S 758.366 -5.35453 0.0711459 0
M  V30 8076 C 759.522 -6.1648 -1.08181 0
M  V30 8077 H 759.755 -2.96142 0.262134 0
M  V30 8078 H 757.288 -1.52296 0.254042 0
M  V30 8079 H 759.246 -3.47861 -2.17952 0
M  V30 8080 H 757.907 -2.31165 -2.12654 0
M  V30 8081 H 757.1 -4.67913 -1.87278 0
M  V30 8082 H 756.702 -3.71499 -0.431804 0
M  V30 8083 H 758.994 -6.47497 -1.99382 0
M  V30 8084 H 759.937 -7.05679 -0.585028 0
M  V30 8085 H 760.345 -5.48492 -1.33478 0
M  V30 8086 N 759.743 -0.201713 -1.56304 0
M  V30 8087 C 760.691 0.733133 -2.20744 0
M  V30 8088 C 761.685 1.2148 -1.18064 0
M  V30 8089 O 762.891 1.17692 -1.36193 0
M  V30 8090 H 759.266 0.254789 -0.707521 0
M  V30 8091 H 761.237 0.165996 -2.97938 0
M  V30 8092 C 759.986 1.93925 -2.88597 0
M  V30 8093 H 759.309 1.5777 -3.67353 0
M  V30 8094 H 760.749 2.57158 -3.37114 0
M  V30 8095 C 759.208 2.78219 -1.89989 0
M  V30 8096 O 759.738 3.76353 -1.40432 0
M  V30 8097 N 757.944 2.43847 -1.58072 0
M  V30 8098 H 757.491 1.64103 -1.98565 0
M  V30 8099 H 757.449 3.0053 -0.923524 0
M  V30 8100 N 761.222 1.57436 0.0718424 0
M  V30 8101 C 762.169 2.03686 1.08539 0
M  V30 8102 C 763.139 0.917474 1.38462 0
M  V30 8103 O 764.324 1.18513 1.4953 0
M  V30 8104 C 761.464 2.48566 2.39393 0
M  V30 8105 C 760.577 3.74122 2.16001 0
M  V30 8106 C 759.712 4.07786 3.40418 0
M  V30 8107 C 758.751 5.26383 3.1239 0
M  V30 8108 N 757.888 5.55685 4.29138 0
M  V30 8109 H 762.728 2.90043 0.684018 0
M  V30 8110 H 760.265 1.43438 0.326183 0
M  V30 8111 H 762.223 2.72639 3.15791 0
M  V30 8112 H 760.853 1.65186 2.77333 0
M  V30 8113 H 759.905 3.57389 1.30296 0
M  V30 8114 H 761.217 4.60659 1.91298 0
M  V30 8115 H 760.371 4.32759 4.25211 0
M  V30 8116 H 759.11 3.19817 3.68197 0
M  V30 8117 H 758.115 5.01206 2.25993 0
M  V30 8118 H 759.34 6.1597 2.85934 0
M  V30 8119 H 757.286 4.70675 4.56948 0
M  V30 8120 H 757.203 6.3664 4.07708 0
M  V30 8121 H 758.471 5.85209 5.14928 0
M  V30 8122 N 762.7 -0.34323 1.53817 0
M  V30 8123 C 763.925 -1.1079 1.75329 0
M  V30 8124 C 764.35 -1.81571 0.491293 0
M  V30 8125 O 763.708 -1.72561 -0.556089 0
M  V30 8126 C 763.756 -2.09681 2.9337 0
M  V30 8127 O 762.86 -3.17207 2.63541 0
M  V30 8128 H 762.201 -0.320402 0.581583 0
M  V30 8129 H 764.731 -0.393525 2.0078 0
M  V30 8130 H 764.741 -2.52897 3.20168 0
M  V30 8131 H 763.416 -1.5756 3.84899 0
M  V30 8132 H 761.993 -2.78806 2.47632 0
M  V30 8133 N 764.178 -1.45556 -0.604258 0
M  V30 8134 C 765.426 -1.4945 -1.36048 0
M  V30 8135 C 765.747 -0.138933 -1.94504 0
M  V30 8136 O 765.017 0.832097 -1.7735 0
M  V30 8137 H 763.597 -0.550381 -0.505064 0
M  V30 8138 H 766.259 -1.81535 -0.709308 0
M  V30 8139 H 765.355 -2.23519 -2.17821 0
M  V30 8140 N 765.656 0.84705 -1.32902 0
M  V30 8141 C 766.902 1.60414 -1.24078 0
M  V30 8142 C 767.235 1.93217 0.195105 0
M  V30 8143 O 766.51 1.58001 1.13428 0
M  V30 8144 C 766.793 2.91951 -2.108 0
M  V30 8145 C 766.646 2.6588 -3.62805 0
M  V30 8146 C 767.965 3.93299 -1.97494 0
M  V30 8147 H 765.084 0.58206 -0.452079 0
M  V30 8148 H 767.726 0.977562 -1.62922 0
M  V30 8149 H 765.876 3.45425 -1.77802 0
M  V30 8150 H 767.548 2.18902 -4.06054 0
M  V30 8151 H 765.791 1.99716 -3.85092 0
M  V30 8152 H 766.462 3.59574 -4.1882 0
M  V30 8153 H 768.938 3.49105 -2.26417 0
M  V30 8154 H 767.814 4.8318 -2.60438 0
M  V30 8155 H 768.075 4.31887 -0.944782 0
M  V30 8156 N 767.134 1.16236 1.06428 0
M  V30 8157 C 768.38 0.944431 1.79467 0
M  V30 8158 C 768.713 -0.526558 1.86925 0
M  V30 8159 O 767.988 -1.39061 1.35986 0
M  V30 8160 C 768.271 1.57092 3.24028 0
M  V30 8161 C 768.124 3.11315 3.24658 0
M  V30 8162 C 769.443 1.26447 4.21544 0
M  V30 8163 H 766.562 0.344521 0.651517 0
M  V30 8164 H 769.204 1.43545 1.24478 0
M  V30 8165 H 767.354 1.15337 3.70985 0
M  V30 8166 H 769.026 3.62042 2.85873 0
M  V30 8167 H 767.269 3.44716 2.6335 0
M  V30 8168 H 767.94 3.50269 4.26633 0
M  V30 8169 H 770.416 1.62581 3.83023 0
M  V30 8170 H 769.292 1.72885 5.20963 0
M  V30 8171 H 769.553 0.183068 4.41721 0
M  V30 8172 N 768.612 -1.24939 0.960631 0
M  V30 8173 C 770.028 -1.45039 0.666018 0
M  V30 8174 C 770.228 -1.86021 -0.774501 0
M  V30 8175 O 769.284 -1.99392 -1.54916 0
M  V30 8176 C 770.597 -2.51775 1.64408 0
M  V30 8177 C 772.145 -2.6561 1.65592 0
M  V30 8178 C 772.62 -3.75536 2.62177 0
M  V30 8179 N 774.111 -3.82954 2.60577 0
M  V30 8180 C 774.846 -4.67517 3.31987 0
M  V30 8181 N 774.342 -5.56321 4.1289 0
M  V30 8182 N 776.135 -4.61535 3.20845 0
M  V30 8183 H 768.286 -0.96632 1.89145 0
M  V30 8184 H 770.549 -0.486034 0.813926 0
M  V30 8185 H 770.255 -2.28534 2.67329 0
M  V30 8186 H 770.129 -3.49804 1.41128 0
M  V30 8187 H 772.516 -2.88212 0.633846 0
M  V30 8188 H 772.597 -1.67962 1.92931 0
M  V30 8189 H 772.241 -3.53684 3.64514 0
M  V30 8190 H 772.171 -4.72682 2.32119 0
M  V30 8191 H 774.662 -3.19478 2.01847 0
M  V30 8192 H 774.975 -6.17787 4.64283 0
M  V30 8193 H 773.32 -5.5601 4.16987 0
M  V30 8194 H 776.511 -3.91169 2.57108 0
M  V30 8195 H 776.684 -5.27214 3.76762 0
M  V30 8196 N 770.09 -0.729906 -1.39679 0
M  V30 8197 C 771.315 -0.284345 -2.05442 0
M  V30 8198 C 771.74 1.07056 -1.54663 0
M  V30 8199 O 771.098 1.67732 -0.688157 0
M  V30 8200 C 771.146 -0.290089 -3.59431 0
M  V30 8201 O 770.25 0.723978 -4.05995 0
M  V30 8202 H 769.591 -0.130311 -0.651088 0
M  V30 8203 H 772.121 -0.994403 -1.78809 0
M  V30 8204 H 772.131 -0.132712 -4.07784 0
M  V30 8205 H 770.806 -1.27877 -3.95753 0
M  V30 8206 H 769.383 0.533154 -3.69069 0
M  V30 8207 N 771.568 1.50203 -0.477153 0
M  V30 8208 C 772.814 2.02658 0.0758507 0
M  V30 8209 C 773.147 1.358 1.38824 0
M  V30 8210 O 772.422 0.485696 1.88338 0
M  V30 8211 C 772.705 3.59208 0.253339 0
M  V30 8212 C 772.558 4.36629 -1.0805 0
M  V30 8213 C 773.877 4.28469 1.00509 0
M  V30 8214 H 770.996 0.736538 0.0260921 0
M  V30 8215 H 773.638 1.79464 -0.623925 0
M  V30 8216 H 771.788 3.79101 0.849378 0
M  V30 8217 H 773.46 4.28292 -1.71358 0
M  V30 8218 H 771.703 4.0013 -1.67566 0
M  V30 8219 H 772.374 5.44449 -0.909883 0
M  V30 8220 H 774.85 4.13087 0.499818 0
M  V30 8221 H 773.726 5.37804 1.09808 0
M  V30 8222 H 773.987 3.92057 2.04314 0
M  V30 8223 N 773.046 0.209999 1.56195 0
M  V30 8224 C 774.286 -0.4268 1.99894 0
M  V30 8225 C 774.65 -1.57763 1.0943 0
M  V30 8226 O 775.851 -2.27964 1.42428 0
M  V30 8227 C 774.122 -0.861188 3.46869 0
M  V30 8228 S 775.681 -1.49372 4.12593 0
M  V30 8229 H 772.499 -0.135922 0.697887 0
M  V30 8230 H 775.101 0.316573 1.9292 0
M  V30 8231 H 773.805 -0.0137653 4.10398 0
M  V30 8232 H 773.336 -1.63766 3.57693 0
M  V30 8233 H 775.351 -2.7827 4.10829 0
M  V30 8234 N 774.524 -1.57472 -0.0634922 0
M  V30 8235 C 775.749 -1.92273 -0.77756 0
M  V30 8236 C 776.174 -0.807141 -1.69902 0
M  V30 8237 O 775.532 0.239523 -1.79711 0
M  V30 8238 C 775.58 -3.26054 -1.54017 0
M  V30 8239 O 774.684 -3.15873 -2.65138 0
M  V30 8240 H 774.025 -0.629389 -0.211579 0
M  V30 8241 H 776.555 -2.04579 -0.0292523 0
M  V30 8242 H 776.565 -3.60127 -1.91763 0
M  V30 8243 H 775.24 -4.06824 -0.864128 0
M  V30 8244 H 773.817 -2.93373 -2.30189 0
M  V30 8245 N 776.003 0.335068 -1.53997 0
M  V30 8246 C 776.913 1.43511 -1.85585 0
M  V30 8247 C 777.929 1.57162 -0.746726 0
M  V30 8248 O 779.105 1.72477 -1.03988 0
M  V30 8249 C 776.17 2.78386 -2.06646 0
M  V30 8250 C 775.231 2.74007 -3.30483 0
M  V30 8251 C 774.464 4.02449 -3.50529 0
M  V30 8252 O 774.687 5.00147 -2.74242 0
M  V30 8253 O 773.621 4.06405 -4.4398 0
M  V30 8254 H 777.447 1.19731 -2.79102 0
M  V30 8255 H 775.032 0.528033 -1.39758 0
M  V30 8256 H 776.914 3.58247 -2.21894 0
M  V30 8257 H 775.589 3.0208 -1.16317 0
M  V30 8258 H 774.496 1.92736 -3.2063 0
M  V30 8259 H 775.829 2.55267 -4.20832 0
M  V30 8260 N 777.481 1.45874 0.596531 0
M  V30 8261 C 778.892 1.44798 1.17857 0
M  V30 8262 C 779.243 0.181443 1.95359 0
M  V30 8263 O 778.368 -0.716336 2.042 0
M  V30 8264 C 778.963 2.62333 2.14398 0
M  V30 8265 C 777.522 2.64342 2.67955 0
M  V30 8266 C 776.669 2.37244 1.43564 0
M  V30 8267 H 779.62 1.53954 0.385222 0
M  V30 8268 H 779.641 2.37063 2.97626 0
M  V30 8269 H 779.153 3.54499 1.57963 0
M  V30 8270 H 777.254 1.76213 3.28298 0
M  V30 8271 H 777.367 3.63897 3.11634 0
M  V30 8272 H 775.731 1.87022 1.72901 0
M  V30 8273 H 776.514 3.31568 0.889805 0
M  V30 8274 N 778.959 -0.83999 1.33349 0
M  V30 8275 C 780.199 -1.60888 1.26073 0
M  V30 8276 C 780.563 -1.91234 -0.17129 0
M  V30 8277 O 781.764 -2.66269 -0.36799 0
M  V30 8278 C 780.035 -2.88438 2.11042 0
M  V30 8279 S 781.594 -3.79116 2.20944 0
M  V30 8280 H 778.412 -0.55166 0.448545 0
M  V30 8281 H 781.014 -0.99359 1.68369 0
M  V30 8282 H 779.718 -2.64113 3.14121 0
M  V30 8283 H 779.249 -3.54974 1.69579 0
M  V30 8284 H 781.264 -4.76921 1.36969 0
M  V30 8285 N 780.437 -1.16799 -1.0581 0
M  V30 8286 C 781.367 -0.902241 -2.15364 0
M  V30 8287 C 782.348 0.153351 -1.69407 0
M  V30 8288 O 783.533 0.00442032 -1.94199 0
M  V30 8289 C 780.663 -0.407911 -3.44896 0
M  V30 8290 C 779.617 -1.40197 -4.04387 0
M  V30 8291 C 778.943 -0.765848 -5.29187 0
M  V30 8292 C 780.243 -2.77316 -4.42598 0
M  V30 8293 H 781.937 -1.81841 -2.37853 0
M  V30 8294 H 779.483 -0.875731 -1.14311 0
M  V30 8295 H 781.436 -0.20945 -4.20879 0
M  V30 8296 H 780.16 0.54378 -3.22041 0
M  V30 8297 H 778.819 -1.58707 -3.30466 0
M  V30 8298 H 778.467 0.192482 -5.02632 0
M  V30 8299 H 778.167 -1.42939 -5.69949 0
M  V30 8300 H 779.691 -0.577519 -6.07863 0
M  V30 8301 H 781.105 -2.62561 -5.09642 0
M  V30 8302 H 779.502 -3.4019 -4.94359 0
M  V30 8303 H 780.572 -3.32199 -3.53231 0
M  V30 8304 N 781.915 1.24427 -0.967243 0
M  V30 8305 C 782.862 2.25398 -0.496419 0
M  V30 8306 C 783.832 1.59667 0.457781 0
M  V30 8307 O 785.017 1.87213 0.368246 0
M  V30 8308 C 782.157 3.44474 0.207693 0
M  V30 8309 C 781.27 4.24804 -0.785221 0
M  V30 8310 C 780.405 5.31169 -0.0572631 0
M  V30 8311 C 779.444 6.03195 -1.04027 0
M  V30 8312 N 778.581 7.01265 -0.34235 0
M  V30 8313 H 783.421 2.65039 -1.36229 0
M  V30 8314 H 780.958 1.30288 -0.682902 0
M  V30 8315 H 782.916 4.12376 0.632612 0
M  V30 8316 H 781.546 3.05672 1.03752 0
M  V30 8317 H 780.598 3.56445 -1.32858 0
M  V30 8318 H 781.91 4.74599 -1.53483 0
M  V30 8319 H 781.064 6.05205 0.425674 0
M  V30 8320 H 779.803 4.8228 0.725047 0
M  V30 8321 H 778.808 5.27964 -1.53409 0
M  V30 8322 H 780.033 6.54173 -1.82302 0
M  V30 8323 H 777.979 6.54648 0.420993 0
M  V30 8324 H 777.896 7.48939 -1.03084 0
M  V30 8325 H 779.164 7.7941 0.118634 0
M  V30 8326 N 783.393 0.737304 1.3929 0
M  V30 8327 C 784.641 0.285691 2.00071 0
M  V30 8328 C 784.962 -1.13169 1.58801 0
M  V30 8329 O 784.232 -1.77104 0.837308 0
M  V30 8330 H 782.812 0.102638 0.739915 0
M  V30 8331 H 785.474 0.947775 1.70303 0
M  V30 8332 H 784.57 0.335906 3.10287 0
M  V30 8333 N 784.871 -1.49948 0.485112 0
M  V30 8334 C 785.803 -2.26691 -0.338222 0
M  V30 8335 C 786.816 -1.32584 -0.944742 0
M  V30 8336 O 788.005 -1.57989 -0.830772 0
M  V30 8337 C 785.105 -3.04405 -1.48966 0
M  V30 8338 C 784.278 -4.25971 -0.993371 0
M  V30 8339 C 783.337 -4.85861 -2.02052 0
M  V30 8340 O 782.363 -5.46382 -1.59547 0
M  V30 8341 N 783.565 -4.74101 -3.34975 0
M  V30 8342 H 786.33 -2.97989 0.319748 0
M  V30 8343 H 783.891 -1.58772 0.316714 0
M  V30 8344 H 785.883 -3.41348 -2.17403 0
M  V30 8345 H 784.453 -2.35815 -2.05207 0
M  V30 8346 H 783.673 -3.93971 -0.134424 0
M  V30 8347 H 784.961 -5.0476 -0.639934 0
M  V30 8348 H 784.359 -4.26002 -3.72208 0
M  V30 8349 H 782.916 -5.15274 -3.9917 0
M  V30 8350 N 786.349 -0.21828 -1.56081 0
M  V30 8351 C 787.598 0.414644 -1.97392 0
M  V30 8352 C 787.911 1.61132 -1.10887 0
M  V30 8353 O 789.117 2.31355 -1.42082 0
M  V30 8354 C 787.573 0.789099 -3.51143 0
M  V30 8355 C 787.181 -0.384578 -4.46346 0
M  V30 8356 C 788.925 1.38781 -4.01173 0
M  V30 8357 C 786.832 0.0121288 -5.91399 0
M  V30 8358 H 785.762 0.158691 -0.737111 0
M  V30 8359 H 788.413 -0.313974 -1.80794 0
M  V30 8360 H 786.795 1.57505 -3.6333 0
M  V30 8361 H 787.969 -1.16212 -4.45905 0
M  V30 8362 H 786.284 -0.896306 -4.06639 0
M  V30 8363 H 788.881 1.69746 -5.07041 0
M  V30 8364 H 789.224 2.30245 -3.46833 0
M  V30 8365 H 789.757 0.665364 -3.92196 0
M  V30 8366 H 786.496 -0.868917 -6.49715 0
M  V30 8367 H 786.016 0.754053 -5.95041 0
M  V30 8368 H 787.695 0.439949 -6.45502 0
M  V30 8369 N 787.827 1.57504 0.0551401 0
M  V30 8370 C 788.774 2.04825 1.06373 0
M  V30 8371 C 789.744 0.932108 1.37481 0
M  V30 8372 O 790.929 1.20093 1.48265 0
M  V30 8373 C 788.069 2.51091 2.36743 0
M  V30 8374 C 787.182 3.76392 2.12021 0
M  V30 8375 C 786.317 4.11373 3.36074 0
M  V30 8376 C 785.356 5.29666 3.0679 0
M  V30 8377 N 784.493 5.60205 4.2322 0
M  V30 8378 H 789.333 2.90753 0.653216 0
M  V30 8379 H 786.87 1.43776 0.310951 0
M  V30 8380 H 788.828 2.75973 3.12881 0
M  V30 8381 H 787.458 1.68118 2.75565 0
M  V30 8382 H 786.51 3.58751 1.26498 0
M  V30 8383 H 787.822 4.62662 1.86401 0
M  V30 8384 H 786.976 4.37245 4.20597 0
M  V30 8385 H 785.715 3.23704 3.64784 0
M  V30 8386 H 784.72 5.03574 2.20664 0
M  V30 8387 H 785.945 6.18968 2.79385 0
M  V30 8388 H 783.891 4.75495 4.5193 0
M  V30 8389 H 783.808 6.40928 4.00933 0
M  V30 8390 H 785.076 5.90637 5.08692 0
M  V30 8391 N 789.305 -0.326896 1.54172 0
M  V30 8392 C 790.551 -1.06681 1.72473 0
M  V30 8393 C 790.884 -1.87779 0.49523 0
M  V30 8394 O 790.159 -1.87754 -0.507803 0
M  V30 8395 C 790.442 -1.99429 2.99834 0
M  V30 8396 C 790.295 -1.21682 4.33028 0
M  V30 8397 C 791.614 -2.99002 3.22933 0
M  V30 8398 H 788.733 -0.386438 0.627563 0
M  V30 8399 H 791.375 -0.343779 1.86864 0
M  V30 8400 H 789.525 -2.61081 2.87696 0
M  V30 8401 H 791.197 -0.625153 4.57044 0
M  V30 8402 H 789.44 -0.519045 4.30684 0
M  V30 8403 H 790.111 -1.89766 5.18356 0
M  V30 8404 H 792.587 -2.4747 3.34511 0
M  V30 8405 H 791.463 -3.61085 4.13412 0
M  V30 8406 H 791.724 -3.71281 2.40006 0
M  V30 8407 N 790.784 -1.46188 -0.588786 0
M  V30 8408 C 792.033 -1.50452 -1.34339 0
M  V30 8409 C 792.346 -0.158096 -1.9496 0
M  V30 8410 O 793.552 -0.0784918 -2.71387 0
M  V30 8411 C 792.008 -2.65074 -2.43441 0
M  V30 8412 C 791.616 -4.06111 -1.8915 0
M  V30 8413 C 793.36 -2.78603 -3.20282 0
M  V30 8414 C 791.267 -5.12084 -2.95845 0
M  V30 8415 H 790.197 -0.559905 -0.504997 0
M  V30 8416 H 792.848 -1.72382 -0.629014 0
M  V30 8417 H 791.23 -2.36462 -3.1765 0
M  V30 8418 H 792.404 -4.44487 -1.21524 0
M  V30 8419 H 790.719 -3.97197 -1.24995 0
M  V30 8420 H 793.316 -3.54944 -3.99898 0
M  V30 8421 H 793.659 -1.85902 -3.72486 0
M  V30 8422 H 794.192 -3.06832 -2.53178 0
M  V30 8423 H 790.931 -6.06556 -2.48535 0
M  V30 8424 H 790.451 -4.78259 -3.61979 0
M  V30 8425 H 792.13 -5.37661 -3.59902 0
M  V30 8426 N 792.262 0.832906 -1.33792 0
M  V30 8427 C 793.678 1.1245 -1.13257 0
M  V30 8428 C 793.878 2.01369 0.0725832 0
M  V30 8429 O 792.934 2.41071 0.751082 0
M  V30 8430 C 794.247 1.78084 -2.42294 0
M  V30 8431 C 795.795 1.90624 -2.48257 0
M  V30 8432 C 796.27 2.59673 -3.77271 0
M  V30 8433 N 797.761 2.67181 -3.78376 0
M  V30 8434 C 798.496 3.21313 -4.74916 0
M  V30 8435 N 797.992 3.76086 -5.81835 0
M  V30 8436 N 799.785 3.19621 -4.62384 0
M  V30 8437 H 791.936 0.241244 -2.11026 0
M  V30 8438 H 794.199 0.169557 -0.932713 0
M  V30 8439 H 793.905 1.20209 -3.30519 0
M  V30 8440 H 793.779 2.78049 -2.5489 0
M  V30 8441 H 796.166 2.4765 -1.60478 0
M  V30 8442 H 796.247 0.89591 -2.39598 0
M  V30 8443 H 795.891 2.03304 -4.65435 0
M  V30 8444 H 795.821 3.61189 -3.8321 0
M  V30 8445 H 798.312 2.28346 -3.01108 0
M  V30 8446 H 798.625 4.15612 -6.51526 0
M  V30 8447 H 796.97 3.74357 -5.85561 0
M  V30 8448 H 800.161 2.76091 -3.7801 0
M  V30 8449 H 800.334 3.61504 -5.37791 0
M  V30 8450 N 793.74 1.17359 1.05189 0
M  V30 8451 C 794.687 0.890325 2.12936 0
M  V30 8452 C 795.657 -0.165779 1.65271 0
M  V30 8453 O 796.842 -0.0285672 1.90779 0
M  V30 8454 C 793.982 0.409793 3.42658 0
M  V30 8455 C 793.095 1.53002 4.03998 0
M  V30 8456 C 792.23 1.00336 5.21638 0
M  V30 8457 C 791.269 2.09903 5.74984 0
M  V30 8458 N 790.406 1.58714 6.83926 0
M  V30 8459 H 795.246 1.81299 2.36505 0
M  V30 8460 H 792.783 0.904249 1.16025 0
M  V30 8461 H 794.741 0.112743 4.17048 0
M  V30 8462 H 793.371 -0.475915 3.19272 0
M  V30 8463 H 792.423 1.9428 3.27047 0
M  V30 8464 H 793.735 2.3564 4.39631 0
M  V30 8465 H 792.889 0.660158 6.03098 0
M  V30 8466 H 791.628 0.14642 4.8748 0
M  V30 8467 H 790.633 2.45081 4.92154 0
M  V30 8468 H 791.858 2.96013 6.1119 0
M  V30 8469 H 789.804 0.752915 6.51665 0
M  V30 8470 H 789.721 2.34959 7.18561 0
M  V30 8471 H 790.989 1.27287 7.69037 0
M  V30 8472 N 795.218 -1.23913 0.973828 0
M  V30 8473 C 796.466 -1.91771 0.637817 0
M  V30 8474 C 796.787 -1.76434 -0.830435 0
M  V30 8475 O 796.057 -1.13965 -1.59339 0
M  V30 8476 H 794.637 -0.709761 0.232912 0
M  V30 8477 H 797.299 -1.50677 1.23622 0
M  V30 8478 H 796.395 -2.99327 0.883731 0
M  V30 8479 N 796.696 -0.74468 -1.38897 0
M  V30 8480 C 797.606 -0.112892 -2.34328 0
M  V30 8481 C 798.622 0.71087 -1.58816 0
M  V30 8482 O 799.798 0.637092 -1.91058 0
M  V30 8483 C 796.863 0.776417 -3.37894 0
M  V30 8484 C 795.924 -0.0606999 -4.29257 0
M  V30 8485 C 795.157 0.786258 -5.27877 0
M  V30 8486 O 795.38 2.02463 -5.33259 0
M  V30 8487 O 794.314 0.209781 -6.01534 0
M  V30 8488 H 798.14 -0.900801 -2.90033 0
M  V30 8489 H 795.725 -0.505462 -1.4059 0
M  V30 8490 H 797.607 1.28496 -4.01331 0
M  V30 8491 H 796.282 1.54297 -2.84559 0
M  V30 8492 H 795.189 -0.614984 -3.69011 0
M  V30 8493 H 796.522 -0.789702 -4.85824 0
M  V30 8494 N 798.174 1.49689 -0.493057 0
M  V30 8495 C 799.42 2.02727 0.0543518 0
M  V30 8496 C 799.753 1.37264 1.37376 0
M  V30 8497 O 799.028 0.505644 1.87812 0
M  V30 8498 C 799.311 3.59456 0.215226 0
M  V30 8499 C 799.164 4.35459 -1.12675 0
M  V30 8500 C 800.483 4.29511 0.959586 0
M  V30 8501 H 797.602 0.736773 0.0182786 0
M  V30 8502 H 800.244 1.78792 -0.642924 0
M  V30 8503 H 798.394 3.79981 0.809122 0
M  V30 8504 H 800.066 4.2645 -1.75891 0
M  V30 8505 H 798.309 3.9833 -1.71801 0
M  V30 8506 H 798.98 5.43454 -0.967578 0
M  V30 8507 H 801.456 4.13594 0.455977 0
M  V30 8508 H 800.332 5.38939 1.04098 0
M  V30 8509 H 800.593 3.94202 2.00144 0
M  V30 8510 N 799.652 0.226554 1.55963 0
M  V30 8511 C 800.877 -0.411527 2.03276 0
M  V30 8512 C 801.302 -1.52206 1.10521 0
M  V30 8513 O 800.66 -1.81054 0.0943217 0
M  V30 8514 C 800.708 -0.915694 3.4878 0
M  V30 8515 O 799.812 -2.02672 3.59163 0
M  V30 8516 H 799.153 -0.0924907 0.657527 0
M  V30 8517 H 801.683 0.346656 2.01642 0
M  V30 8518 H 801.693 -1.22421 3.892 0
M  V30 8519 H 800.368 -0.102915 4.15773 0
M  V30 8520 H 798.945 -1.72445 3.30632 0
M  V30 8521 N 801.13 -1.57531 -0.0467866 0
M  V30 8522 C 802.37 -1.90294 -0.746171 0
M  V30 8523 C 802.734 -0.823194 -1.73458 0
M  V30 8524 O 803.935 -1.03463 -2.48091 0
M  V30 8525 C 802.206 -3.28249 -1.41378 0
M  V30 8526 S 803.765 -3.82812 -2.14477 0
M  V30 8527 H 800.583 -0.666496 -0.247598 0
M  V30 8528 H 803.185 -1.955 -0.00135143 0
M  V30 8529 H 801.889 -4.04712 -0.680937 0
M  V30 8530 H 801.42 -3.26302 -2.19751 0
M  V30 8531 H 803.435 -3.60111 -3.41372 0
M  V30 8532 N 802.608 0.318715 -1.54344 0
M  V30 8533 C 803.848 1.06425 -1.74508 0
M  V30 8534 C 804.212 1.85087 -0.510572 0
M  V30 8535 O 805.413 2.62253 -0.589647 0
M  V30 8536 C 803.684 1.96054 -2.98827 0
M  V30 8537 S 805.243 2.77493 -3.39916 0
M  V30 8538 H 802.061 0.35921 -0.613587 0
M  V30 8539 H 804.663 0.339679 -1.92526 0
M  V30 8540 H 803.367 1.37109 -3.8682 0
M  V30 8541 H 802.898 2.72908 -2.83346 0
M  V30 8542 H 804.913 3.98544 -2.95596 0
M  V30 8543 N 804.086 1.46499 0.581025 0
M  V30 8544 C 805.332 1.53108 1.33901 0
M  V30 8545 C 805.687 0.181007 1.91547 0
M  V30 8546 O 804.98 -0.810518 1.73612 0
M  V30 8547 C 805.174 2.56686 2.48691 0
M  V30 8548 C 805.003 4.01633 2.0229 0
M  V30 8549 C 803.773 4.69333 1.87228 0
M  V30 8550 C 805.971 4.89379 1.58154 0
M  V30 8551 N 803.953 5.98891 1.34917 0
M  V30 8552 C 805.324 6.08775 1.17445 0
M  V30 8553 C 807.379 4.76017 1.45987 0
M  V30 8554 C 806.082 7.16286 0.657805 0
M  V30 8555 C 808.108 5.83601 0.95726 0
M  V30 8556 C 807.47 7.02171 0.55996 0
M  V30 8557 H 803.569 0.61509 0.482896 0
M  V30 8558 H 806.153 1.83123 0.661361 0
M  V30 8559 H 804.324 2.28578 3.14017 0
M  V30 8560 H 806.056 2.5328 3.15644 0
M  V30 8561 H 802.811 4.24878 2.09226 0
M  V30 8562 H 803.235 6.67852 1.10917 0
M  V30 8563 H 807.877 3.84736 1.75322 0
M  V30 8564 H 805.595 8.07333 0.352047 0
M  V30 8565 H 809.181 5.75304 0.867007 0
M  V30 8566 H 808.061 7.84 0.177046 0
M  V30 8567 N 805.565 -0.825799 1.34232 0
M  V30 8568 C 806.814 -1.57686 1.2577 0
M  V30 8569 C 807.127 -1.94848 -0.171372 0
M  V30 8570 O 808.333 -2.68854 -0.378123 0
M  V30 8571 C 806.789 -2.84478 2.20454 0
M  V30 8572 C 806.397 -2.54629 3.68603 0
M  V30 8573 C 808.141 -3.625 2.20893 0
M  V30 8574 C 806.048 -3.77597 4.55164 0
M  V30 8575 H 804.978 -0.591809 0.467203 0
M  V30 8576 H 807.629 -0.909421 1.59379 0
M  V30 8577 H 806.011 -3.52832 1.79793 0
M  V30 8578 H 807.185 -1.94404 4.17784 0
M  V30 8579 H 805.5 -1.89888 3.70582 0
M  V30 8580 H 808.097 -4.538 2.82789 0
M  V30 8581 H 808.44 -3.98404 1.20746 0
M  V30 8582 H 808.973 -3.01086 2.59985 0
M  V30 8583 H 805.712 -3.46815 5.56237 0
M  V30 8584 H 805.232 -4.37116 4.10719 0
M  V30 8585 H 806.911 -4.45039 4.69627 0
M  V30 8586 N 807.043 -1.17915 -1.04565 0
M  V30 8587 C 808.283 -0.982331 -1.79247 0
M  V30 8588 C 808.647 0.47998 -1.85904 0
M  V30 8589 O 809.848 0.796078 -2.56741 0
M  V30 8590 C 808.119 -1.61329 -3.18916 0
M  V30 8591 S 809.678 -1.56355 -4.09998 0
M  V30 8592 H 806.496 -0.352869 -0.617256 0
M  V30 8593 H 809.098 -1.49971 -1.25415 0
M  V30 8594 H 807.802 -2.66993 -3.11678 0
M  V30 8595 H 807.333 -1.09599 -3.77825 0
M  V30 8596 H 809.348 -0.57593 -4.92846 0
M  V30 8597 N 808.521 1.23394 -0.980386 0
M  V30 8598 C 809.749 1.95844 -0.667286 0
M  V30 8599 C 810.164 1.72574 0.765735 0
M  V30 8600 O 809.521 1.01715 1.51526 0
M  V30 8601 C 809.572 3.48844 -0.948151 0
M  V30 8602 O 809.293 3.71325 -2.32485 0
M  V30 8603 C 810.794 4.38494 -0.651002 0
M  V30 8604 H 808.014 0.623535 -0.247882 0
M  V30 8605 H 810.558 1.56885 -1.31176 0
M  V30 8606 H 808.713 3.85819 -0.349681 0
M  V30 8607 H 809.127 4.65619 -2.41452 0
M  V30 8608 H 810.601 5.44648 -0.897887 0
M  V30 8609 H 811.078 4.37236 0.414922 0
M  V30 8610 H 811.684 4.07127 -1.22995 0
M  V30 8611 N 809.999 0.752036 1.385 0
M  V30 8612 C 810.962 0.131587 2.28822 0
M  V30 8613 C 811.962 -0.649149 1.47115 0
M  V30 8614 O 813.152 -0.475645 1.67581 0
M  V30 8615 C 810.284 -0.822101 3.30839 0
M  V30 8616 H 811.477 0.927551 2.85196 0
M  V30 8617 H 809.03 0.518945 1.47434 0
M  V30 8618 H 809.765 -1.6438 2.79553 0
M  V30 8619 H 809.55 -0.264689 3.91206 0
M  V30 8620 H 811.04 -1.25226 3.98382 0
M  V30 8621 N 811.477 -1.49425 0.500989 0
M  V30 8622 C 812.717 -2.04357 -0.0419004 0
M  V30 8623 C 813.081 -1.37236 -1.34277 0
M  V30 8624 O 814.282 -1.82889 -1.9699 0
M  V30 8625 C 812.553 -3.56889 -0.19112 0
M  V30 8626 S 814.112 -4.33369 -0.688259 0
M  V30 8627 H 810.93 -0.710998 -0.00177796 0
M  V30 8628 H 813.532 -1.83479 0.674953 0
M  V30 8629 H 812.236 -4.03283 0.760964 0
M  V30 8630 H 811.767 -3.82171 -0.933214 0
M  V30 8631 H 813.782 -4.55961 -1.9574 0
M  V30 8632 N 812.955 -0.234822 -1.55841 0
M  V30 8633 C 813.902 0.6698 -2.20867 0
M  V30 8634 C 814.872 1.18042 -1.16856 0
M  V30 8635 O 816.057 1.23709 -1.45261 0
M  V30 8636 C 813.197 1.86646 -2.90271 0
M  V30 8637 C 812.31 1.39351 -4.08908 0
M  V30 8638 C 811.445 2.54878 -4.66059 0
M  V30 8639 C 810.484 2.04384 -5.76969 0
M  V30 8640 N 809.621 3.13233 -6.28355 0
M  V30 8641 H 814.461 0.10858 -2.97802 0
M  V30 8642 H 811.998 0.041836 -1.4704 0
M  V30 8643 H 813.956 2.56926 -3.28702 0
M  V30 8644 H 812.586 2.40035 -2.15831 0
M  V30 8645 H 811.638 0.585173 -3.75872 0
M  V30 8646 H 812.95 0.983356 -4.89011 0
M  V30 8647 H 812.104 3.33219 -5.07001 0
M  V30 8648 H 810.843 2.99188 -3.85146 0
M  V30 8649 H 809.848 1.24509 -5.35516 0
M  V30 8650 H 811.073 1.61057 -6.59725 0
M  V30 8651 H 809.019 3.57 -5.50352 0
M  V30 8652 H 808.936 2.76511 -7.03618 0
M  V30 8653 H 810.204 3.91669 -6.73955 0
M  V30 8654 N 814.433 1.57553 0.0384317 0
M  V30 8655 C 815.343 2.09333 1.0591 0
M  V30 8656 C 816.359 1.0299 1.40247 0
M  V30 8657 O 817.535 1.34669 1.49754 0
M  V30 8658 C 814.6 2.55468 2.34386 0
M  V30 8659 C 813.661 3.76254 2.06716 0
M  V30 8660 C 812.894 4.20179 3.29067 0
M  V30 8661 O 813.117 3.637 4.39407 0
M  V30 8662 O 812.051 5.12697 3.15317 0
M  V30 8663 H 815.877 2.96683 0.649087 0
M  V30 8664 H 813.462 1.47211 0.254802 0
M  V30 8665 H 815.344 2.85514 3.09935 0
M  V30 8666 H 814.019 1.71234 2.74701 0
M  V30 8667 H 812.926 3.51241 1.28766 0
M  V30 8668 H 814.259 4.61443 1.71263 0
M  V30 8669 N 815.911 -0.310526 1.54511 0
M  V30 8670 C 816.859 -1.40272 1.85544 0
M  V30 8671 C 817.853 -1.52941 0.728377 0
M  V30 8672 O 819.059 -1.55172 0.912234 0
M  V30 8673 H 815.434 -0.468355 0.588343 0
M  V30 8674 H 817.405 -1.11329 2.76855 0
M  V30 8675 C 816.154 -2.76279 2.11105 0
M  V30 8676 H 815.477 -2.67308 2.97298 0
M  V30 8677 H 816.917 -3.51736 2.36765 0
M  V30 8678 C 815.376 -3.24472 0.906618 0
M  V30 8679 O 815.906 -4.01514 0.122358 0
M  V30 8680 N 814.112 -2.81676 0.714632 0
M  V30 8681 H 813.659 -2.19143 1.35404 0
M  V30 8682 H 813.617 -3.14272 -0.089703 0
M  V30 8683 N 817.389 -1.46805 -0.573248 0
M  V30 8684 C 818.299 -1.60687 -1.70929 0
M  V30 8685 C 819.315 -0.490084 -1.66956 0
M  V30 8686 O 820.491 -0.755482 -1.86693 0
M  V30 8687 C 817.556 -1.60259 -3.07438 0
M  V30 8688 C 816.617 -2.83242 -3.22603 0
M  V30 8689 C 815.85 -2.82825 -4.52599 0
M  V30 8690 O 816.073 -1.92113 -5.37074 0
M  V30 8691 O 815.007 -3.74489 -4.71213 0
M  V30 8692 H 818.833 -2.56782 -1.62163 0
M  V30 8693 H 816.418 -1.29706 -0.741399 0
M  V30 8694 H 818.3 -1.6275 -3.88704 0
M  V30 8695 H 816.975 -0.673268 -3.16621 0
M  V30 8696 H 815.882 -2.86302 -2.40794 0
M  V30 8697 H 817.215 -3.75415 -3.18315 0
M  V30 8698 N 818.867 0.818669 -1.34668 0
M  V30 8699 C 820.097 1.60441 -1.30162 0
M  V30 8700 C 820.505 1.88783 0.125579 0
M  V30 8701 O 819.848 1.48281 1.08437 0
M  V30 8702 C 819.91 2.96794 -2.02864 0
M  V30 8703 C 819.574 2.91327 -3.52105 0
M  V30 8704 C 820.571 2.65611 -4.4693 0
M  V30 8705 C 818.256 3.10825 -3.9458 0
M  V30 8706 C 820.25 2.59452 -5.82206 0
M  V30 8707 C 817.937 3.0429 -5.29954 0
M  V30 8708 C 818.935 2.78637 -6.23579 0
M  V30 8709 O 818.623 2.72042 -7.56471 0
M  V30 8710 H 818.355 0.505278 -0.449077 0
M  V30 8711 H 820.909 1.02632 -1.77921 0
M  V30 8712 H 819.139 3.56538 -1.49725 0
M  V30 8713 H 820.828 3.57837 -1.91592 0
M  V30 8714 H 821.594 2.50278 -4.15434 0
M  V30 8715 H 817.473 3.29807 -3.221 0
M  V30 8716 H 821.017 2.39349 -6.55254 0
M  V30 8717 H 816.914 3.19177 -5.61067 0
M  V30 8718 H 817.682 2.87738 -7.66257 0
M  V30 8719 N 820.346 1.18468 1.03938 0
M  V30 8720 C 821.592 0.982286 1.77423 0
M  V30 8721 C 821.925 -0.48679 1.88 0
M  V30 8722 O 821.2 -1.36146 1.38905 0
M  V30 8723 C 821.483 1.63929 3.20623 0
M  V30 8724 C 821.336 3.18132 3.17982 0
M  V30 8725 C 822.655 1.3536 4.18767 0
M  V30 8726 H 819.774 0.358264 0.644062 0
M  V30 8727 H 822.416 1.46154 1.21405 0
M  V30 8728 H 820.566 1.2318 3.68455 0
M  V30 8729 H 822.238 3.68024 2.78129 0
M  V30 8730 H 820.481 3.50225 2.55978 0
M  V30 8731 H 821.152 3.5924 4.19107 0
M  V30 8732 H 823.628 1.70669 3.79488 0
M  V30 8733 H 822.504 1.83896 5.17178 0
M  V30 8734 H 822.765 0.276722 4.41233 0
M  V30 8735 N 821.824 -1.22873 0.986916 0
M  V30 8736 C 822.756 -2.23889 0.490537 0
M  V30 8737 C 823.769 -1.57523 -0.411144 0
M  V30 8738 O 824.958 -1.7721 -0.214236 0
M  V30 8739 C 822.058 -3.37488 -0.30902 0
M  V30 8740 C 821.231 -4.33438 0.587354 0
M  V30 8741 C 820.29 -5.25958 -0.159467 0
M  V30 8742 O 819.316 -5.67394 0.453115 0
M  V30 8743 N 820.518 -5.62265 -1.44355 0
M  V30 8744 H 823.283 -2.67109 1.35914 0
M  V30 8745 H 820.844 -1.37111 0.860937 0
M  V30 8746 H 822.836 -3.96365 -0.817139 0
M  V30 8747 H 821.406 -2.934 -1.07868 0
M  V30 8748 H 820.626 -3.72969 1.27622 0
M  V30 8749 H 821.914 -4.94495 1.19801 0
M  V30 8750 H 821.312 -5.30562 -1.96266 0
M  V30 8751 H 819.869 -6.23585 -1.89698 0
M  V30 8752 N 823.302 -0.75937 -1.38099 0
M  V30 8753 C 824.579 -0.243371 -1.9408 0
M  V30 8754 C 824.959 1.25942 -1.69416 0
M  V30 8755 O 824.307 2.03667 -1.03595 0
M  V30 8756 C 824.517 -0.603328 -3.43745 0
M  V30 8757 C 825.865 -0.566195 -4.20808 0
M  V30 8758 O 826.889 -0.541969 -3.52053 0
M  V30 8759 O 825.748 -0.582261 -5.43389 0
M  V30 8760 H 822.842 -0.0526825 -0.82532 0
M  V30 8761 H 825.388 -0.839884 -1.47459 0
M  V30 8762 H 824.16 -1.64098 -3.55229 0
M  V30 8763 H 823.783 0.0208887 -3.97595 0
M  V30 8764 N 824.78 1.49157 -0.508906 0
M  V30 8765 C 825.69 2.33045 0.269656 0
M  V30 8766 C 826.706 1.45143 0.959662 0
M  V30 8767 O 827.882 1.78155 0.939295 0
M  V30 8768 C 824.947 3.20772 1.31554 0
M  V30 8769 C 824.008 4.24531 0.638131 0
M  V30 8770 C 823.241 5.08065 1.63418 0
M  V30 8771 O 823.464 4.93238 2.86483 0
M  V30 8772 O 822.398 5.90117 1.18516 0
M  V30 8773 H 826.224 3.00821 -0.417183 0
M  V30 8774 H 823.809 1.46938 -0.270119 0
M  V30 8775 H 825.691 3.75095 1.92047 0
M  V30 8776 H 824.366 2.55681 1.98516 0
M  V30 8777 H 823.273 3.74099 -0.00674357 0
M  V30 8778 H 824.606 4.92199 0.0108155 0
M  V30 8779 N 826.258 0.243083 1.55714 0
M  V30 8780 C 827.505 -0.38272 1.9885 0
M  V30 8781 C 827.833 -1.58225 1.13115 0
M  V30 8782 O 827.088 -1.94861 0.181067 0
M  V30 8783 C 827.387 -0.839621 3.47398 0
M  V30 8784 C 827.053 0.251737 4.50197 0
M  V30 8785 C 825.715 0.551487 4.78029 0
M  V30 8786 C 828.067 0.988728 5.11736 0
M  V30 8787 C 825.395 1.59237 5.64677 0
M  V30 8788 C 827.747 2.0191 5.99512 0
M  V30 8789 C 826.411 2.32554 6.2568 0
M  V30 8790 H 825.681 -0.140047 0.727645 0
M  V30 8791 H 828.328 0.35011 1.88272 0
M  V30 8792 H 826.633 -1.65159 3.55288 0
M  V30 8793 H 828.33 -1.33404 3.78159 0
M  V30 8794 H 824.92 0.00796741 4.28599 0
M  V30 8795 H 829.104 0.7704 4.90284 0
M  V30 8796 H 824.36 1.83517 5.83208 0
M  V30 8797 H 828.534 2.59511 6.46241 0
M  V30 8798 H 826.161 3.13349 6.92616 0
M  V30 8799 N 827.736 -1.57571 -0.0300757 0
M  V30 8800 C 828.964 -1.93485 -0.732891 0
M  V30 8801 C 829.379 -0.842758 -1.68947 0
M  V30 8802 O 828.736 0.180904 -1.81601 0
M  V30 8803 C 828.787 -3.29328 -1.49082 0
M  V30 8804 O 828.508 -4.34341 -0.572639 0
M  V30 8805 C 830.009 -3.79517 -2.29088 0
M  V30 8806 H 827.229 -0.638588 -0.206026 0
M  V30 8807 H 829.773 -2.04496 0.0120966 0
M  V30 8808 H 827.928 -3.19716 -2.1877 0
M  V30 8809 H 828.342 -5.12748 -1.10406 0
M  V30 8810 H 829.816 -4.77081 -2.77665 0
M  V30 8811 H 830.293 -3.10659 -3.10464 0
M  V30 8812 H 830.899 -3.92208 -1.64477 0
M  V30 8813 N 829.214 0.302327 -1.54673 0
M  V30 8814 C 830.454 1.04568 -1.75627 0
M  V30 8815 C 830.818 1.84535 -0.530175 0
M  V30 8816 O 832.019 2.61613 -0.61743 0
M  V30 8817 C 830.29 1.92873 -3.0089 0
M  V30 8818 S 831.849 2.73872 -3.4284 0
M  V30 8819 H 828.667 0.352682 -0.617362 0
M  V30 8820 H 831.269 0.319239 -1.92876 0
M  V30 8821 H 829.973 1.32998 -3.88252 0
M  V30 8822 H 829.504 2.69887 -2.86225 0
M  V30 8823 H 831.519 3.95386 -2.99807 0
M  V30 8824 N 830.692 1.47107 0.565454 0
M  V30 8825 C 831.639 1.58974 1.6732 0
M  V30 8826 C 832.609 0.433146 1.60353 0
M  V30 8827 O 833.794 0.652141 1.79309 0
M  V30 8828 C 830.934 1.60224 3.05651 0
M  V30 8829 C 830.047 2.86741 3.23116 0
M  V30 8830 C 829.182 2.79381 4.51796 0
M  V30 8831 C 828.221 4.0076 4.62664 0
M  V30 8832 N 827.358 3.91685 5.8269 0
M  V30 8833 H 832.198 2.53588 1.56515 0
M  V30 8834 H 829.735 1.25791 0.762558 0
M  V30 8835 H 831.693 1.58933 3.85741 0
M  V30 8836 H 830.323 0.691285 3.15311 0
M  V30 8837 H 829.375 2.97936 2.36513 0
M  V30 8838 H 830.687 3.7665 3.27011 0
M  V30 8839 H 829.841 2.76293 5.40136 0
M  V30 8840 H 828.58 1.87142 4.50366 0
M  V30 8841 H 827.585 4.04162 3.72738 0
M  V30 8842 H 828.81 4.94117 4.6586 0
M  V30 8843 H 826.756 3.02243 5.82224 0
M  V30 8844 H 826.673 4.75264 5.87929 0
M  V30 8845 H 827.941 3.92599 6.73414 0
M  V30 8846 N 832.17 -0.811516 1.35101 0
M  V30 8847 C 833.133 -1.90467 1.27495 0
M  V30 8848 C 834.133 -1.59703 0.187516 0
M  V30 8849 O 835.323 -1.68528 0.440896 0
M  V30 8850 C 832.455 -3.26774 0.971154 0
M  V30 8851 H 833.648 -1.98631 2.2469 0
M  V30 8852 H 831.201 -1.00681 1.19553 0
M  V30 8853 H 831.936 -3.243 0.0028557 0
M  V30 8854 H 831.721 -3.50488 1.75785 0
M  V30 8855 H 833.211 -4.06804 0.943414 0
M  V30 8856 N 833.648 -1.19017 -1.03309 0
M  V30 8857 C 834.888 -1.00129 -1.78195 0
M  V30 8858 C 835.252 0.460236 -1.86402 0
M  V30 8859 O 836.453 0.768802 -2.57571 0
M  V30 8860 C 834.724 -1.64703 -3.17187 0
M  V30 8861 S 836.283 -1.60695 -4.08317 0
M  V30 8862 H 833.101 -0.359395 -0.613479 0
M  V30 8863 H 835.703 -1.51293 -1.23818 0
M  V30 8864 H 834.407 -2.70283 -3.08829 0
M  V30 8865 H 833.938 -1.136 -3.76641 0
M  V30 8866 H 835.953 -0.628171 -4.92208 0
M  V30 8867 N 835.127 1.22348 -0.993418 0
M  V30 8868 C 836.404 1.86632 -0.585495 0
M  V30 8869 C 836.784 1.89156 0.937187 0
M  V30 8870 O 836.132 1.38247 1.81934 0
M  V30 8871 C 836.342 3.27481 -1.20652 0
M  V30 8872 C 837.69 4.03971 -1.30738 0
M  V30 8873 O 838.714 3.3675 -1.16096 0
M  V30 8874 O 837.573 5.24302 -1.54173 0
M  V30 8875 H 834.667 0.802704 -0.198984 0
M  V30 8876 H 837.213 1.30122 -1.08933 0
M  V30 8877 H 835.985 3.20281 -2.24802 0
M  V30 8878 H 835.608 3.91597 -0.688312 0
M  V30 8879 N 836.605 0.766683 1.37694 0
M  V30 8880 C 837.535 0.163432 2.32927 0
M  V30 8881 C 838.516 -0.688861 1.55527 0
M  V30 8882 O 839.701 -0.627363 1.83787 0
M  V30 8883 C 836.831 -0.720416 3.39746 0
M  V30 8884 C 835.785 0.0301718 4.27989 0
M  V30 8885 C 835.111 -0.972788 5.25776 0
M  V30 8886 C 836.411 1.20623 5.0818 0
M  V30 8887 H 838.105 0.958988 2.83626 0
M  V30 8888 H 835.651 0.462601 1.36367 0
M  V30 8889 H 837.604 -1.15221 4.05342 0
M  V30 8890 H 836.328 -1.54844 2.8756 0
M  V30 8891 H 834.987 0.442685 3.63917 0
M  V30 8892 H 834.635 -1.79522 4.69873 0
M  V30 8893 H 834.335 -0.475145 5.85676 0
M  V30 8894 H 835.859 -1.40362 5.94248 0
M  V30 8895 H 837.273 0.851341 5.66944 0
M  V30 8896 H 835.67 1.63561 5.7738 0
M  V30 8897 H 836.74 2.01281 4.41151 0
M  V30 8898 N 838.083 -1.48885 0.516809 0
M  V30 8899 C 839.331 -2.02088 -0.0220166 0
M  V30 8900 C 839.652 -1.39735 -1.36011 0
M  V30 8901 O 838.922 -0.558119 -1.87781 0
M  V30 8902 H 837.502 -0.746917 -0.0111255 0
M  V30 8903 H 840.164 -1.8274 0.677647 0
M  V30 8904 H 839.26 -3.11786 -0.140067 0
M  V30 8905 N 839.561 -0.251338 -1.55583 0
M  V30 8906 C 840.807 0.365823 -2.00083 0
M  V30 8907 C 841.162 1.55242 -1.13656 0
M  V30 8908 O 840.455 1.90624 -0.193108 0
M  V30 8909 C 840.649 0.821186 -3.47838 0
M  V30 8910 C 840.478 -0.319746 -4.48562 0
M  V30 8911 C 839.248 -0.795866 -4.98993 0
M  V30 8912 C 841.446 -1.14825 -5.01318 0
M  V30 8913 N 839.428 -1.90875 -5.83472 0
M  V30 8914 C 840.799 -2.10943 -5.83012 0
M  V30 8915 C 842.854 -1.18431 -4.8361 0
M  V30 8916 C 841.557 -3.10383 -6.48888 0
M  V30 8917 C 843.583 -2.16703 -5.50267 0
M  V30 8918 C 842.945 -3.11557 -6.31753 0
M  V30 8919 H 839.044 0.0996971 -0.775619 0
M  V30 8920 H 841.628 -0.36993 -1.91153 0
M  V30 8921 H 839.799 1.52622 -3.57157 0
M  V30 8922 H 841.531 1.41367 -3.79206 0
M  V30 8923 H 838.286 -0.379242 -4.72079 0
M  V30 8924 H 838.71 -2.46808 -6.30408 0
M  V30 8925 H 843.352 -0.464824 -4.20237 0
M  V30 8926 H 841.07 -3.83277 -7.11424 0
M  V30 8927 H 844.656 -2.20204 -5.38518 0
M  V30 8928 H 843.536 -3.86357 -6.82421 0
M  V30 8929 N 841.039 1.57585 0.0217189 0
M  V30 8930 C 842.285 1.90733 0.706582 0
M  V30 8931 C 842.64 0.850732 1.7257 0
M  V30 8932 O 841.933 -0.139715 1.9109 0
M  V30 8933 C 842.127 3.28377 1.41079 0
M  V30 8934 C 841.956 4.47327 0.461395 0
M  V30 8935 C 840.726 5.05237 0.0797404 0
M  V30 8936 C 842.924 5.13626 -0.263302 0
M  V30 8937 N 840.906 6.07702 -0.870139 0
M  V30 8938 C 842.277 6.10722 -1.06859 0
M  V30 8939 C 844.332 4.96809 -0.329461 0
M  V30 8940 C 843.035 6.92813 -1.93397 0
M  V30 8941 C 845.061 5.79468 -1.18199 0
M  V30 8942 C 844.423 6.7614 -1.97519 0
M  V30 8943 H 840.522 0.74666 0.232427 0
M  V30 8944 H 843.106 1.94671 -0.0335228 0
M  V30 8945 H 841.277 3.25354 2.12131 0
M  V30 8946 H 843.009 3.49018 2.04862 0
M  V30 8947 H 839.764 4.71519 0.443498 0
M  V30 8948 H 840.188 6.6361 -1.33981 0
M  V30 8949 H 844.83 4.2194 0.269485 0
M  V30 8950 H 842.548 7.67022 -2.54369 0
M  V30 8951 H 846.134 5.68502 -1.23681 0
M  V30 8952 H 845.014 7.38989 -2.62421 0
M  V30 8953 N 842.517 -0.29412 1.54831 0
M  V30 8954 C 843.928 -0.866651 1.65366 0
M  V30 8955 C 844.279 -1.87834 0.56681 0
M  V30 8956 O 843.404 -2.14374 -0.295389 0
M  V30 8957 C 843.999 -1.57869 2.99771 0
M  V30 8958 C 842.558 -2.09954 3.12404 0
M  V30 8959 C 841.705 -0.934492 2.6108 0
M  V30 8960 H 844.656 -0.0709551 1.58541 0
M  V30 8961 H 844.677 -2.44462 2.91579 0
M  V30 8962 H 844.189 -0.84212 3.78853 0
M  V30 8963 H 842.29 -2.86637 2.38055 0
M  V30 8964 H 842.403 -2.32934 4.18663 0
M  V30 8965 H 840.767 -1.32199 2.17705 0
M  V30 8966 H 841.55 -0.211768 3.42646 0
M  V30 8967 N 843.995 -1.47404 -0.557645 0
M  V30 8968 C 844.943 -1.60265 -1.68576 0
M  V30 8969 C 845.937 -0.469982 -1.6275 0
M  V30 8970 O 847.143 -0.647764 -1.67941 0
M  V30 8971 H 843.518 -0.504353 -0.557792 0
M  V30 8972 H 845.489 -2.55066 -1.54867 0
M  V30 8973 C 844.238 -1.63369 -3.0693 0
M  V30 8974 H 843.561 -2.49874 -3.12095 0
M  V30 8975 H 845.001 -1.76417 -3.85556 0
M  V30 8976 C 843.46 -0.366921 -3.34896 0
M  V30 8977 O 843.99 0.53218 -3.98159 0
M  V30 8978 N 842.196 -0.247082 -2.89548 0
M  V30 8979 H 841.743 -0.979669 -2.38244 0
M  V30 8980 H 841.701 0.599552 -3.0863 0
M  V30 8981 N 845.473 0.80434 -1.35529 0
M  V30 8982 C 846.436 1.89788 -1.28503 0
M  V30 8983 C 847.436 1.59601 -0.195983 0
M  V30 8984 O 848.626 1.68292 -0.449827 0
M  V30 8985 C 845.758 3.26255 -0.98847 0
M  V30 8986 H 846.951 1.97436 -2.25741 0
M  V30 8987 H 844.504 1.00046 -1.20086 0
M  V30 8988 H 845.239 3.24294 -0.0200541 0
M  V30 8989 H 845.024 3.49551 -1.77641 0
M  V30 8990 H 846.514 4.06298 -0.964975 0
M  V30 8991 N 846.951 1.19563 1.02676 0
M  V30 8992 C 848.228 0.908857 1.73203 0
M  V30 8993 C 848.608 -0.584928 2.02834 0
M  V30 8994 O 847.956 -1.54372 1.68469 0
M  V30 8995 C 848.166 1.77105 3.00724 0
M  V30 8996 C 849.514 2.00667 3.7419 0
M  V30 8997 O 850.538 1.74274 3.10656 0
M  V30 8998 O 849.397 2.4518 4.88415 0
M  V30 8999 H 846.491 0.338909 0.754367 0
M  V30 9000 H 849.037 1.30387 1.08616 0
M  V30 9001 H 847.809 2.78303 2.7507 0
M  V30 9002 H 847.432 1.37546 3.73051 0
M  V30 9003 N 848.429 -1.21819 0.999893 0
M  V30 9004 C 849.359 -2.26282 0.576096 0
M  V30 9005 C 850.34 -1.65317 -0.400537 0
M  V30 9006 O 851.525 -1.92028 -0.28964 0
M  V30 9007 C 848.655 -3.47147 -0.103145 0
M  V30 9008 C 847.609 -4.20594 0.792745 0
M  V30 9009 C 846.935 -5.34696 -0.0198026 0
M  V30 9010 C 848.235 -4.78533 2.09293 0
M  V30 9011 H 849.929 -2.61984 1.4493 0
M  V30 9012 H 847.475 -1.25935 0.698316 0
M  V30 9013 H 849.428 -4.1939 -0.411068 0
M  V30 9014 H 848.152 -3.1056 -1.01094 0
M  V30 9015 H 846.811 -3.50194 1.08442 0
M  V30 9016 H 846.459 -4.94352 -0.928729 0
M  V30 9017 H 846.159 -5.84764 0.576661 0
M  V30 9018 H 847.683 -6.09752 -0.321659 0
M  V30 9019 H 849.097 -5.42682 1.8485 0
M  V30 9020 H 847.494 -5.38968 2.63881 0
M  V30 9021 H 848.564 -3.98197 2.76708 0
M  V30 9022 N 849.908 -0.773975 -1.37286 0
M  V30 9023 C 851.136 -0.350758 -2.03905 0
M  V30 9024 C 851.551 1.02779 -1.58373 0
M  V30 9025 O 850.908 1.65646 -0.766009 0
M  V30 9026 C 850.959 -0.387335 -3.59419 0
M  V30 9027 O 850.68 -1.7115 -4.03286 0
M  V30 9028 C 852.181 0.047198 -4.43275 0
M  V30 9029 H 849.401 -0.146663 -0.654775 0
M  V30 9030 H 851.945 -1.04852 -1.75574 0
M  V30 9031 H 850.1 0.261865 -3.86514 0
M  V30 9032 H 850.514 -1.65166 -4.97816 0
M  V30 9033 H 851.988 -0.0295474 -5.51992 0
M  V30 9034 H 852.465 1.09786 -4.25257 0
M  V30 9035 H 853.071 -0.573899 -4.2141 0
M  V30 9036 N 851.386 1.48609 -0.524698 0
M  V30 9037 C 852.634 2.02097 0.0112991 0
M  V30 9038 C 852.955 1.40455 1.35268 0
M  V30 9039 O 852.225 0.56807 1.87483 0
M  V30 9040 H 850.805 0.746966 0.00716426 0
M  V30 9041 H 853.467 1.82378 -0.687329 0
M  V30 9042 H 852.563 3.11855 0.123531 0
M  V30 9043 N 852.864 0.259585 1.55447 0
M  V30 9044 C 854.104 -0.362989 2.01151 0
M  V30 9045 C 854.468 -1.54201 1.14394 0
M  V30 9046 O 855.669 -2.23318 1.49608 0
M  V30 9047 C 853.94 -0.750399 3.49434 0
M  V30 9048 S 855.499 -1.3617 4.17137 0
M  V30 9049 H 852.317 -0.11365 0.701858 0
M  V30 9050 H 854.919 0.377788 1.91815 0
M  V30 9051 H 853.623 0.116807 4.10234 0
M  V30 9052 H 853.154 -1.52303 3.62722 0
M  V30 9053 H 855.169 -2.65059 4.19474 0
M  V30 9054 N 854.342 -1.57594 -0.0133615 0
M  V30 9055 C 855.252 -2.10991 -1.02566 0
M  V30 9056 C 856.268 -1.05208 -1.3859 0
M  V30 9057 O 857.444 -1.37034 -1.47593 0
M  V30 9058 C 854.509 -2.59165 -2.30292 0
M  V30 9059 C 853.57 -3.79495 -2.00704 0
M  V30 9060 C 852.803 -4.25361 -3.22341 0
M  V30 9061 O 853.026 -3.70645 -4.33565 0
M  V30 9062 O 851.96 -5.17649 -3.07121 0
M  V30 9063 H 855.786 -2.97678 -0.601806 0
M  V30 9064 H 853.371 -1.47598 -0.23135 0
M  V30 9065 H 855.253 -2.90409 -3.05354 0
M  V30 9066 H 853.928 -1.75582 -2.71942 0
M  V30 9067 H 852.835 -3.53245 -1.23161 0
M  V30 9068 H 854.168 -4.64109 -1.639 0
M  V30 9069 N 855.82 0.285905 -1.54985 0
M  V30 9070 C 857.231 0.857869 -1.65824 0
M  V30 9071 C 857.582 1.87531 -0.576763 0
M  V30 9072 O 856.707 2.14528 0.284016 0
M  V30 9073 C 857.302 1.56277 -3.00604 0
M  V30 9074 C 855.861 2.08294 -3.13513 0
M  V30 9075 C 855.008 0.920633 -2.61571 0
M  V30 9076 H 857.959 0.0625463 -1.58577 0
M  V30 9077 H 857.98 2.42912 -2.92872 0
M  V30 9078 H 857.492 0.822017 -3.79295 0
M  V30 9079 H 855.593 2.8537 -2.39572 0
M  V30 9080 H 855.706 2.3071 -4.19892 0
M  V30 9081 H 854.07 1.31043 -2.18403 0
M  V30 9082 H 854.853 0.193594 -3.42754 0
M  V30 9083 N 857.298 1.47698 0.54982 0
M  V30 9084 C 858.547 1.53961 1.30303 0
M  V30 9085 C 858.86 0.209731 1.94472 0
M  V30 9086 O 860.066 0.150418 2.71083 0
M  V30 9087 C 858.522 2.71436 2.36328 0
M  V30 9088 C 858.13 4.10983 1.78316 0
M  V30 9089 C 859.874 2.86996 3.12783 0
M  V30 9090 C 857.781 5.19747 2.82164 0
M  V30 9091 H 856.711 0.573098 0.489975 0
M  V30 9092 H 859.362 1.73989 0.583089 0
M  V30 9093 H 857.744 2.44801 3.11269 0
M  V30 9094 H 858.918 4.47552 1.09697 0
M  V30 9095 H 857.233 4.00371 1.1442 0
M  V30 9096 H 859.83 3.65422 3.90347 0
M  V30 9097 H 860.173 1.95712 3.67427 0
M  V30 9098 H 860.706 3.13436 2.44954 0
M  V30 9099 H 857.445 6.12932 2.32366 0
M  V30 9100 H 856.965 4.87688 3.49171 0
M  V30 9101 H 858.644 5.47014 3.4552 0
M  V30 9102 N 858.776 -0.797141 1.35954 0
M  V30 9103 C 860.187 -1.37179 1.26644 0
M  V30 9104 C 860.538 -1.9596 -0.0971046 0
M  V30 9105 O 859.663 -1.91994 -0.998355 0
M  V30 9106 C 860.258 -2.49395 2.2932 0
M  V30 9107 C 858.817 -3.02697 2.23722 0
M  V30 9108 C 857.964 -1.75721 2.14517 0
M  V30 9109 H 860.915 -0.599407 1.46945 0
M  V30 9110 H 860.936 -3.28204 1.92515 0
M  V30 9111 H 860.448 -2.06584 3.2855 0
M  V30 9112 H 858.549 -3.49948 1.27934 0
M  V30 9113 H 858.662 -3.60036 3.16087 0
M  V30 9114 H 857.026 -1.97649 1.60646 0
M  V30 9115 H 857.809 -1.35049 3.15621 0
M  V30 9116 N 860.254 -1.20106 -1.0204 0
M  V30 9117 C 861.5 -1.01039 -1.75838 0
M  V30 9118 C 861.833 0.456819 -1.88751 0
M  V30 9119 O 861.108 1.33919 -1.41053 0
M  V30 9120 C 861.391 -1.69009 -3.17975 0
M  V30 9121 C 861.244 -3.2315 -3.1288 0
M  V30 9122 C 862.563 -1.42005 -4.16561 0
M  V30 9123 H 859.682 -0.368465 -0.638281 0
M  V30 9124 H 862.324 -1.48066 -1.19064 0
M  V30 9125 H 860.474 -1.29026 -3.66449 0
M  V30 9126 H 862.146 -3.72402 -2.72239 0
M  V30 9127 H 860.389 -3.54253 -2.50374 0
M  V30 9128 H 861.06 -3.65862 -4.13339 0
M  V30 9129 H 863.536 -1.76685 -3.76725 0
M  V30 9130 H 862.412 -1.92101 -5.14187 0
M  V30 9131 H 862.673 -0.346884 -4.40737 0
M  V30 9132 N 861.732 1.21287 -1.00634 0
M  V30 9133 C 863.148 1.42467 -0.719389 0
M  V30 9134 C 863.348 1.88767 0.704927 0
M  V30 9135 O 862.404 2.05004 1.47409 0
M  V30 9136 C 863.717 2.455 -1.73639 0
M  V30 9137 C 865.265 2.59281 -1.75335 0
M  V30 9138 C 865.74 3.65547 -2.75934 0
M  V30 9139 N 867.231 3.73019 -2.74611 0
M  V30 9140 C 867.966 4.54873 -3.4911 0
M  V30 9141 N 867.462 5.40614 -4.33253 0
M  V30 9142 N 869.255 4.49309 -3.37754 0
M  V30 9143 H 861.406 0.895454 -1.92602 0
M  V30 9144 H 863.669 0.455491 -0.831404 0
M  V30 9145 H 863.375 2.18455 -2.75627 0
M  V30 9146 H 863.249 3.44325 -1.54014 0
M  V30 9147 H 865.636 2.85661 -0.740377 0
M  V30 9148 H 865.717 1.60685 -1.99032 0
M  V30 9149 H 865.361 3.39911 -3.77389 0
M  V30 9150 H 865.291 4.63741 -2.49503 0
M  V30 9151 H 867.782 3.11766 -2.13565 0
M  V30 9152 H 868.095 6.0013 -4.86892 0
M  V30 9153 H 866.44 5.40151 -4.37335 0
M  V30 9154 H 869.631 3.81357 -2.71449 0
M  V30 9155 H 869.804 5.12867 -3.9607 0
M  V30 9156 N 863.21 0.781244 1.36873 0
M  V30 9157 C 864.44 0.361042 2.03421 0
M  V30 9158 C 864.848 -1.02471 1.59048 0
M  V30 9159 O 864.191 -1.66712 0.771552 0
M  V30 9160 C 864.253 0.336202 3.57924 0
M  V30 9161 C 863.917 1.66815 4.25467 0
M  V30 9162 C 864.914 2.62224 4.48926 0
M  V30 9163 C 862.599 1.9452 4.63106 0
M  V30 9164 C 864.593 3.83538 5.09095 0
M  V30 9165 C 862.28 3.16103 5.22994 0
M  V30 9166 C 863.278 4.10431 5.45926 0
M  V30 9167 O 862.966 5.29871 6.04559 0
M  V30 9168 H 862.698 0.147956 0.65961 0
M  V30 9169 H 865.252 1.05895 1.75998 0
M  V30 9170 H 863.482 -0.418147 3.84433 0
M  V30 9171 H 865.171 -0.0582199 4.05858 0
M  V30 9172 H 865.937 2.42104 4.20251 0
M  V30 9173 H 861.816 1.21921 4.44585 0
M  V30 9174 H 865.36 4.57178 5.2691 0
M  V30 9175 H 861.257 3.36104 5.51094 0
M  V30 9176 H 862.025 5.30825 6.23031 0
M  V30 9177 N 864.689 -1.48329 0.532571 0
M  V30 9178 C 865.619 -2.32485 -0.217511 0
M  V30 9179 C 866.6 -1.42255 -0.932598 0
M  V30 9180 O 867.785 -1.7114 -0.917873 0
M  V30 9181 C 864.915 -3.23509 -1.26329 0
M  V30 9182 C 863.869 -4.22784 -0.666191 0
M  V30 9183 C 863.195 -5.0296 -1.81482 0
M  V30 9184 C 864.495 -5.21031 0.363813 0
M  V30 9185 H 866.189 -2.95445 0.485014 0
M  V30 9186 H 863.735 -1.42075 0.234694 0
M  V30 9187 H 865.688 -3.81211 -1.79601 0
M  V30 9188 H 864.412 -2.58554 -1.99543 0
M  V30 9189 H 863.071 -3.66272 -0.15498 0
M  V30 9190 H 862.719 -4.34427 -2.5354 0
M  V30 9191 H 862.419 -5.70154 -1.4212 0
M  V30 9192 H 863.943 -5.63514 -2.35126 0
M  V30 9193 H 865.357 -5.73241 -0.0819079 0
M  V30 9194 H 863.754 -5.96292 0.674956 0
M  V30 9195 H 864.824 -4.6801 1.26865 0
M  V30 9196 N 866.167 -0.267825 -1.55308 0
M  V30 9197 C 867.077 0.633055 -2.25897 0
M  V30 9198 C 868.093 1.17613 -1.28231 0
M  V30 9199 O 869.269 1.20797 -1.61153 0
M  V30 9200 C 866.334 1.80397 -2.96071 0
M  V30 9201 C 865.395 1.29829 -4.09198 0
M  V30 9202 C 864.628 2.4134 -4.76016 0
M  V30 9203 O 864.851 3.60537 -4.42006 0
M  V30 9204 O 863.785 2.09909 -5.64111 0
M  V30 9205 H 867.611 0.0614381 -3.03638 0
M  V30 9206 H 865.196 -0.0355072 -1.49358 0
M  V30 9207 H 867.078 2.48685 -3.40197 0
M  V30 9208 H 865.753 2.36281 -2.21253 0
M  V30 9209 H 864.66 0.582086 -3.69544 0
M  V30 9210 H 865.993 0.785288 -4.85895 0
M  V30 9211 N 867.645 1.57599 0.00500368 0
M  V30 9212 C 868.891 1.91471 0.686313 0
M  V30 9213 C 869.246 0.868988 1.71658 0
M  V30 9214 O 868.539 -0.11944 1.91227 0
M  V30 9215 C 868.733 3.29855 1.37588 0
M  V30 9216 C 868.562 4.47791 0.413924 0
M  V30 9217 C 867.332 5.05293 0.0261488 0
M  V30 9218 C 869.53 5.13317 -0.317764 0
M  V30 9219 N 867.512 6.06745 -0.934545 0
M  V30 9220 C 868.883 6.09554 -1.13331 0
M  V30 9221 C 870.938 4.96431 -0.382136 0
M  V30 9222 C 869.641 6.90723 -2.00735 0
M  V30 9223 C 871.667 5.78182 -1.24339 0
M  V30 9224 C 871.029 6.74007 -2.04679 0
M  V30 9225 H 867.128 0.749083 0.224495 0
M  V30 9226 H 869.712 1.94625 -0.0541684 0
M  V30 9227 H 867.883 3.27585 2.08668 0
M  V30 9228 H 869.615 3.51171 2.01149 0
M  V30 9229 H 866.37 4.71963 0.393462 0
M  V30 9230 H 866.794 6.62152 -1.41012 0
M  V30 9231 H 871.436 4.22202 0.224718 0
M  V30 9232 H 869.154 7.64281 -2.6249 0
M  V30 9233 H 872.74 5.67158 -1.29704 0
M  V30 9234 H 871.62 7.36164 -2.70244 0
M  V30 9235 N 869.123 -0.277682 1.55134 0
M  V30 9236 C 870.348 -1.03254 1.7987 0
M  V30 9237 C 870.773 -1.79324 0.567861 0
M  V30 9238 O 870.131 -1.74764 -0.4824 0
M  V30 9239 C 870.179 -1.9705 3.02 0
M  V30 9240 O 869.283 -3.05744 2.76757 0
M  V30 9241 H 868.624 -0.295447 0.594649 0
M  V30 9242 H 871.154 -0.308013 2.02268 0
M  V30 9243 H 871.164 -2.3909 3.30606 0
M  V30 9244 H 869.839 -1.41094 3.91236 0
M  V30 9245 H 868.416 -2.68052 2.59235 0
M  V30 9246 N 870.601 -1.47988 -0.541979 0
M  V30 9247 C 871.549 -1.62044 -1.66867 0
M  V30 9248 C 872.543 -0.487217 -1.62242 0
M  V30 9249 O 873.749 -0.66554 -1.67244 0
M  V30 9250 H 870.124 -0.51024 -0.552412 0
M  V30 9251 H 872.095 -2.56695 -1.52153 0
M  V30 9252 C 870.844 -1.66615 -3.0518 0
M  V30 9253 H 870.167 -2.5317 -3.09427 0
M  V30 9254 H 871.607 -1.80496 -3.83663 0
M  V30 9255 C 870.066 -0.402421 -3.34488 0
M  V30 9256 O 870.596 0.48992 -3.98701 0
M  V30 9257 N 868.802 -0.277778 -2.89269 0
M  V30 9258 H 868.349 -1.00488 -2.37192 0
M  V30 9259 H 868.307 0.566784 -3.09249 0
M  V30 9260 N 872.079 0.78992 -1.36375 0
M  V30 9261 C 873.328 1.54296 -1.29906 0
M  V30 9262 C 873.641 1.95234 0.119651 0
M  V30 9263 O 874.847 2.69762 0.306708 0
M  V30 9264 C 873.303 2.78533 -2.27919 0
M  V30 9265 C 872.911 2.44767 -3.75224 0
M  V30 9266 C 874.655 3.56516 -2.30427 0
M  V30 9267 C 872.562 3.65397 -4.65015 0
M  V30 9268 H 871.492 0.579214 -0.482729 0
M  V30 9269 H 874.143 0.866845 -1.61735 0
M  V30 9270 H 872.525 3.47941 -1.89084 0
M  V30 9271 H 873.699 1.83259 -4.22792 0
M  V30 9272 H 872.014 1.79996 -3.75487 0
M  V30 9273 H 874.611 4.46143 -2.94722 0
M  V30 9274 H 874.954 3.95063 -1.31266 0
M  V30 9275 H 875.487 2.94087 -2.67876 0
M  V30 9276 H 872.226 3.31946 -5.65236 0
M  V30 9277 H 871.746 4.26072 -4.22164 0
M  V30 9278 H 873.425 4.32431 -4.81261 0
M  V30 9279 N 873.557 1.20646 1.01402 0
M  V30 9280 C 874.467 0.973385 2.13453 0
M  V30 9281 C 875.483 -0.0715865 1.73853 0
M  V30 9282 O 876.659 0.116438 2.01063 0
M  V30 9283 C 873.724 0.531285 3.42605 0
M  V30 9284 C 872.785 1.64741 3.96433 0
M  V30 9285 C 872.018 1.22631 5.1942 0
M  V30 9286 O 872.241 0.0960891 5.70319 0
M  V30 9287 O 871.175 2.03474 5.66465 0
M  V30 9288 H 875.001 1.91164 2.35987 0
M  V30 9289 H 872.586 0.990553 1.11841 0
M  V30 9290 H 874.468 0.294095 4.20373 0
M  V30 9291 H 873.143 -0.378358 3.21481 0
M  V30 9292 H 872.05 1.93891 3.19933 0
M  V30 9293 H 873.383 2.53415 4.2195 0
M  V30 9294 N 875.035 -1.20752 1.01276 0
M  V30 9295 C 876.26 -1.94547 0.718769 0
M  V30 9296 C 876.685 -1.7404 -0.713563 0
M  V30 9297 O 876.043 -1.03221 -1.49047 0
M  V30 9298 C 876.091 -3.44823 1.05497 0
M  V30 9299 O 875.195 -4.12072 0.164516 0
M  V30 9300 H 874.536 -0.607931 0.267051 0
M  V30 9301 H 877.066 -1.53292 1.35509 0
M  V30 9302 H 877.076 -3.95427 1.00507 0
M  V30 9303 H 875.751 -3.59072 2.09858 0
M  V30 9304 H 874.328 -3.71909 0.271615 0
M  V30 9305 N 876.513 -0.788492 -1.36457 0
M  V30 9306 C 877.762 -0.357052 -1.98515 0
M  V30 9307 C 878.075 1.0769 -1.63285 0
M  V30 9308 O 879.281 1.61057 -2.1857 0
M  V30 9309 C 877.737 -0.587449 -3.55073 0
M  V30 9310 C 877.345 -2.03276 -3.99228 0
M  V30 9311 C 879.089 -0.220468 -4.23927 0
M  V30 9312 C 876.996 -2.20987 -5.48561 0
M  V30 9313 H 875.926 -0.129762 -0.74275 0
M  V30 9314 H 878.577 -0.969995 -1.55767 0
M  V30 9315 H 876.959 0.0951918 -3.95886 0
M  V30 9316 H 878.133 -2.75173 -3.69617 0
M  V30 9317 H 876.448 -2.3579 -3.43208 0
M  V30 9318 H 879.045 -0.331085 -5.33674 0
M  V30 9319 H 879.388 0.831306 -4.07915 0
M  V30 9320 H 879.921 -0.856309 -3.88474 0
M  V30 9321 H 876.66 -3.24543 -5.69519 0
M  V30 9322 H 876.18 -1.53594 -5.79801 0
M  V30 9323 H 877.859 -2.01656 -6.14771 0
M  V30 9324 N 877.991 1.48044 -0.54043 0
M  V30 9325 C 879.24 2.01698 -0.00809961 0
M  V30 9326 C 879.553 1.42184 1.34325 0
M  V30 9327 O 880.759 1.87398 1.96454 0
M  V30 9328 C 879.215 3.59882 0.035933 0
M  V30 9329 C 878.823 4.28384 -1.31115 0
M  V30 9330 C 880.567 4.21346 0.51654 0
M  V30 9331 C 878.474 5.78529 -1.22714 0
M  V30 9332 H 877.404 0.754 0.000742174 0
M  V30 9333 H 880.055 1.70204 -0.685775 0
M  V30 9334 H 878.437 3.88264 0.778906 0
M  V30 9335 H 879.611 4.11663 -2.07051 0
M  V30 9336 H 877.926 3.78837 -1.72834 0
M  V30 9337 H 880.523 5.31351 0.597529 0
M  V30 9338 H 880.866 3.87373 1.52473 0
M  V30 9339 H 881.399 3.97432 -0.171064 0
M  V30 9340 H 878.138 6.17093 -2.21081 0
M  V30 9341 H 877.658 5.97634 -0.50931 0
M  V30 9342 H 879.337 6.40395 -0.92216 0
M  V30 9343 N 879.47 0.276058 1.55163 0
M  V30 9344 C 880.433 -0.597924 2.21263 0
M  V30 9345 C 881.433 -1.0806 1.19078 0
M  V30 9346 O 882.623 -0.980626 1.43977 0
M  V30 9347 C 879.755 -1.82503 2.87933 0
M  V30 9348 H 880.948 -0.0207769 2.99893 0
M  V30 9349 H 878.501 0.0266823 1.56277 0
M  V30 9350 H 879.236 -2.44266 2.13318 0
M  V30 9351 H 879.021 -1.48683 3.62816 0
M  V30 9352 H 880.511 -2.44651 3.38431 0
M  V30 9353 N 880.948 -1.576 0.00335426 0
M  V30 9354 C 882.197 -1.89892 -0.680001 0
M  V30 9355 C 882.51 -0.878731 -1.7475 0
M  V30 9356 O 883.716 -1.09199 -2.48572 0
M  V30 9357 C 882.172 -3.37098 -1.26066 0
M  V30 9358 C 881.78 -4.4742 -0.227807 0
M  V30 9359 C 883.524 -3.78495 -1.92202 0
M  V30 9360 C 881.431 -5.85706 -0.81865 0
M  V30 9361 H 880.361 -0.708578 -0.257746 0
M  V30 9362 H 883.012 -1.83387 0.0644472 0
M  V30 9363 H 881.394 -3.38451 -2.05589 0
M  V30 9364 H 882.568 -4.57589 0.54307 0
M  V30 9365 H 880.883 -4.15064 0.333297 0
M  V30 9366 H 883.48 -4.7915 -2.37318 0
M  V30 9367 H 883.823 -3.12187 -2.75399 0
M  V30 9368 H 884.356 -3.79456 -1.19408 0
M  V30 9369 H 881.095 -6.55495 -0.0253787 0
M  V30 9370 H 880.615 -5.79196 -1.55861 0
M  V30 9371 H 882.294 -6.33469 -1.31627 0
M  V30 9372 N 882.426 0.269451 -1.5528 0
M  V30 9373 C 883.389 1.31642 -1.87625 0
M  V30 9374 C 884.389 1.42182 -0.751058 0
M  V30 9375 O 885.579 1.41272 -1.01921 0
M  V30 9376 C 882.711 2.6973 -2.08467 0
M  V30 9377 H 883.904 1.0419 -2.81219 0
M  V30 9378 H 881.457 0.507685 -1.47825 0
M  V30 9379 H 882.192 3.02356 -1.17266 0
M  V30 9380 H 881.977 2.63465 -2.90394 0
M  V30 9381 H 883.467 3.4537 -2.34753 0
M  V30 9382 N 883.904 1.48273 0.534124 0
M  V30 9383 C 885.151 1.56079 1.29017 0
M  V30 9384 C 885.479 0.232912 1.931 0
M  V30 9385 O 884.734 -0.77642 1.79639 0
M  V30 9386 C 885.033 2.64468 2.40398 0
M  V30 9387 C 884.699 4.07034 1.93995 0
M  V30 9388 C 883.361 4.45838 1.81058 0
M  V30 9389 C 885.713 4.96395 1.58877 0
M  V30 9390 C 883.041 5.71812 1.31331 0
M  V30 9391 C 885.393 6.22854 1.10614 0
M  V30 9392 C 884.057 6.60518 0.962895 0
M  V30 9393 H 883.327 0.571135 0.472108 0
M  V30 9394 H 885.974 1.81973 0.5965 0
M  V30 9395 H 884.279 2.32419 3.15418 0
M  V30 9396 H 885.976 2.67725 2.98537 0
M  V30 9397 H 882.566 3.76387 2.05015 0
M  V30 9398 H 886.75 4.67096 1.67734 0
M  V30 9399 H 882.006 5.99722 1.18924 0
M  V30 9400 H 886.18 6.91495 0.825095 0
M  V30 9401 H 883.807 7.58019 0.575369 0
M  V30 9402 N 885.382 -0.782676 1.36792 0
M  V30 9403 C 886.607 -1.57676 1.34733 0
M  V30 9404 C 887.032 -1.87979 -0.0675253 0
M  V30 9405 O 886.39 -1.48404 -1.04144 0
M  V30 9406 C 886.438 -2.87047 2.18257 0
M  V30 9407 O 885.542 -3.80946 1.57969 0
M  V30 9408 H 884.883 -0.478034 0.460846 0
M  V30 9409 H 887.413 -0.969578 1.80168 0
M  V30 9410 H 887.423 -3.36254 2.31079 0
M  V30 9411 H 886.098 -2.64319 3.21104 0
M  V30 9412 H 884.675 -3.39558 1.54126 0
M  V30 9413 N 886.86 -1.21182 -1.00761 0
M  V30 9414 C 888.1 -1.03886 -1.76031 0
M  V30 9415 C 888.464 0.420593 -1.87337 0
M  V30 9416 O 889.665 0.713994 -2.59144 0
M  V30 9417 C 887.936 -1.71394 -3.13622 0
M  V30 9418 S 889.495 -1.69319 -4.04816 0
M  V30 9419 H 886.313 -0.372327 -0.605717 0
M  V30 9420 H 888.915 -1.53885 -1.20581 0
M  V30 9421 H 887.619 -2.76773 -3.03026 0
M  V30 9422 H 887.15 -1.21564 -3.74147 0
M  V30 9423 H 889.165 -0.732434 -4.90765 0
M  V30 9424 N 888.338 1.20213 -1.01915 0
M  V30 9425 C 889.268 2.25336 -0.612023 0
M  V30 9426 C 890.249 1.65933 0.374186 0
M  V30 9427 O 891.434 1.92464 0.259053 0
M  V30 9428 C 888.564 3.47267 0.047904 0
M  V30 9429 C 887.518 4.1928 -0.859557 0
M  V30 9430 C 886.844 5.3466 -0.0652655 0
M  V30 9431 C 888.144 4.75143 -2.1688 0
M  V30 9432 H 889.838 2.59645 -1.49079 0
M  V30 9433 H 887.384 1.24808 -0.718263 0
M  V30 9434 H 889.337 4.19991 0.344294 0
M  V30 9435 H 888.061 3.12129 0.961404 0
M  V30 9436 H 886.72 3.48425 -1.13999 0
M  V30 9437 H 886.368 4.95767 0.849964 0
M  V30 9438 H 886.068 5.83772 -0.669618 0
M  V30 9439 H 887.592 6.10187 0.224612 0
M  V30 9440 H 889.006 5.39672 -1.9346 0
M  V30 9441 H 887.403 5.34702 -2.72422 0
M  V30 9442 H 888.473 3.93744 -2.83008 0
M  V30 9443 N 889.816 0.795718 1.36037 0
M  V30 9444 C 891.064 0.370291 1.98679 0
M  V30 9445 C 891.385 -1.06332 1.63458 0
M  V30 9446 O 890.655 -1.73394 0.911671 0
M  V30 9447 H 889.235 0.133928 0.734896 0
M  V30 9448 H 891.897 1.01915 1.6613 0
M  V30 9449 H 890.993 0.467207 3.08583 0
M  V30 9450 N 891.294 -1.47756 0.548274 0
M  V30 9451 C 892.543 -2.01691 0.0187961 0
M  V30 9452 C 892.856 -1.42894 -1.33569 0
M  V30 9453 O 894.062 -1.88438 -1.95457 0
M  V30 9454 C 892.518 -3.59896 -0.016847 0
M  V30 9455 C 892.126 -4.27683 1.33385 0
M  V30 9456 C 893.87 -4.21614 -0.494188 0
M  V30 9457 C 891.777 -5.7787 1.2578 0
M  V30 9458 H 890.707 -0.753993 0.00325648 0
M  V30 9459 H 893.358 -1.69838 0.694792 0
M  V30 9460 H 891.74 -3.88672 -0.758304 0
M  V30 9461 H 892.914 -4.10559 2.09232 0
M  V30 9462 H 891.229 -3.77915 1.7484 0
M  V30 9463 H 893.826 -5.3166 -0.569342 0
M  V30 9464 H 894.169 -3.88176 -1.50417 0
M  V30 9465 H 894.702 -3.97336 0.192138 0
M  V30 9466 H 891.441 -6.15912 2.2435 0
M  V30 9467 H 890.961 -5.97355 0.540997 0
M  V30 9468 H 892.64 -6.39897 0.956109 0
M  V30 9469 N 892.772 -0.284283 -1.55015 0
M  V30 9470 C 893.702 0.592663 -2.25853 0
M  V30 9471 C 894.683 1.15151 -1.25197 0
M  V30 9472 O 895.868 1.18395 -1.53936 0
M  V30 9473 C 892.998 1.77254 -2.98661 0
M  V30 9474 C 891.952 1.34482 -4.06323 0
M  V30 9475 C 891.278 2.60853 -4.66754 0
M  V30 9476 C 892.578 0.488288 -5.20013 0
M  V30 9477 H 894.272 0.00187041 -2.994 0
M  V30 9478 H 891.818 -0.000540402 -1.44 0
M  V30 9479 H 893.771 2.39199 -3.46932 0
M  V30 9480 H 892.495 2.38931 -2.22664 0
M  V30 9481 H 891.154 0.748519 -3.58877 0
M  V30 9482 H 890.802 3.20808 -3.87416 0
M  V30 9483 H 890.502 2.32942 -5.39455 0
M  V30 9484 H 892.026 3.23631 -5.1778 0
M  V30 9485 H 893.44 1.01298 -5.6428 0
M  V30 9486 H 891.837 0.303669 -5.99331 0
M  V30 9487 H 892.907 -0.490727 -4.8241 0
M  V30 9488 N 894.251 1.57596 -0.0117121 0
M  V30 9489 C 895.497 1.91355 0.671661 0
M  V30 9490 C 895.83 0.886818 1.72769 0
M  V30 9491 O 895.105 -0.0928813 1.94278 0
M  V30 9492 C 895.388 3.35657 1.30409 0
M  V30 9493 C 895.241 4.49055 0.2588 0
M  V30 9494 C 896.56 3.79595 2.22701 0
M  V30 9495 H 893.679 0.695893 0.242698 0
M  V30 9496 H 896.321 1.89887 -0.0654071 0
M  V30 9497 H 894.471 3.37038 1.9323 0
M  V30 9498 H 896.143 4.59809 -0.370631 0
M  V30 9499 H 894.386 4.31785 -0.417672 0
M  V30 9500 H 895.057 5.4701 0.740578 0
M  V30 9501 H 897.533 3.7984 1.69885 0
M  V30 9502 H 896.409 4.81292 2.63912 0
M  V30 9503 H 896.67 3.14118 3.11098 0
M  V30 9504 N 895.729 -0.261212 1.5542 0
M  V30 9505 C 896.957 -1.00916 1.8062 0
M  V30 9506 C 897.372 -1.79494 0.585444 0
M  V30 9507 O 896.729 -1.76974 -0.445702 0
M  V30 9508 C 896.78 -1.95841 3.03856 0
M  V30 9509 O 896.501 -1.20445 4.21218 0
M  V30 9510 C 898.002 -2.82352 3.41749 0
M  V30 9511 H 895.222 -0.297596 0.601397 0
M  V30 9512 H 897.766 -0.288427 2.02456 0
M  V30 9513 H 895.921 -2.63361 2.84112 0
M  V30 9514 H 896.335 -1.84528 4.90968 0
M  V30 9515 H 897.809 -3.44733 4.31118 0
M  V30 9516 H 898.286 -3.5273 2.61683 0
M  V30 9517 H 898.892 -2.20306 3.63793 0
M  V30 9518 N 897.207 -1.48554 -0.526253 0
M  V30 9519 C 898.137 -1.66252 -1.63959 0
M  V30 9520 C 899.118 -0.511351 -1.62232 0
M  V30 9521 O 900.303 -0.744322 -1.7937 0
M  V30 9522 C 897.433 -1.70556 -3.02536 0
M  V30 9523 C 896.387 -2.8521 -3.19123 0
M  V30 9524 C 895.713 -2.74606 -4.58798 0
M  V30 9525 C 897.013 -4.26463 -3.0154 0
M  V30 9526 H 898.707 -2.59459 -1.49404 0
M  V30 9527 H 896.253 -1.24862 -0.717326 0
M  V30 9528 H 898.206 -1.81524 -3.80298 0
M  V30 9529 H 896.93 -0.739297 -3.18123 0
M  V30 9530 H 895.589 -2.73802 -2.43779 0
M  V30 9531 H 895.237 -1.75941 -4.71226 0
M  V30 9532 H 894.937 -3.51544 -4.70841 0
M  V30 9533 H 896.461 -2.87548 -5.38655 0
M  V30 9534 H 897.875 -4.38685 -3.69091 0
M  V30 9535 H 896.272 -5.04428 -3.25073 0
M  V30 9536 H 897.342 -4.42667 -1.97925 0
M  V30 9537 N 898.685 0.775411 -1.37205 0
M  V30 9538 C 899.932 1.53384 -1.32211 0
M  V30 9539 C 900.26 1.9427 0.0944958 0
M  V30 9540 O 899.515 1.64059 1.06692 0
M  V30 9541 C 899.814 2.81377 -2.20367 0
M  V30 9542 C 899.48 2.59561 -3.68699 0
M  V30 9543 C 898.142 2.53319 -4.09124 0
M  V30 9544 C 900.494 2.39939 -4.62686 0
M  V30 9545 C 897.822 2.25442 -5.41658 0
M  V30 9546 C 900.174 2.13586 -5.95453 0
M  V30 9547 C 898.838 2.05786 -6.34987 0
M  V30 9548 H 898.108 0.561271 -0.483793 0
M  V30 9549 H 900.755 0.893466 -1.6938 0
M  V30 9550 H 899.06 3.49954 -1.76181 0
M  V30 9551 H 900.757 3.39238 -2.13819 0
M  V30 9552 H 897.347 2.6528 -3.36637 0
M  V30 9553 H 901.531 2.43753 -4.32317 0
M  V30 9554 H 896.787 2.17896 -5.71254 0
M  V30 9555 H 900.961 1.97401 -6.67837 0
M  V30 9556 H 898.588 1.83948 -7.37609 0
M  V30 9557 N 900.163 1.21714 1.00117 0
M  V30 9558 C 901.409 1.03823 1.74208 0
M  V30 9559 C 901.742 -0.426733 1.89454 0
M  V30 9560 O 901.017 -1.31658 1.43166 0
M  V30 9561 C 901.3 1.74047 3.15246 0
M  V30 9562 C 901.153 3.28087 3.077 0
M  V30 9563 C 902.472 1.48614 4.14249 0
M  V30 9564 H 899.591 0.378573 0.632338 0
M  V30 9565 H 902.233 1.49942 1.16694 0
M  V30 9566 H 900.383 1.3484 3.64349 0
M  V30 9567 H 902.055 3.76686 2.6628 0
M  V30 9568 H 900.298 3.58191 2.44707 0
M  V30 9569 H 900.969 3.72392 4.07466 0
M  V30 9570 H 903.445 1.82656 3.73866 0
M  V30 9571 H 902.321 2.00257 5.11066 0
M  V30 9572 H 902.582 0.416957 4.40129 0
M  V30 9573 N 901.641 -1.19671 1.02551 0
M  V30 9574 C 902.869 -1.93233 0.739513 0
M  V30 9575 C 903.284 -1.75298 -0.701158 0
M  V30 9576 O 902.641 -1.07269 -1.47647 0
M  V30 9577 C 902.692 -3.45085 1.07697 0
M  V30 9578 O 902.413 -3.62441 2.46106 0
M  V30 9579 C 903.914 -4.35776 0.813298 0
M  V30 9580 H 901.134 -0.613905 0.270853 0
M  V30 9581 H 903.678 -1.51909 1.36909 0
M  V30 9582 H 901.833 -3.84255 0.492635 0
M  V30 9583 H 902.247 -4.56337 2.58567 0
M  V30 9584 H 903.721 -5.40941 1.09941 0
M  V30 9585 H 904.198 -4.38474 -0.252359 0
M  V30 9586 H 904.804 -4.02282 1.38021 0
M  V30 9587 N 903.119 -0.802921 -1.35613 0
M  V30 9588 C 904.049 -0.225131 -2.32412 0
M  V30 9589 C 905.03 0.647383 -1.57299 0
M  V30 9590 O 906.215 0.578414 -1.85386 0
M  V30 9591 C 903.345 0.630085 -3.41537 0
M  V30 9592 C 902.299 -0.143635 -4.27759 0
M  V30 9593 C 901.625 0.833046 -5.28171 0
M  V30 9594 C 902.925 -1.34054 -5.04804 0
M  V30 9595 H 904.619 -1.03385 -2.80984 0
M  V30 9596 H 902.165 -0.498593 -1.35093 0
M  V30 9597 H 904.118 1.04433 -4.08254 0
M  V30 9598 H 902.842 1.47165 -2.91565 0
M  V30 9599 H 901.501 -0.539015 -3.62616 0
M  V30 9600 H 901.149 1.67001 -4.74468 0
M  V30 9601 H 900.849 0.319697 -5.8673 0
M  V30 9602 H 902.373 1.24558 -5.97761 0
M  V30 9603 H 903.787 -1.00136 -5.64487 0
M  V30 9604 H 902.184 -1.78812 -5.72841 0
M  V30 9605 H 903.254 -2.12906 -4.35659 0
M  V30 9606 N 904.597 1.47463 -0.556102 0
M  V30 9607 C 905.846 2.01678 -0.029492 0
M  V30 9608 C 906.159 1.436 1.32809 0
M  V30 9609 O 907.365 1.89472 1.94455 0
M  V30 9610 C 905.821 3.599 -0.00223937 0
M  V30 9611 C 905.429 4.26969 -1.35651 0
M  V30 9612 C 907.173 4.2187 0.471822 0
M  V30 9613 C 905.08 5.77194 -1.28843 0
M  V30 9614 H 904.01 0.753965 -0.00725504 0
M  V30 9615 H 906.661 1.69467 -0.703789 0
M  V30 9616 H 905.043 3.89068 0.737682 0
M  V30 9617 H 906.217 4.09444 -2.11406 0
M  V30 9618 H 904.532 3.76983 -1.76842 0
M  V30 9619 H 907.129 5.31955 0.541139 0
M  V30 9620 H 907.472 3.88968 1.48356 0
M  V30 9621 H 908.005 3.97228 -0.213207 0
M  V30 9622 H 904.744 6.14713 -2.27613 0
M  V30 9623 H 904.264 5.9706 -0.572668 0
M  V30 9624 H 905.943 6.3938 -0.990031 0
M  V30 9625 N 906.075 0.2925 1.54862 0
M  V30 9626 C 907.322 -0.319263 1.99967 0
M  V30 9627 C 907.65 -1.54547 1.18092 0
M  V30 9628 O 906.905 -1.94186 0.242969 0
M  V30 9629 C 907.204 -0.728674 3.49893 0
M  V30 9630 C 906.87 0.394836 4.49168 0
M  V30 9631 C 905.532 0.703289 4.76033 0
M  V30 9632 C 907.884 1.15103 5.08331 0
M  V30 9633 C 905.212 1.77121 5.59325 0
M  V30 9634 C 907.564 2.20881 5.92785 0
M  V30 9635 C 906.228 2.52342 6.17964 0
M  V30 9636 H 905.498 -0.116827 0.731733 0
M  V30 9637 H 908.145 0.40983 1.87063 0
M  V30 9638 H 906.45 -1.53772 3.60363 0
M  V30 9639 H 908.147 -1.21305 3.82212 0
M  V30 9640 H 904.737 0.144319 4.28357 0
M  V30 9641 H 908.921 0.92599 4.87585 0
M  V30 9642 H 904.177 2.01978 5.77074 0
M  V30 9643 H 908.351 2.79939 6.37657 0
M  V30 9644 H 905.978 3.35225 6.82296 0
M  V30 9645 N 907.553 -1.57587 0.0200696 0
M  V30 9646 C 908.799 -1.91708 -0.661503 0
M  V30 9647 C 909.132 -0.895968 -1.72296 0
M  V30 9648 O 908.407 0.082577 -1.94325 0
M  V30 9649 C 908.69 -3.36344 -1.28627 0
M  V30 9650 C 908.543 -4.49186 -0.234982 0
M  V30 9651 C 909.862 -3.80771 -2.20685 0
M  V30 9652 H 906.981 -0.69717 -0.239005 0
M  V30 9653 H 909.623 -1.8985 0.0754764 0
M  V30 9654 H 907.773 -3.38058 -1.91439 0
M  V30 9655 H 909.445 -4.59606 0.395011 0
M  V30 9656 H 907.688 -4.31557 0.440565 0
M  V30 9657 H 908.359 -5.47395 -0.711558 0
M  V30 9658 H 910.835 -3.80735 -1.67868 0
M  V30 9659 H 909.711 -4.82685 -2.61356 0
M  V30 9660 H 909.972 -3.15764 -3.09428 0
M  V30 9661 N 909.032 0.252966 -1.55557 0
M  V30 9662 C 909.962 1.31691 -1.9282 0
M  V30 9663 C 910.943 1.50516 -0.7924 0
M  V30 9664 O 912.128 1.63225 -1.05219 0
M  V30 9665 C 909.258 2.67281 -2.21762 0
M  V30 9666 C 908.212 2.6316 -3.37536 0
M  V30 9667 C 907.538 4.02488 -3.52005 0
M  V30 9668 C 908.838 2.20675 -4.73392 0
M  V30 9669 H 910.532 1.00751 -2.81939 0
M  V30 9670 H 908.078 0.483219 -1.3565 0
M  V30 9671 H 910.031 3.41842 -2.46419 0
M  V30 9672 H 908.755 2.99845 -1.29463 0
M  V30 9673 H 907.414 1.91057 -3.12878 0
M  V30 9674 H 907.062 4.32307 -2.57137 0
M  V30 9675 H 906.762 4.00621 -4.29857 0
M  V30 9676 H 908.286 4.78758 -3.78977 0
M  V30 9677 H 909.7 2.84965 -4.97461 0
M  V30 9678 H 908.097 2.29931 -5.54303 0
M  V30 9679 H 909.167 1.15831 -4.70862 0
M  V30 9680 N 910.51 1.48831 0.518367 0
M  V30 9681 C 911.74 1.60886 1.29612 0
M  V30 9682 C 912.148 0.272713 1.87224 0
M  V30 9683 O 911.491 -0.749653 1.67708 0
M  V30 9684 C 911.553 2.60541 2.47707 0
M  V30 9685 C 911.217 4.05324 2.11095 0
M  V30 9686 C 912.214 4.92658 1.66084 0
M  V30 9687 C 909.899 4.50942 2.21262 0
M  V30 9688 C 911.893 6.23641 1.3172 0
M  V30 9689 C 909.58 5.81943 1.8651 0
M  V30 9690 C 910.578 6.68116 1.41812 0
M  V30 9691 O 910.266 7.96677 1.07522 0
M  V30 9692 H 909.998 0.544968 0.399982 0
M  V30 9693 H 912.552 1.95474 0.630799 0
M  V30 9694 H 910.782 2.21098 3.17258 0
M  V30 9695 H 912.471 2.62308 3.09757 0
M  V30 9696 H 913.237 4.58649 1.5769 0
M  V30 9697 H 909.116 3.84048 2.55007 0
M  V30 9698 H 912.66 6.90857 0.967598 0
M  V30 9699 H 908.557 6.15484 1.94549 0
M  V30 9700 H 909.325 8.09534 1.2082 0
M  V30 9701 N 911.988 -0.768124 1.37614 0
M  V30 9702 C 913.404 -1.06919 1.18493 0
M  V30 9703 C 913.604 -2.01486 0.0235753 0
M  V30 9704 O 912.66 -2.4438 -0.635209 0
M  V30 9705 C 913.973 -1.66321 2.50515 0
M  V30 9706 C 915.521 -1.78562 2.57069 0
M  V30 9707 C 915.996 -2.41377 3.89231 0
M  V30 9708 N 917.487 -2.48824 3.90693 0
M  V30 9709 C 918.222 -2.98288 4.89706 0
M  V30 9710 N 917.718 -3.47897 5.99115 0
M  V30 9711 N 919.511 -2.97196 4.77107 0
M  V30 9712 H 911.662 -0.140286 2.11936 0
M  V30 9713 H 913.925 -0.124863 0.939741 0
M  V30 9714 H 913.631 -1.04303 3.35878 0
M  V30 9715 H 913.505 -2.65571 2.67866 0
M  V30 9716 H 915.892 -2.39712 1.72111 0
M  V30 9717 H 915.973 -0.780574 2.43599 0
M  V30 9718 H 915.617 -1.80866 4.74605 0
M  V30 9719 H 915.547 -3.42495 4.00006 0
M  V30 9720 H 918.038 -2.1372 3.1166 0
M  V30 9721 H 918.351 -3.84053 6.70614 0
M  V30 9722 H 916.696 -3.45993 6.02755 0
M  V30 9723 H 919.887 -2.57741 3.90752 0
M  V30 9724 H 920.06 -3.35434 5.54426 0
M  V30 9725 N 913.466 -1.22244 -0.994698 0
M  V30 9726 C 914.743 -0.954459 -1.70732 0
M  V30 9727 C 915.123 0.530945 -2.04314 0
M  V30 9728 O 914.471 1.49851 -1.72502 0
M  V30 9729 C 914.681 -1.85016 -2.95922 0
M  V30 9730 C 916.029 -2.10517 -3.68738 0
M  V30 9731 O 917.053 -1.82449 -3.05926 0
M  V30 9732 O 915.912 -2.58044 -4.81742 0
M  V30 9733 H 913.006 -0.35879 -0.745116 0
M  V30 9734 H 915.552 -1.33221 -1.0512 0
M  V30 9735 H 914.324 -2.85498 -2.67594 0
M  V30 9736 H 913.947 -1.47388 -3.69273 0
M  V30 9737 N 914.944 1.19125 -1.03184 0
M  V30 9738 C 916.172 1.92838 -0.74975 0
M  V30 9739 C 916.587 1.75667 0.691851 0
M  V30 9740 O 915.944 1.0805 1.47076 0
M  V30 9741 C 915.995 3.44509 -1.09525 0
M  V30 9742 O 915.716 3.6113 -2.48025 0
M  V30 9743 C 917.217 4.35338 -0.836397 0
M  V30 9744 H 914.437 0.61246 -0.274105 0
M  V30 9745 H 916.981 1.5118 -1.37712 0
M  V30 9746 H 915.136 3.83988 -0.513006 0
M  V30 9747 H 915.55 4.54959 -2.60984 0
M  V30 9748 H 917.024 5.4035 -1.12808 0
M  V30 9749 H 917.501 4.38602 0.229102 0
M  V30 9750 H 918.107 4.01544 -1.40152 0
M  V30 9751 N 916.422 0.810101 1.35185 0
M  V30 9752 C 917.833 0.452616 1.81131 0
M  V30 9753 C 918.184 -1.02573 1.67252 0
M  V30 9754 O 917.309 -1.79735 1.20516 0
M  V30 9755 C 917.904 0.814775 3.28857 0
M  V30 9756 C 916.463 0.509839 3.72931 0
M  V30 9757 C 915.61 1.03852 2.57119 0
M  V30 9758 H 918.561 1.00143 1.23114 0
M  V30 9759 H 918.582 0.113635 3.8033 0
M  V30 9760 H 918.094 1.89078 3.38926 0
M  V30 9761 H 916.195 -0.557289 3.68409 0
M  V30 9762 H 916.308 1.04493 4.67566 0
M  V30 9763 H 914.672 0.460671 2.50499 0
M  V30 9764 H 915.455 2.12071 2.69964 0
M  V30 9765 N 917.9 -1.47166 0.563914 0
M  V30 9766 C 919.146 -2.02756 0.0424338 0
M  V30 9767 C 919.479 -1.43662 -1.3067 0
M  V30 9768 O 918.754 -0.594676 -1.85186 0
M  V30 9769 C 919.037 -3.60074 -0.0434793 0
M  V30 9770 C 918.89 -4.29587 1.33323 0
M  V30 9771 C 920.209 -4.336 -0.753568 0
M  V30 9772 H 917.328 -0.736806 0.0168946 0
M  V30 9773 H 919.97 -1.75521 0.727496 0
M  V30 9774 H 918.12 -3.83409 -0.626906 0
M  V30 9775 H 919.792 -4.17573 1.96037 0
M  V30 9776 H 918.035 -3.8968 1.9061 0
M  V30 9777 H 918.706 -5.38218 1.22576 0
M  V30 9778 H 921.182 -4.15299 -0.258126 0
M  V30 9779 H 920.058 -5.43291 -0.782659 0
M  V30 9780 H 920.319 -4.03302 -1.81108 0
M  V30 9781 N 919.378 -0.300708 -1.54705 0
M  V30 9782 C 920.624 0.309111 -2.0043 0
M  V30 9783 C 920.957 1.53562 -1.1888 0
M  V30 9784 O 920.232 1.92683 -0.265205 0
M  V30 9785 C 920.515 0.665995 -3.53888 0
M  V30 9786 C 920.368 -0.56963 -4.46178 0
M  V30 9787 C 921.687 1.49262 -4.14016 0
M  V30 9788 H 918.806 0.110878 -0.728612 0
M  V30 9789 H 921.448 -0.412748 -1.85463 0
M  V30 9790 H 919.598 1.281 -3.66773 0
M  V30 9791 H 921.27 -1.20811 -4.45199 0
M  V30 9792 H 919.513 -1.20292 -4.16788 0
M  V30 9793 H 920.184 -0.275785 -5.51311 0
M  V30 9794 H 922.66 0.972979 -4.04564 0
M  V30 9795 H 921.536 1.71111 -5.21548 0
M  V30 9796 H 921.797 2.48174 -3.65872 0
M  V30 9797 N 920.856 1.57574 -0.0284266 0
M  V30 9798 C 921.803 2.10176 0.953658 0
M  V30 9799 C 922.773 1.00367 1.32347 0
M  V30 9800 O 923.958 1.27783 1.4169 0
M  V30 9801 C 921.098 2.63287 2.231 0
M  V30 9802 C 920.211 3.87102 1.91771 0
M  V30 9803 C 919.346 4.28609 3.13795 0
M  V30 9804 C 918.385 5.45184 2.78282 0
M  V30 9805 N 917.522 5.81851 3.92929 0
M  V30 9806 H 922.362 2.93806 0.498176 0
M  V30 9807 H 919.899 1.45222 0.234302 0
M  V30 9808 H 921.857 2.9217 2.97813 0
M  V30 9809 H 920.487 1.82489 2.66266 0
M  V30 9810 H 919.539 3.64952 1.07303 0
M  V30 9811 H 920.851 4.71892 1.61615 0
M  V30 9812 H 920.005 4.58925 3.96829 0
M  V30 9813 H 918.744 3.42585 3.47112 0
M  V30 9814 H 917.749 5.14563 1.93661 0
M  V30 9815 H 918.974 6.32907 2.46182 0
M  V30 9816 H 916.92 4.98782 4.2609 0
M  V30 9817 H 916.837 6.6128 3.66395 0
M  V30 9818 H 918.105 6.16772 4.76669 0
M  V30 9819 N 922.334 -0.244713 1.55689 0
M  V30 9820 C 923.559 -0.994157 1.8202 0
M  V30 9821 C 923.984 -1.78079 0.60577 0
M  V30 9822 O 923.342 -1.75748 -0.445221 0
M  V30 9823 C 923.39 -1.90599 3.06111 0
M  V30 9824 O 922.494 -2.99804 2.8318 0
M  V30 9825 H 921.835 -0.282767 0.600782 0
M  V30 9826 H 924.365 -0.26504 2.02876 0
M  V30 9827 H 924.375 -2.32023 3.35603 0
M  V30 9828 H 923.05 -1.32763 3.9414 0
M  V30 9829 H 921.627 -2.62493 2.64862 0
M  V30 9830 N 923.813 -1.49104 -0.510467 0
M  V30 9831 C 925.038 -1.62068 -1.29417 0
M  V30 9832 C 925.463 -0.288432 -1.85875 0
M  V30 9833 O 924.821 0.742667 -1.65391 0
M  V30 9834 C 924.869 -2.68506 -2.40701 0
M  V30 9835 O 923.973 -2.27021 -3.4429 0
M  V30 9836 H 923.314 -0.542778 -0.382476 0
M  V30 9837 H 925.844 -1.95228 -0.612154 0
M  V30 9838 H 925.854 -2.90383 -2.86604 0
M  V30 9839 H 924.529 -3.65216 -1.98973 0
M  V30 9840 H 923.106 -2.15436 -3.04371 0
M  V30 9841 N 925.291 0.760815 -1.38019 0
M  V30 9842 C 926.516 1.55513 -1.37224 0
M  V30 9843 C 926.941 1.88062 0.037611 0
M  V30 9844 O 926.299 1.50042 1.0177 0
M  V30 9845 C 926.347 2.83539 -2.22796 0
M  V30 9846 O 925.451 3.78384 -1.64009 0
M  V30 9847 H 924.792 0.470642 -0.468393 0
M  V30 9848 H 927.322 0.940792 -1.81687 0
M  V30 9849 H 927.332 3.32535 -2.36399 0
M  V30 9850 H 926.007 2.59178 -3.25269 0
M  V30 9851 H 924.584 3.37063 -1.59508 0
M  V30 9852 N 926.769 1.22769 0.988202 0
M  V30 9853 C 928.185 0.988665 1.2529 0
M  V30 9854 C 928.385 -0.314938 1.99024 0
M  V30 9855 O 927.441 -1.03637 2.30251 0
M  V30 9856 C 928.754 2.19046 2.06009 0
M  V30 9857 C 930.302 2.23452 2.19176 0
M  V30 9858 C 930.777 3.43196 3.03283 0
M  V30 9859 N 932.268 3.43387 3.10869 0
M  V30 9860 C 933.003 4.32693 3.7625 0
M  V30 9861 N 932.499 5.32224 4.43519 0
M  V30 9862 N 934.292 4.20457 3.73058 0
M  V30 9863 H 926.443 2.06575 0.494014 0
M  V30 9864 H 928.706 0.905452 0.28082 0
M  V30 9865 H 928.412 3.13607 1.59197 0
M  V30 9866 H 928.286 2.19492 3.06763 0
M  V30 9867 H 930.673 1.29436 2.65199 0
M  V30 9868 H 930.754 2.27042 1.17836 0
M  V30 9869 H 930.398 4.37515 2.57959 0
M  V30 9870 H 930.328 3.36847 4.04774 0
M  V30 9871 H 932.819 2.71368 2.62998 0
M  V30 9872 H 933.132 5.9664 4.91163 0
M  V30 9873 H 931.477 5.36133 4.42252 0
M  V30 9874 H 934.668 3.41949 3.19669 0
M  V30 9875 H 934.841 4.90261 4.23731 0
M  V30 9876 N 928.247 -1.18576 1.03814 0
M  V30 9877 C 929.157 -2.25778 0.637311 0
M  V30 9878 C 930.173 -1.7074 -0.335248 0
M  V30 9879 O 931.349 -2.00494 -0.19081 0
M  V30 9880 C 928.414 -3.467 0.00386953 0
M  V30 9881 C 927.475 -4.16881 1.02511 0
M  V30 9882 C 926.708 -5.32031 0.421802 0
M  V30 9883 O 926.931 -5.65142 -0.772699 0
M  V30 9884 O 925.865 -5.90826 1.14925 0
M  V30 9885 H 929.691 -2.62323 1.53037 0
M  V30 9886 H 927.276 -1.25609 0.80887 0
M  V30 9887 H 929.158 -4.19953 -0.348873 0
M  V30 9888 H 927.833 -3.11983 -0.863047 0
M  V30 9889 H 926.74 -3.45707 1.4296 0
M  V30 9890 H 928.073 -4.55592 1.86271 0
M  V30 9891 N 929.725 -0.817259 -1.34754 0
M  V30 9892 C 930.655 -0.249769 -2.3216 0
M  V30 9893 C 931.636 0.630663 -1.57977 0
M  V30 9894 O 932.821 0.558719 -1.85989 0
M  V30 9895 C 929.951 0.593825 -3.42186 0
M  V30 9896 C 928.905 -0.188997 -4.27583 0
M  V30 9897 C 928.231 0.776979 -5.29025 0
M  V30 9898 C 929.531 -1.39401 -5.03354 0
M  V30 9899 H 931.225 -1.06359 -2.79872 0
M  V30 9900 H 928.771 -0.512894 -1.34556 0
M  V30 9901 H 930.724 1.00097 -4.09339 0
M  V30 9902 H 929.448 1.44064 -2.93109 0
M  V30 9903 H 928.107 -0.577445 -3.62024 0
M  V30 9904 H 927.755 1.61959 -4.76212 0
M  V30 9905 H 927.455 0.257448 -5.87036 0
M  V30 9906 H 928.979 1.18211 -5.99048 0
M  V30 9907 H 930.393 -1.06117 -5.63393 0
M  V30 9908 H 928.79 -1.84878 -5.70912 0
M  V30 9909 H 929.86 -2.17515 -4.33377 0
M  V30 9910 N 931.203 1.46865 -0.571711 0
M  V30 9911 C 932.443 2.04324 -0.0556487 0
M  V30 9912 C 932.807 1.43486 1.27576 0
M  V30 9913 O 934.008 1.92079 1.8804 0
M  V30 9914 C 932.279 3.57394 0.0206263 0
M  V30 9915 S 933.838 4.36159 0.480709 0
M  V30 9916 H 930.656 0.710273 -0.0321467 0
M  V30 9917 H 933.258 1.8005 -0.761725 0
M  V30 9918 H 931.962 3.99193 -0.952509 0
M  V30 9919 H 931.493 3.86188 0.749812 0
M  V30 9920 H 933.508 4.6478 1.73763 0
M  V30 9921 N 932.681 0.308908 1.54543 0
M  V30 9922 C 933.911 -0.299983 2.04411 0
M  V30 9923 C 934.319 -1.47463 1.18538 0
M  V30 9924 O 933.662 -1.82547 0.205463 0
M  V30 9925 C 933.724 -0.811579 3.50219 0
M  V30 9926 C 933.388 0.238834 4.56375 0
M  V30 9927 C 934.385 1.06997 5.08771 0
M  V30 9928 C 932.07 0.382808 5.00839 0
M  V30 9929 C 934.064 2.03096 6.04178 0
M  V30 9930 C 931.751 1.34723 5.96065 0
M  V30 9931 C 932.749 2.16978 6.47618 0
M  V30 9932 O 932.437 3.11783 7.40977 0
M  V30 9933 H 932.169 -0.0679682 0.672574 0
M  V30 9934 H 934.723 0.448815 2.00437 0
M  V30 9935 H 932.953 -1.61104 3.51543 0
M  V30 9936 H 934.642 -1.33721 3.83241 0
M  V30 9937 H 935.408 0.969654 4.75208 0
M  V30 9938 H 931.287 -0.247507 4.60335 0
M  V30 9939 H 934.831 2.67338 6.44342 0
M  V30 9940 H 930.728 1.44824 6.29044 0
M  V30 9941 H 931.496 3.06853 7.58804 0
M  V30 9942 N 934.159 -1.57557 0.0367827 0
M  V30 9943 C 935.408 -1.91291 -0.639569 0
M  V30 9944 C 935.721 -0.915601 -1.72847 0
M  V30 9945 O 936.927 -1.14447 -2.46199 0
M  V30 9946 C 935.383 -3.39697 -1.18888 0
M  V30 9947 C 934.991 -4.47803 -0.132851 0
M  V30 9948 C 936.735 -3.82487 -1.8413 0
M  V30 9949 C 934.642 -5.87311 -0.694229 0
M  V30 9950 H 933.572 -0.713886 -0.242658 0
M  V30 9951 H 936.223 -1.83209 0.103332 0
M  V30 9952 H 934.605 -3.42736 -1.98363 0
M  V30 9953 H 935.779 -4.56334 0.640009 0
M  V30 9954 H 934.094 -4.14264 0.421264 0
M  V30 9955 H 936.691 -4.84076 -2.27101 0
M  V30 9956 H 937.034 -3.17959 -2.68716 0
M  V30 9957 H 937.567 -3.81903 -1.11332 0
M  V30 9958 H 934.306 -6.55401 0.113667 0
M  V30 9959 H 933.826 -5.82371 -1.4354 0
M  V30 9960 H 935.505 -6.36119 -1.1816 0
M  V30 9961 N 935.637 0.236453 -1.55816 0
M  V30 9962 C 936.886 0.960981 -1.77336 0
M  V30 9963 C 937.199 1.86085 -0.602641 0
M  V30 9964 O 938.405 2.62291 -0.701106 0
M  V30 9965 C 936.861 1.75884 -3.13995 0
M  V30 9966 C 936.469 0.905849 -4.38746 0
M  V30 9967 C 938.213 2.47548 -3.44848 0
M  V30 9968 C 936.12 1.7002 -5.66434 0
M  V30 9969 H 935.05 0.362547 -0.661117 0
M  V30 9970 H 937.701 0.215303 -1.82233 0
M  V30 9971 H 936.083 2.54687 -3.03234 0
M  V30 9972 H 937.257 0.159415 -4.60524 0
M  V30 9973 H 935.572 0.30205 -4.15303 0
M  V30 9974 H 938.169 3.07452 -4.37467 0
M  V30 9975 H 938.512 3.19689 -2.66655 0
M  V30 9976 H 939.045 1.75747 -3.56872 0
M  V30 9977 H 935.784 1.02234 -6.47479 0
M  V30 9978 H 935.304 2.42164 -5.48741 0
M  V30 9979 H 936.983 2.26469 -6.0607 0
M  V30 9980 N 937.115 1.49373 0.502552 0
M  V30 9981 C 938.045 1.68839 1.61294 0
M  V30 9982 C 939.026 0.537096 1.61398 0
M  V30 9983 O 940.211 0.772764 1.78163 0
M  V30 9984 C 937.341 1.75347 2.99784 0
M  V30 9985 C 936.295 2.90251 3.14545 0
M  V30 9986 C 935.621 2.8187 4.54371 0
M  V30 9987 C 936.921 4.31207 2.94717 0
M  V30 9988 H 938.615 2.61803 1.45257 0
M  V30 9989 H 936.161 1.25987 0.697371 0
M  V30 9990 H 938.114 1.87552 3.77362 0
M  V30 9991 H 936.838 0.789814 3.16906 0
M  V30 9992 H 935.497 2.77646 2.39392 0
M  V30 9993 H 935.145 1.83416 4.68367 0
M  V30 9994 H 934.845 3.5899 4.65188 0
M  V30 9995 H 936.369 2.96081 5.34012 0
M  V30 9996 H 937.783 4.44501 3.62065 0
M  V30 9997 H 936.18 5.09536 3.17007 0
M  V30 9998 H 937.25 4.45759 1.90857 0
M  V30 9999 N 938.594 -0.753485 1.38421 0
M  V30 10000 C 939.557 -1.84888 1.35459 0
M  V30 10001 C 940.557 -1.58764 0.255083 0
M  V30 10002 O 941.747 -1.66507 0.511978 0
M  V30 10003 C 938.879 -3.22361 1.10888 0
M  V30 10004 H 940.072 -1.88922 2.32913 0
M  V30 10005 H 937.625 -0.955199 1.23716 0
M  V30 10006 H 938.36 -3.23996 0.1404 0
M  V30 10007 H 938.145 -3.42717 1.90492 0
M  V30 10008 H 939.635 -4.02437 1.1151 0
M  V30 10009 N 940.072 -1.23292 -0.981677 0
M  V30 10010 C 941.32 -1.06214 -1.71939 0
M  V30 10011 C 941.641 0.401989 -1.90812 0
M  V30 10012 O 940.911 1.28825 -1.47584 0
M  V30 10013 H 939.491 -0.390042 -0.637084 0
M  V30 10014 H 942.153 -1.54988 -1.18173 0
M  V30 10015 H 941.249 -1.54904 -2.70945 0
M  V30 10016 N 941.55 1.18024 -1.04442 0
M  V30 10017 C 942.799 1.8743 -0.745185 0
M  V30 10018 C 943.112 1.81459 0.730206 0
M  V30 10019 O 944.318 2.46263 1.1431 0
M  V30 10020 C 942.774 3.36266 -1.28271 0
M  V30 10021 C 942.382 3.50757 -2.787 0
M  V30 10022 C 944.126 4.11048 -1.06018 0
M  V30 10023 C 942.033 4.93573 -3.25791 0
M  V30 10024 H 940.963 0.702038 -0.27506 0
M  V30 10025 H 943.614 1.33333 -1.26073 0
M  V30 10026 H 941.996 3.89853 -0.695002 0
M  V30 10027 H 943.17 3.07423 -3.43261 0
M  V30 10028 H 941.485 2.89385 -2.99408 0
M  V30 10029 H 944.082 5.16395 -1.38711 0
M  V30 10030 H 944.425 4.163 0.00241716 0
M  V30 10031 H 944.958 3.63644 -1.61269 0
M  V30 10032 H 941.697 4.93491 -4.31447 0
M  V30 10033 H 941.217 5.37607 -2.65968 0
M  V30 10034 H 942.896 5.62307 -3.20031 0
M  V30 10035 N 943.028 0.824394 1.34319 0
M  V30 10036 C 944.275 0.413167 1.9824 0
M  V30 10037 C 944.603 -1.02412 1.65354 0
M  V30 10038 O 943.858 -1.72831 0.91803 0
M  V30 10039 C 944.157 0.564024 3.52921 0
M  V30 10040 C 943.823 1.96725 4.05722 0
M  V30 10041 C 942.485 2.35111 4.19853 0
M  V30 10042 C 944.837 2.88447 4.34106 0
M  V30 10043 C 942.165 3.64551 4.59695 0
M  V30 10044 C 944.517 4.17353 4.75394 0
M  V30 10045 C 943.181 4.55714 4.8773 0
M  V30 10046 H 942.451 0.151188 0.725412 0
M  V30 10047 H 945.098 1.04863 1.60238 0
M  V30 10048 H 943.403 -0.154816 3.91494 0
M  V30 10049 H 945.1 0.226347 4.00361 0
M  V30 10050 H 941.69 1.65908 3.95187 0
M  V30 10051 H 945.874 2.60034 4.22725 0
M  V30 10052 H 941.13 3.94097 4.67437 0
M  V30 10053 H 945.304 4.88512 4.96315 0
M  V30 10054 H 942.931 5.56064 5.1836 0
M  V30 10055 N 944.506 -1.46559 0.579492 0
M  V30 10056 C 945.436 -2.33059 -0.143437 0
M  V30 10057 C 946.417 -1.4515 -0.886868 0
M  V30 10058 O 947.602 -1.73973 -0.862961 0
M  V30 10059 C 944.732 -3.27364 -1.15973 0
M  V30 10060 C 943.686 -4.24689 -0.531348 0
M  V30 10061 C 943.012 -5.08479 -1.65388 0
M  V30 10062 C 944.312 -5.1961 0.529391 0
M  V30 10063 H 946.006 -2.93753 0.578762 0
M  V30 10064 H 943.552 -1.41256 0.279775 0
M  V30 10065 H 945.505 -3.86732 -1.67382 0
M  V30 10066 H 944.229 -2.64771 -1.91217 0
M  V30 10067 H 942.888 -3.6658 -0.0383749 0
M  V30 10068 H 942.536 -4.42273 -2.3959 0
M  V30 10069 H 942.236 -5.74387 -1.23909 0
M  V30 10070 H 943.76 -5.70709 -2.17079 0
M  V30 10071 H 945.174 -5.73212 0.100506 0
M  V30 10072 H 943.571 -5.93843 0.86432 0
M  V30 10073 H 944.641 -4.63737 1.4169 0
M  V30 10074 N 945.984 -0.3171 -1.54377 0
M  V30 10075 C 947.232 0.286842 -2.00054 0
M  V30 10076 C 947.553 1.53161 -1.20692 0
M  V30 10077 O 946.823 1.93479 -0.307045 0
M  V30 10078 H 945.403 0.108979 -0.739008 0
M  V30 10079 H 948.065 -0.432152 -1.90049 0
M  V30 10080 H 947.161 0.547729 -3.07256 0
M  V30 10081 N 947.462 1.57535 -0.0451378 0
M  V30 10082 C 948.692 1.96476 0.638814 0
M  V30 10083 C 949.1 0.921056 1.65267 0
M  V30 10084 O 948.443 -0.103843 1.83406 0
M  V30 10085 C 948.505 3.31629 1.38788 0
M  V30 10086 C 948.169 4.5391 0.530545 0
M  V30 10087 C 949.166 5.19512 -0.200864 0
M  V30 10088 C 946.851 5.00159 0.463242 0
M  V30 10089 C 948.845 6.29695 -0.988078 0
M  V30 10090 C 946.532 6.10221 -0.327665 0
M  V30 10091 C 947.53 6.74849 -1.05202 0
M  V30 10092 O 947.218 7.82795 -1.82993 0
M  V30 10093 H 946.95 0.651625 0.17989 0
M  V30 10094 H 949.504 2.05126 -0.106031 0
M  V30 10095 H 947.734 3.19516 2.17822 0
M  V30 10096 H 949.423 3.5536 1.96148 0
M  V30 10097 H 950.189 4.84742 -0.158299 0
M  V30 10098 H 946.068 4.49651 1.01663 0
M  V30 10099 H 949.612 6.80072 -1.55397 0
M  V30 10100 H 945.509 6.44428 -0.37189 0
M  V30 10101 H 946.277 7.99542 -1.7514 0
M  V30 10102 N 948.94 -0.228186 1.55939 0
M  V30 10103 C 950.186 -0.954964 1.78909 0
M  V30 10104 C 950.519 -1.8425 0.613648 0
M  V30 10105 O 949.794 -1.90604 -0.38737 0
M  V30 10106 C 950.077 -1.79957 3.1191 0
M  V30 10107 C 949.93 -0.938968 4.3989 0
M  V30 10108 C 951.249 -2.77859 3.41295 0
M  V30 10109 H 948.368 -0.345745 0.650868 0
M  V30 10110 H 951.01 -0.224244 1.88672 0
M  V30 10111 H 949.16 -2.42256 3.03717 0
M  V30 10112 H 950.832 -0.333225 4.60095 0
M  V30 10113 H 949.075 -0.244096 4.33113 0
M  V30 10114 H 949.746 -1.56416 5.29375 0
M  V30 10115 H 952.222 -2.25695 3.49572 0
M  V30 10116 H 951.098 -3.34062 4.35538 0
M  V30 10117 H 951.359 -3.55266 2.63132 0
M  V30 10118 N 950.418 -1.49637 -0.494624 0
M  V30 10119 C 951.658 -1.61067 -1.25844 0
M  V30 10120 C 952.022 -0.293666 -1.89741 0
M  V30 10121 O 953.223 -0.283202 -2.67304 0
M  V30 10122 C 951.494 -2.74218 -2.29215 0
M  V30 10123 S 953.053 -3.05639 -3.1485 0
M  V30 10124 H 949.871 -0.568056 -0.42759 0
M  V30 10125 H 952.473 -1.87323 -0.559491 0
M  V30 10126 H 951.177 -3.68422 -1.80813 0
M  V30 10127 H 950.708 -2.49975 -3.0377 0
M  V30 10128 H 952.723 -2.47651 -4.29981 0
M  V30 10129 N 951.896 0.746133 -1.38819 0
M  V30 10130 C 953.307 1.32384 -1.31648 0
M  V30 10131 C 953.658 1.96185 0.0243086 0
M  V30 10132 O 952.783 1.95567 0.92641 0
M  V30 10133 C 953.378 2.40712 -2.38418 0
M  V30 10134 C 951.937 2.94185 -2.34803 0
M  V30 10135 C 951.084 1.67639 -2.20891 0
M  V30 10136 H 954.035 0.544457 -1.49068 0
M  V30 10137 H 954.056 3.20833 -2.04564 0
M  V30 10138 H 953.568 1.94247 -3.3599 0
M  V30 10139 H 951.669 3.44959 -1.40834 0
M  V30 10140 H 951.782 3.48057 -3.29231 0
M  V30 10141 H 950.146 1.9155 -1.67871 0
M  V30 10142 H 950.929 1.23242 -3.20416 0
M  V30 10143 N 953.375 1.23811 0.975125 0
M  V30 10144 C 954.622 1.07336 1.71712 0
M  V30 10145 C 954.95 -0.388954 1.90571 0
M  V30 10146 O 954.205 -1.30409 1.45918 0
M  V30 10147 C 954.504 1.74994 3.11628 0
M  V30 10148 C 954.17 3.24918 3.12632 0
M  V30 10149 C 952.832 3.65822 3.12614 0
M  V30 10150 C 955.184 4.20797 3.07538 0
M  V30 10151 C 952.512 5.01054 3.05224 0
M  V30 10152 C 954.864 5.56027 3.0169 0
M  V30 10153 C 953.528 5.96287 2.99996 0
M  V30 10154 H 952.798 0.392771 0.62834 0
M  V30 10155 H 955.445 1.53815 1.14075 0
M  V30 10156 H 953.75 1.20889 3.72684 0
M  V30 10157 H 955.447 1.5972 3.67819 0
M  V30 10158 H 952.037 2.92359 3.13407 0
M  V30 10159 H 956.221 3.902 3.06688 0
M  V30 10160 H 951.477 5.31454 3.02268 0
M  V30 10161 H 955.651 6.3003 2.96706 0
M  V30 10162 H 953.278 7.01037 2.94025 0
M  V30 10163 N 954.853 -1.17469 1.05066 0
M  V30 10164 C 956.081 -1.9162 0.780334 0
M  V30 10165 C 956.496 -1.76745 -0.663817 0
M  V30 10166 O 955.853 -1.10377 -1.45338 0
M  V30 10167 C 955.904 -3.42723 1.14992 0
M  V30 10168 O 955.625 -3.57139 2.53739 0
M  V30 10169 C 957.126 -4.33952 0.905549 0
M  V30 10170 H 954.346 -0.608022 0.283814 0
M  V30 10171 H 956.89 -1.4897 1.401 0
M  V30 10172 H 955.045 -3.83124 0.57403 0
M  V30 10173 H 955.459 -4.5075 2.68189 0
M  V30 10174 H 956.933 -5.38487 1.21391 0
M  V30 10175 H 957.41 -4.38911 -0.159295 0
M  V30 10176 H 958.016 -3.99263 1.46522 0
M  V30 10177 N 956.331 -0.831506 -1.3388 0
M  V30 10178 C 957.261 -0.274378 -2.31882 0
M  V30 10179 C 958.242 0.613872 -1.58637 0
M  V30 10180 O 959.427 0.538961 -1.86571 0
M  V30 10181 C 956.557 0.557498 -3.42796 0
M  V30 10182 C 955.511 -0.234337 -4.27358 0
M  V30 10183 C 954.837 0.720825 -5.29819 0
M  V30 10184 C 956.137 -1.44732 -5.01847 0
M  V30 10185 H 957.831 -1.09322 -2.78728 0
M  V30 10186 H 955.377 -0.527136 -1.34005 0
M  V30 10187 H 957.33 0.957501 -4.10378 0
M  V30 10188 H 956.054 1.40947 -2.94621 0
M  V30 10189 H 954.713 -0.61581 -3.61391 0
M  V30 10190 H 954.361 1.569 -4.77903 0
M  V30 10191 H 954.061 0.195171 -5.87276 0
M  V30 10192 H 955.585 1.1185 -6.00268 0
M  V30 10193 H 956.999 -1.12087 -5.62236 0
M  V30 10194 H 955.396 -1.90923 -5.68919 0
M  V30 10195 H 956.466 -2.22099 -4.31045 0
M  V30 10196 N 957.809 1.4625 -0.587256 0
M  V30 10197 C 959.058 2.01571 -0.0722643 0
M  V30 10198 C 959.371 1.46385 1.29733 0
M  V30 10199 O 960.577 1.93554 1.90392 0
M  V30 10200 C 959.033 3.59814 -0.078579 0
M  V30 10201 C 958.641 4.23996 -1.44678 0
M  V30 10202 C 960.385 4.22776 0.382231 0
M  V30 10203 C 958.292 5.74332 -1.41057 0
M  V30 10204 H 957.222 0.753642 -0.0232461 0
M  V30 10205 H 959.873 1.67936 -0.739577 0
M  V30 10206 H 958.255 3.90546 0.654988 0
M  V30 10207 H 959.429 4.04867 -2.20043 0
M  V30 10208 H 957.744 3.73147 -1.84799 0
M  V30 10209 H 960.341 5.32983 0.428182 0
M  V30 10210 H 960.684 3.92027 1.40072 0
M  V30 10211 H 961.217 3.96687 -0.297417 0
M  V30 10212 H 957.956 6.09747 -2.40601 0
M  V30 10213 H 957.476 5.95711 -0.699185 0
M  V30 10214 H 959.155 6.37137 -1.12543 0
M  V30 10215 N 959.287 0.325282 1.54207 0
M  V30 10216 C 960.25 -0.527228 2.23054 0
M  V30 10217 C 961.25 -1.04217 1.22456 0
M  V30 10218 O 962.44 -0.934325 1.47024 0
M  V30 10219 C 959.572 -1.7325 2.93594 0
M  V30 10220 H 960.765 0.0746423 2.99807 0
M  V30 10221 H 958.318 0.0763872 1.56113 0
M  V30 10222 H 959.053 -2.37356 2.20981 0
M  V30 10223 H 958.838 -1.37065 3.67363 0
M  V30 10224 H 960.328 -2.3376 3.46043 0
M  V30 10225 N 960.765 -1.57509 0.0534917 0
M  V30 10226 C 961.712 -2.11667 -0.920101 0
M  V30 10227 C 962.682 -1.0246 -1.30733 0
M  V30 10228 O 963.867 -1.30021 -1.39639 0
M  V30 10229 C 961.007 -2.66803 -2.18883 0
M  V30 10230 C 960.12 -3.90104 -1.85588 0
M  V30 10231 C 959.255 -4.33547 -3.06937 0
M  V30 10232 C 958.294 -5.49542 -2.69573 0
M  V30 10233 N 957.431 -5.88029 -3.83623 0
M  V30 10234 H 962.271 -2.94562 -0.451371 0
M  V30 10235 H 959.808 -1.45576 -0.211168 0
M  V30 10236 H 961.766 -2.96871 -2.93127 0
M  V30 10237 H 960.396 -1.86702 -2.63329 0
M  V30 10238 H 959.448 -3.66613 -1.01484 0
M  V30 10239 H 960.76 -4.74404 -1.54087 0
M  V30 10240 H 959.914 -4.6518 -3.89477 0
M  V30 10241 H 958.653 -3.48064 -3.41618 0
M  V30 10242 H 957.658 -5.17579 -1.8545 0
M  V30 10243 H 958.883 -6.36743 -2.36082 0
M  V30 10244 H 956.829 -5.05498 -4.181 0
M  V30 10245 H 956.746 -6.67025 -3.55828 0
M  V30 10246 H 958.014 -6.24277 -4.66796 0
M  V30 10247 N 962.243 0.219913 -1.56058 0
M  V30 10248 C 963.654 0.786766 -1.69313 0
M  V30 10249 C 964.005 1.84916 -0.655782 0
M  V30 10250 O 963.13 2.1554 0.192772 0
M  V30 10251 C 963.725 1.43387 -3.06962 0
M  V30 10252 C 962.284 1.94809 -3.22066 0
M  V30 10253 C 961.431 0.808863 -2.65241 0
M  V30 10254 H 964.382 -0.00476777 -1.58699 0
M  V30 10255 H 964.403 2.30272 -3.02911 0
M  V30 10256 H 963.915 0.660405 -3.8244 0
M  V30 10257 H 962.016 2.74952 -2.5146 0
M  V30 10258 H 962.129 2.12694 -4.293 0
M  V30 10259 H 960.493 1.21661 -2.23765 0
M  V30 10260 H 961.276 0.0480458 -3.43266 0
M  V30 10261 N 963.721 1.49897 0.486681 0
M  V30 10262 C 964.949 1.63837 1.26353 0
M  V30 10263 C 965.364 0.315428 1.86146 0
M  V30 10264 O 964.721 -0.700831 1.68507 0
M  V30 10265 C 964.772 2.71792 2.38351 0
M  V30 10266 O 964.493 3.98956 1.81013 0
M  V30 10267 C 965.994 2.96566 3.2949 0
M  V30 10268 H 963.214 0.551158 0.382709 0
M  V30 10269 H 965.758 1.96023 0.582694 0
M  V30 10270 H 963.913 2.42344 3.02238 0
M  V30 10271 H 964.327 4.58536 2.54647 0
M  V30 10272 H 965.801 3.75803 4.04322 0
M  V30 10273 H 966.278 2.07031 3.87343 0
M  V30 10274 H 966.884 3.27485 2.71355 0
M  V30 10275 N 965.199 -0.738761 1.39212 0
M  V30 10276 C 966.427 -1.52801 1.39497 0
M  V30 10277 C 966.842 -1.88797 -0.0114917 0
M  V30 10278 O 966.199 -1.53835 -0.981887 0
M  V30 10279 C 966.25 -2.81793 2.2644 0
M  V30 10280 O 965.971 -2.47328 3.61608 0
M  V30 10281 C 967.472 -3.75844 2.35067 0
M  V30 10282 H 964.692 -0.472322 0.476606 0
M  V30 10283 H 967.236 -0.913153 1.8298 0
M  V30 10284 H 965.391 -3.3962 1.8638 0
M  V30 10285 H 965.805 -3.30162 4.07545 0
M  V30 10286 H 967.279 -4.6326 3.00157 0
M  V30 10287 H 967.756 -4.17329 1.3687 0
M  V30 10288 H 968.362 -3.23937 2.75581 0
M  V30 10289 N 966.677 -1.24326 -0.968545 0
M  V30 10290 C 967.905 -1.10947 -1.74638 0
M  V30 10291 C 968.32 0.338064 -1.85749 0
M  V30 10292 O 967.677 1.23331 -1.3452 0
M  V30 10293 C 967.728 -1.74254 -3.1673 0
M  V30 10294 O 967.449 -3.13347 -3.06178 0
M  V30 10295 C 968.95 -1.66473 -4.10855 0
M  V30 10296 H 966.17 -0.38767 -0.547679 0
M  V30 10297 H 968.714 -1.64415 -1.21605 0
M  V30 10298 H 966.869 -1.2479 -3.66751 0
M  V30 10299 H 967.283 -3.44255 -3.95713 0
M  V30 10300 H 968.757 -2.15452 -5.08217 0
M  V30 10301 H 969.234 -0.625785 -4.34719 0
M  V30 10302 H 969.84 -2.15359 -3.66743 0
M  V30 10303 N 968.156 1.1691 -1.05688 0
M  V30 10304 C 969.381 1.91745 -0.790478 0
M  V30 10305 C 969.806 1.76568 0.648478 0
M  V30 10306 O 969.164 1.08682 1.45114 0
M  V30 10307 C 969.212 3.4067 -1.18222 0
M  V30 10308 O 968.316 4.11177 -0.317341 0
M  V30 10309 H 967.657 0.5976 -0.28943 0
M  V30 10310 H 970.187 1.48157 -1.41105 0
M  V30 10311 H 970.197 3.91424 -1.15114 0
M  V30 10312 H 968.872 3.51036 -2.2304 0
M  V30 10313 H 967.449 3.70645 -0.409459 0
M  V30 10314 N 969.634 0.838594 1.33437 0
M  V30 10315 C 970.874 0.440239 1.99603 0
M  V30 10316 C 971.238 -0.982061 1.64984 0
M  V30 10317 O 972.439 -1.48413 2.24114 0
M  V30 10318 C 970.71 0.654201 3.51362 0
M  V30 10319 S 972.269 0.351025 4.37394 0
M  V30 10320 H 969.087 0.165608 0.691444 0
M  V30 10321 H 971.689 1.08782 1.6244 0
M  V30 10322 H 970.393 1.68873 3.74045 0
M  V30 10323 H 969.924 -0.00754449 3.93399 0
M  V30 10324 H 971.939 -0.829298 4.89221 0
M  V30 10325 N 971.112 -1.45937 0.595003 0
M  V30 10326 C 972.342 -2.06399 0.0911607 0
M  V30 10327 C 972.75 -1.44236 -1.22444 0
M  V30 10328 O 972.093 -0.546265 -1.7539 0
M  V30 10329 C 972.155 -3.59242 -0.136079 0
M  V30 10330 C 971.819 -4.43668 1.09579 0
M  V30 10331 C 972.816 -4.79437 2.01088 0
M  V30 10332 C 970.501 -4.84616 1.32109 0
M  V30 10333 C 972.495 -5.54995 3.13464 0
M  V30 10334 C 970.182 -5.5993 2.44788 0
M  V30 10335 C 971.18 -5.95035 3.35294 0
M  V30 10336 O 970.868 -6.68825 4.46014 0
M  V30 10337 H 970.6 -0.673316 0.0601779 0
M  V30 10338 H 973.154 -1.88365 0.819005 0
M  V30 10339 H 971.384 -3.75629 -0.918676 0
M  V30 10340 H 973.073 -4.0159 -0.589954 0
M  V30 10341 H 973.839 -4.48371 1.84902 0
M  V30 10342 H 969.718 -4.56735 0.625662 0
M  V30 10343 H 973.262 -5.82314 3.84131 0
M  V30 10344 H 969.159 -5.90411 2.60931 0
M  V30 10345 H 969.927 -6.87262 4.44537 0
M  V30 10346 N 972.59 -0.333456 -1.54032 0
M  V30 10347 C 973.52 0.52051 -2.27625 0
M  V30 10348 C 974.501 1.1111 -1.28797 0
M  V30 10349 O 975.686 1.13438 -1.57625 0
M  V30 10350 C 972.816 1.67663 -3.04149 0
M  V30 10351 C 971.77 1.21487 -4.10396 0
M  V30 10352 C 971.096 2.45872 -4.74817 0
M  V30 10353 C 972.396 0.322603 -5.21303 0
M  V30 10354 H 974.09 -0.0933823 -2.99254 0
M  V30 10355 H 971.636 -0.0463526 -1.43925 0
M  V30 10356 H 973.589 2.28041 -3.54366 0
M  V30 10357 H 972.313 2.31727 -2.30153 0
M  V30 10358 H 970.972 0.633966 -3.61077 0
M  V30 10359 H 970.62 3.0832 -3.97426 0
M  V30 10360 H 970.32 2.15662 -5.46593 0
M  V30 10361 H 971.844 3.06994 -5.27814 0
M  V30 10362 H 973.258 0.832942 -5.67217 0
M  V30 10363 H 971.655 0.112843 -5.99994 0
M  V30 10364 H 972.725 -0.643954 -4.80605 0
M  V30 10365 N 974.068 1.57479 -0.061844 0
M  V30 10366 C 975 2.09116 0.938245 0
M  V30 10367 C 976.013 1.0212 1.26788 0
M  V30 10368 O 977.202 1.2966 1.22681 0
M  V30 10369 C 974.302 2.52822 2.25686 0
M  V30 10370 C 973.475 3.83277 2.10755 0
M  V30 10371 C 972.534 4.13182 3.25833 0
M  V30 10372 O 971.56 4.82937 3.01265 0
M  V30 10373 N 972.762 3.65938 4.50633 0
M  V30 10374 H 975.527 2.95543 0.497433 0
M  V30 10375 H 973.088 1.61423 0.124134 0
M  V30 10376 H 975.08 2.69896 3.01559 0
M  V30 10377 H 973.65 1.71586 2.61299 0
M  V30 10378 H 972.87 3.7568 1.19409 0
M  V30 10379 H 974.158 4.68686 1.98018 0
M  V30 10380 H 973.556 3.09566 4.73482 0
M  V30 10381 H 972.113 3.8823 5.23565 0
M  V30 10382 N 975.546 -0.211634 1.56173 0
M  V30 10383 C 976.962 -0.56177 1.49386 0
M  V30 10384 C 977.162 -1.86666 0.758813 0
M  V30 10385 O 976.218 -2.50681 0.302534 0
M  V30 10386 C 977.531 -0.631815 2.93987 0
M  V30 10387 C 979.079 -0.721773 3.04564 0
M  V30 10388 C 979.554 -0.823075 4.50544 0
M  V30 10389 N 981.045 -0.887038 4.54627 0
M  V30 10390 C 981.78 -0.985304 5.64871 0
M  V30 10391 N 981.276 -1.0469 6.84844 0
M  V30 10392 N 983.069 -1.02121 5.52746 0
M  V30 10393 H 975.22 0.64452 2.02385 0
M  V30 10394 H 977.483 0.227466 0.920306 0
M  V30 10395 H 977.189 0.257592 3.50755 0
M  V30 10396 H 977.063 -1.4921 3.46433 0
M  V30 10397 H 979.45 -1.60162 2.47855 0
M  V30 10398 H 979.531 0.164385 2.55271 0
M  V30 10399 H 979.175 0.0523511 5.07873 0
M  V30 10400 H 979.105 -1.72479 4.97552 0
M  V30 10401 H 981.596 -0.849352 3.68231 0
M  V30 10402 H 981.909 -1.12193 7.64613 0
M  V30 10403 H 980.254 -1.01586 6.87536 0
M  V30 10404 H 983.445 -0.969814 4.57943 0
M  V30 10405 H 983.618 -1.09434 6.38693 0
M  V30 10406 N 977.024 -1.50153 -0.478725 0
M  V30 10407 C 977.954 -1.71384 -1.58587 0
M  V30 10408 C 978.935 -0.562705 -1.60523 0
M  V30 10409 O 980.12 -0.80101 -1.76911 0
M  V30 10410 C 977.25 -1.80094 -2.96957 0
M  V30 10411 C 976.204 -2.95218 -3.09888 0
M  V30 10412 C 975.53 -2.89063 -4.49829 0
M  V30 10413 C 976.83 -4.35841 -2.8782 0
M  V30 10414 H 978.524 -2.64081 -1.41073 0
M  V30 10415 H 976.07 -1.27081 -0.677239 0
M  V30 10416 H 978.023 -1.93531 -3.74331 0
M  V30 10417 H 976.747 -0.840131 -3.1561 0
M  V30 10418 H 975.406 -2.81419 -2.34944 0
M  V30 10419 H 975.054 -1.90844 -4.6539 0
M  V30 10420 H 974.754 -3.66345 -4.59418 0
M  V30 10421 H 976.278 -3.04539 -5.29234 0
M  V30 10422 H 977.692 -4.50205 -3.54948 0
M  V30 10423 H 976.089 -5.14515 -3.0886 0
M  V30 10424 H 977.159 -4.48739 -1.83742 0
M  V30 10425 N 978.502 0.731368 -1.39602 0
M  V30 10426 C 979.432 1.85855 -1.41351 0
M  V30 10427 C 980.413 1.67839 -0.2764 0
M  V30 10428 O 981.598 1.88104 -0.482747 0
M  V30 10429 C 978.728 3.23644 -1.25983 0
M  V30 10430 C 977.682 3.56304 -2.37132 0
M  V30 10431 C 977.008 4.93069 -2.0685 0
M  V30 10432 C 978.308 3.58906 -3.79452 0
M  V30 10433 H 980.002 1.84648 -2.3568 0
M  V30 10434 H 977.548 0.886955 -1.13442 0
M  V30 10435 H 979.501 4.02176 -1.25826 0
M  V30 10436 H 978.225 3.25387 -0.281234 0
M  V30 10437 H 976.884 2.80104 -2.36511 0
M  V30 10438 H 976.532 4.91396 -1.0742 0
M  V30 10439 H 976.232 5.15888 -2.81306 0
M  V30 10440 H 977.756 5.73953 -2.0835 0
M  V30 10441 H 979.17 4.27508 -3.81982 0
M  V30 10442 H 977.567 3.93246 -4.53297 0
M  V30 10443 H 978.637 2.58631 -4.10168 0
M  V30 10444 N 979.98 1.24838 0.961938 0
M  V30 10445 C 981.226 1.09313 1.70817 0
M  V30 10446 C 981.559 -0.366244 1.90715 0
M  V30 10447 O 980.834 -1.27036 1.47282 0
M  V30 10448 C 981.117 1.83988 3.09549 0
M  V30 10449 C 980.97 3.3771 2.97106 0
M  V30 10450 C 982.289 1.61718 4.09311 0
M  V30 10451 H 979.408 0.398498 0.619974 0
M  V30 10452 H 982.05 1.53579 1.11864 0
M  V30 10453 H 980.2 1.46363 3.59875 0
M  V30 10454 H 981.872 3.84967 2.54161 0
M  V30 10455 H 980.115 3.65795 2.33187 0
M  V30 10456 H 980.786 3.85166 3.95412 0
M  V30 10457 H 983.262 1.94458 3.67866 0
M  V30 10458 H 982.138 2.16415 5.04436 0
M  V30 10459 H 982.399 0.55677 4.3858 0
M  V30 10460 N 981.458 -1.16348 1.06306 0
M  V30 10461 C 982.706 -1.86512 0.778311 0
M  V30 10462 C 983.027 -1.82107 -0.697273 0
M  V30 10463 O 982.297 -1.2547 -1.50446 0
M  V30 10464 H 980.877 -0.690529 0.284919 0
M  V30 10465 H 983.539 -1.41092 1.34458 0
M  V30 10466 H 982.635 -2.91947 1.10333 0
M  V30 10467 N 982.937 -0.845659 -1.3299 0
M  V30 10468 C 983.867 -0.298957 -2.31578 0
M  V30 10469 C 984.848 0.597012 -1.59279 0
M  V30 10470 O 986.033 0.519142 -1.87132 0
M  V30 10471 C 983.163 0.521109 -3.43368 0
M  V30 10472 C 982.117 -0.279651 -4.27085 0
M  V30 10473 C 981.443 0.664591 -5.30554 0
M  V30 10474 C 982.743 -1.50046 -5.00283 0
M  V30 10475 H 984.437 -1.12272 -2.77552 0
M  V30 10476 H 981.983 -0.54132 -1.33438 0
M  V30 10477 H 983.936 0.913921 -4.1137 0
M  V30 10478 H 982.66 1.37815 -2.96099 0
M  V30 10479 H 981.319 -0.654106 -3.60717 0
M  V30 10480 H 980.967 1.51822 -4.79541 0
M  V30 10481 H 980.667 0.132871 -5.8745 0
M  V30 10482 H 982.191 1.05477 -6.01421 0
M  V30 10483 H 983.605 -1.18044 -5.61016 0
M  V30 10484 H 982.002 -1.96946 -5.66862 0
M  V30 10485 H 983.072 -2.26659 -4.28665 0
M  V30 10486 N 984.415 1.45619 -0.602734 0
M  V30 10487 C 985.64 2.07157 -0.100429 0
M  V30 10488 C 986.065 1.44524 1.20393 0
M  V30 10489 O 985.423 0.536191 1.7319 0
M  V30 10490 C 985.471 3.60587 0.0308604 0
M  V30 10491 O 984.575 3.97944 1.08234 0
M  V30 10492 H 983.916 0.6601 -0.0718643 0
M  V30 10493 H 986.446 1.86948 -0.831366 0
M  V30 10494 H 986.456 4.07348 0.230634 0
M  V30 10495 H 985.131 4.05561 -0.921581 0
M  V30 10496 H 983.708 3.62862 0.859414 0
M  V30 10497 N 985.893 0.34162 1.53853 0
M  V30 10498 C 987.118 -0.259608 2.05769 0
M  V30 10499 C 987.543 -1.43588 1.21507 0
M  V30 10500 O 986.901 -1.79856 0.228364 0
M  V30 10501 C 986.949 -0.654455 3.54611 0
M  V30 10502 O 986.053 -1.75472 3.73207 0
M  V30 10503 H 985.394 -0.0434621 0.662576 0
M  V30 10504 H 987.924 0.495274 1.98515 0
M  V30 10505 H 987.934 -0.932142 3.97209 0
M  V30 10506 H 986.609 0.205779 4.15391 0
M  V30 10507 H 985.186 -1.47444 3.42512 0
M  V30 10508 N 987.371 -1.57444 0.0701946 0
M  V30 10509 C 988.334 -2.11511 -0.882923 0
M  V30 10510 C 989.334 -1.03879 -1.22743 0
M  V30 10511 O 990.524 -1.29874 -1.16097 0
M  V30 10512 C 987.656 -2.61514 -2.18686 0
M  V30 10513 H 988.849 -2.9703 -0.413873 0
M  V30 10514 H 986.402 -1.55278 -0.178488 0
M  V30 10515 H 987.137 -1.79443 -2.70131 0
M  V30 10516 H 986.922 -3.40185 -1.94978 0
M  V30 10517 H 988.412 -3.03425 -2.86919 0
M  V30 10518 N 988.849 0.203349 -1.56283 0
M  V30 10519 C 989.782 1.27982 -1.88934 0
M  V30 10520 C 990.76 1.44345 -0.748555 0
M  V30 10521 O 991.944 1.59867 -0.998741 0
M  V30 10522 C 989.071 2.64762 -2.11231 0
M  V30 10523 C 988.117 2.65315 -3.33932 0
M  V30 10524 S 988.95 2.17568 -4.8931 0
M  V30 10525 C 990.106 3.56189 -5.14665 0
M  V30 10526 H 990.339 1.00095 -2.79943 0
M  V30 10527 H 987.872 0.406458 -1.48954 0
M  V30 10528 H 989.83 3.43501 -2.2476 0
M  V30 10529 H 988.491 2.89864 -1.20986 0
M  V30 10530 H 987.684 3.6587 -3.46634 0
M  V30 10531 H 987.286 1.94652 -3.19353 0
M  V30 10532 H 989.578 4.52001 -5.0468 0
M  V30 10533 H 990.521 3.48387 -6.16467 0
M  V30 10534 H 990.929 3.50719 -4.42331 0
M  V30 10535 N 990.327 1.50405 0.470755 0
M  V30 10536 C 991.567 1.63049 1.23266 0
M  V30 10537 C 991.931 0.323815 1.8925 0
M  V30 10538 O 993.132 0.325692 2.6682 0
M  V30 10539 C 991.403 2.7783 2.24823 0
M  V30 10540 S 992.962 3.10609 3.09948 0
M  V30 10541 H 989.78 0.574787 0.418499 0
M  V30 10542 H 992.382 1.8819 0.529619 0
M  V30 10543 H 991.086 3.71252 1.74929 0
M  V30 10544 H 990.617 2.54776 2.99755 0
M  V30 10545 H 992.632 2.5446 4.25987 0
M  V30 10546 N 991.805 -0.723954 1.39988 0
M  V30 10547 C 993.035 -1.51094 1.40905 0
M  V30 10548 C 993.443 -1.89199 0.00476744 0
M  V30 10549 O 992.786 -1.55398 -0.979646 0
M  V30 10550 C 992.848 -2.82114 2.22827 0
M  V30 10551 C 992.512 -2.66379 3.71337 0
M  V30 10552 C 993.509 -2.34192 4.64166 0
M  V30 10553 C 991.194 -2.82905 4.15054 0
M  V30 10554 C 993.188 -2.18729 5.98696 0
M  V30 10555 C 990.875 -2.67059 5.49657 0
M  V30 10556 C 991.873 -2.35018 6.41292 0
M  V30 10557 O 991.561 -2.19284 7.73414 0
M  V30 10558 H 991.293 -0.473142 0.482818 0
M  V30 10559 H 993.847 -0.901321 1.84568 0
M  V30 10560 H 992.077 -3.45377 1.7393 0
M  V30 10561 H 993.766 -3.43789 2.15787 0
M  V30 10562 H 994.532 -2.21065 4.31689 0
M  V30 10563 H 990.411 -3.06834 3.44055 0
M  V30 10564 H 993.955 -1.93641 6.70186 0
M  V30 10565 H 989.852 -2.79768 5.81722 0
M  V30 10566 H 990.62 -2.34269 7.84258 0
M  V30 10567 N 993.283 -1.25346 -0.955304 0
M  V30 10568 C 994.508 -1.12892 -1.73983 0
M  V30 10569 C 994.933 0.313455 -1.8547 0
M  V30 10570 O 994.291 1.22706 -1.33465 0
M  V30 10571 C 994.339 -1.78729 -3.1319 0
M  V30 10572 O 993.443 -1.06648 -3.98372 0
M  V30 10573 H 992.784 -0.394178 -0.534341 0
M  V30 10574 H 995.314 -1.65897 -1.19747 0
M  V30 10575 H 995.324 -1.84987 -3.63653 0
M  V30 10576 H 993.999 -2.83669 -3.04146 0
M  V30 10577 H 992.576 -1.08266 -3.56837 0
M  V30 10578 N 994.761 1.15782 -1.06922 0
M  V30 10579 C 995.724 2.18578 -0.689654 0
M  V30 10580 C 996.724 1.58553 0.267872 0
M  V30 10581 O 997.914 1.7413 0.0494097 0
M  V30 10582 C 995.046 3.40896 -0.0157919 0
M  V30 10583 H 996.239 2.53672 -1.59971 0
M  V30 10584 H 993.792 1.30168 -0.865214 0
M  V30 10585 H 994.527 3.11367 0.906712 0
M  V30 10586 H 994.312 3.85721 -0.704415 0
M  V30 10587 H 995.802 4.16937 0.235266 0
M  V30 10588 N 996.239 0.8527 1.3254 0
M  V30 10589 C 997.169 0.311234 2.31416 0
M  V30 10590 C 998.15 -0.588557 1.59593 0
M  V30 10591 O 999.335 -0.509211 1.87405 0
M  V30 10592 C 996.465 -0.502892 3.4364 0
M  V30 10593 C 995.419 0.302296 4.26931 0
M  V30 10594 C 994.745 -0.636445 5.30899 0
M  V30 10595 C 996.045 1.52697 4.99481 0
M  V30 10596 H 997.739 1.13742 2.76953 0
M  V30 10597 H 995.285 0.548389 1.33149 0
M  V30 10598 H 997.238 -0.892092 4.11849 0
M  V30 10599 H 995.962 -1.36242 2.96826 0
M  V30 10600 H 994.621 0.673226 3.60365 0
M  V30 10601 H 994.269 -1.49277 4.80339 0
M  V30 10602 H 993.969 -0.101716 5.87512 0
M  V30 10603 H 995.493 -1.02286 6.01972 0
M  V30 10604 H 996.907 1.21017 5.60382 0
M  V30 10605 H 995.304 1.9995 5.65809 0
M  V30 10606 H 996.374 2.28929 4.27457 0
M  V30 10607 N 997.718 -1.45297 0.610449 0
M  V30 10608 C 998.964 -2.02518 0.106917 0
M  V30 10609 C 999.297 -1.47747 -1.26034 0
M  V30 10610 O 998.572 -0.65329 -1.832 0
M  V30 10611 C 998.855 -3.6003 0.0710975 0
M  V30 10612 C 998.708 -4.25128 1.46922 0
M  V30 10613 C 1000.03 -4.35778 -0.61524 0
M  V30 10614 H 997.146 -0.735896 0.040327 0
M  V30 10615 H 999.788 -1.73117 0.782968 0
M  V30 10616 H 997.938 -3.85209 -0.504611 0
M  V30 10617 H 999.61 -4.11125 2.09223 0
M  V30 10618 H 997.853 -3.83418 2.02911 0
M  V30 10619 H 998.524 -5.34046 1.39637 0
M  V30 10620 H 1001 -4.1591 -0.125871 0
M  V30 10621 H 999.876 -5.45506 -0.609419 0
M  V30 10622 H 1000.14 -4.08859 -1.68186 0
M  V30 10623 N 999.196 -0.349774 -1.5367 0
M  V30 10624 C 1000.42 0.246038 -2.05432 0
M  V30 10625 C 1000.84 1.43719 -1.22435 0
M  V30 10626 O 1000.2 1.80622 -0.261166 0
M  V30 10627 C 1000.25 0.65501 -3.55516 0
M  V30 10628 O 999.968 -0.488782 -4.35365 0
M  V30 10629 C 1001.47 1.31088 -4.23475 0
M  V30 10630 H 998.689 0.0463952 -0.669394 0
M  V30 10631 H 1001.23 -0.503566 -1.98203 0
M  V30 10632 H 999.388 1.35455 -3.62947 0
M  V30 10633 H 999.802 -0.161528 -5.24251 0
M  V30 10634 H 1001.28 1.54774 -5.29857 0
M  V30 10635 H 1001.75 2.26636 -3.76208 0
M  V30 10636 H 1002.36 0.653211 -4.20254 0
M  V30 10637 N 1000.67 1.57404 -0.0785433 0
M  V30 10638 C 1001.62 2.13104 0.88631 0
M  V30 10639 C 1002.59 1.04527 1.29086 0
M  V30 10640 O 1003.78 1.32226 1.37553 0
M  V30 10641 C 1000.92 2.70252 2.14611 0
M  V30 10642 C 1000.03 3.93007 1.79358 0
M  V30 10643 C 999.164 4.38376 3 0
M  V30 10644 C 998.203 5.53761 2.60796 0
M  V30 10645 N 997.34 5.94058 3.74219 0
M  V30 10646 H 1002.18 2.95243 0.404452 0
M  V30 10647 H 999.717 1.45894 0.187982 0
M  V30 10648 H 1001.67 3.01497 2.88367 0
M  V30 10649 H 1000.3 1.90868 2.60326 0
M  V30 10650 H 999.357 3.68181 0.956384 0
M  V30 10651 H 1000.67 4.76795 1.4652 0
M  V30 10652 H 999.823 4.71317 3.82027 0
M  V30 10653 H 998.562 3.53455 3.36037 0
M  V30 10654 H 997.567 5.20464 1.77192 0
M  V30 10655 H 998.792 6.40419 2.25922 0
M  V30 10656 H 996.738 5.12085 4.10005 0
M  V30 10657 H 996.655 6.72602 3.45171 0
M  V30 10658 H 997.923 6.31624 4.56805 0
M  V30 10659 N 1002.15 -0.195058 1.56388 0
M  V30 10660 C 1003.38 -0.931642 1.84738 0
M  V30 10661 C 1003.79 -1.76849 0.661046 0
M  V30 10662 O 1003.15 -1.78705 -0.370241 0
M  V30 10663 C 1003.2 -1.82777 3.11889 0
M  V30 10664 O 1002.92 -1.02471 4.25948 0
M  V30 10665 C 1004.42 -2.67603 3.53417 0
M  V30 10666 H 1001.64 -0.271821 0.613477 0
M  V30 10667 H 1004.19 -0.202299 2.03497 0
M  V30 10668 H 1002.34 -2.51074 2.95027 0
M  V30 10669 H 1002.76 -1.63539 4.98353 0
M  V30 10670 H 1004.23 -3.26138 4.45352 0
M  V30 10671 H 1004.71 -3.41314 2.76408 0
M  V30 10672 H 1005.31 -2.04678 3.7281 0
M  V30 10673 N 1003.63 -1.50653 -0.462772 0
M  V30 10674 C 1004.58 -1.70661 -1.58043 0
M  V30 10675 C 1005.57 -0.572533 -1.59432 0
M  V30 10676 O 1006.78 -0.753257 -1.63481 0
M  V30 10677 H 1003.15 -0.538805 -0.524588 0
M  V30 10678 H 1005.12 -2.64399 -1.38332 0
M  V30 10679 C 1003.87 -1.82558 -2.95919 0
M  V30 10680 H 1003.2 -2.69216 -2.95572 0
M  V30 10681 H 1004.64 -2.0058 -3.73556 0
M  V30 10682 C 1003.09 -0.57916 -3.31885 0
M  V30 10683 O 1003.62 0.277888 -4.00738 0
M  V30 10684 N 1001.83 -0.430723 -2.8739 0
M  V30 10685 H 1001.38 -1.1292 -2.31531 0
M  V30 10686 H 1001.34 0.402061 -3.11819 0
M  V30 10687 N 1005.11 0.71652 -1.4037 0
M  V30 10688 C 1006.52 1.02447 -1.22379 0
M  V30 10689 C 1006.72 2.0126 -0.0983394 0
M  V30 10690 O 1005.78 2.46569 0.544071 0
M  V30 10691 C 1007.09 1.56909 -2.56515 0
M  V30 10692 C 1008.64 1.68898 -2.6352 0
M  V30 10693 C 1009.12 2.26765 -3.97922 0
M  V30 10694 N 1010.61 2.34152 -3.99658 0
M  V30 10695 C 1011.34 2.79907 -5.00439 0
M  V30 10696 N 1010.84 3.25422 -6.11615 0
M  V30 10697 N 1012.63 2.79283 -4.87809 0
M  V30 10698 H 1004.78 0.0615306 -2.12311 0
M  V30 10699 H 1007.05 0.0898994 -0.943728 0
M  V30 10700 H 1006.75 0.917649 -3.39517 0
M  V30 10701 H 1006.63 2.55446 -2.77538 0
M  V30 10702 H 1009.01 2.33159 -1.8089 0
M  V30 10703 H 1009.09 0.689626 -2.46329 0
M  V30 10704 H 1008.74 1.63126 -4.80991 0
M  V30 10705 H 1008.67 3.27413 -4.12442 0
M  V30 10706 H 1011.16 2.02006 -3.19378 0
M  V30 10707 H 1011.47 3.58899 -6.84406 0
M  V30 10708 H 1009.82 3.23383 -6.15181 0
M  V30 10709 H 1013.01 2.43061 -4.00049 0
M  V30 10710 H 1013.18 3.14626 -5.66493 0
M  V30 10711 N 1006.59 1.25851 0.948643 0
M  V30 10712 C 1007.84 1.10347 1.68838 0
M  V30 10713 C 1008.15 -0.354262 1.92365 0
M  V30 10714 O 1009.35 -0.629847 2.64093 0
M  V30 10715 C 1007.81 1.92659 3.03991 0
M  V30 10716 C 1007.42 3.42962 2.88238 0
M  V30 10717 C 1009.16 1.85743 3.81707 0
M  V30 10718 C 1007.07 4.17547 4.18818 0
M  V30 10719 H 1006 0.409342 0.63321 0
M  V30 10720 H 1008.65 1.50098 1.05559 0
M  V30 10721 H 1007.03 1.45736 3.68208 0
M  V30 10722 H 1008.21 3.97601 2.32917 0
M  V30 10723 H 1006.52 3.51035 2.23972 0
M  V30 10724 H 1009.12 2.38758 4.78434 0
M  V30 10725 H 1009.46 0.826568 4.08012 0
M  V30 10726 H 1009.99 2.30449 3.2425 0
M  V30 10727 H 1006.73 5.21072 3.97699 0
M  V30 10728 H 1006.25 3.6769 4.73882 0
M  V30 10729 H 1007.93 4.25589 4.87322 0
M  V30 10730 N 1008.06 -1.15214 1.07534 0
M  V30 10731 C 1009.03 -2.18209 0.701237 0
M  V30 10732 C 1010.03 -1.58693 -0.25946 0
M  V30 10733 O 1011.22 -1.74154 -0.0401744 0
M  V30 10734 C 1008.35 -3.40883 0.0338703 0
M  V30 10735 H 1009.54 -2.5282 1.61314 0
M  V30 10736 H 1007.1 -1.29707 0.872105 0
M  V30 10737 H 1007.83 -3.11843 -0.890187 0
M  V30 10738 H 1007.62 -3.85342 0.72486 0
M  V30 10739 H 1009.11 -4.17056 -0.213152 0
M  V30 10740 N 1009.54 -0.859717 -1.32086 0
M  V30 10741 C 1010.96 -0.55025 -1.49815 0
M  V30 10742 C 1011.16 0.917966 -1.79376 0
M  V30 10743 O 1010.21 1.70073 -1.86632 0
M  V30 10744 C 1011.53 -1.44161 -2.6389 0
M  V30 10745 C 1013.08 -1.44257 -2.77775 0
M  V30 10746 C 1013.55 -2.31926 -3.94936 0
M  V30 10747 N 1015.04 -2.2975 -4.02206 0
M  V30 10748 C 1015.78 -2.9431 -4.92107 0
M  V30 10749 N 1015.27 -3.68001 -5.86981 0
M  V30 10750 N 1017.07 -2.83671 -4.8527 0
M  V30 10751 H 1009.22 -1.80987 -1.11164 0
M  V30 10752 H 1011.48 -0.773313 -0.548353 0
M  V30 10753 H 1011.19 -2.48588 -2.4879 0
M  V30 10754 H 1011.06 -1.13268 -3.59792 0
M  V30 10755 H 1013.45 -0.405923 -2.92295 0
M  V30 10756 H 1013.53 -1.79169 -1.82571 0
M  V30 10757 H 1013.17 -3.35661 -3.81174 0
M  V30 10758 H 1013.1 -1.94344 -4.89426 0
M  V30 10759 H 1015.59 -1.76177 -3.3432 0
M  V30 10760 H 1015.91 -4.14417 -6.52287 0
M  V30 10761 H 1014.25 -3.72109 -5.86992 0
M  V30 10762 H 1017.44 -2.25647 -4.10123 0
M  V30 10763 H 1017.61 -3.34267 -5.5513 0
M  V30 10764 N 1011.02 1.44971 -0.618145 0
M  V30 10765 C 1012.27 2.01372 -0.115004 0
M  V30 10766 C 1012.58 1.49104 1.26599 0
M  V30 10767 O 1013.79 1.97549 1.86244 0
M  V30 10768 C 1012.24 3.59567 -0.154883 0
M  V30 10769 C 1011.85 4.20832 -1.53639 0
M  V30 10770 C 1013.6 4.23491 0.292468 0
M  V30 10771 C 1011.5 5.7121 -1.53208 0
M  V30 10772 H 1010.43 0.752979 -0.0392267 0
M  V30 10773 H 1013.08 1.66329 -0.775032 0
M  V30 10774 H 1011.47 3.91847 0.572001 0
M  V30 10775 H 1012.64 4.00109 -2.28582 0
M  V30 10776 H 1010.96 3.69143 -1.92672 0
M  V30 10777 H 1013.55 5.33771 0.315032 0
M  V30 10778 H 1013.9 3.9491 1.31725 0
M  V30 10779 H 1014.43 3.95967 -0.381493 0
M  V30 10780 H 1011.17 6.04506 -2.53481 0
M  V30 10781 H 1010.69 5.94094 -0.825387 0
M  V30 10782 H 1012.37 6.34606 -1.26032 0
M  V30 10783 N 1012.5 0.357919 1.53482 0
M  V30 10784 C 1013.43 -0.484231 2.28424 0
M  V30 10785 C 1014.41 -1.09046 1.30548 0
M  V30 10786 O 1015.59 -1.10916 1.59409 0
M  V30 10787 C 1012.72 -1.62803 3.06778 0
M  V30 10788 C 1011.68 -1.14943 4.12277 0
M  V30 10789 C 1011 -2.38287 4.78669 0
M  V30 10790 C 1012.3 -0.239627 5.2175 0
M  V30 10791 H 1014 0.140979 2.99068 0
M  V30 10792 H 1011.54 0.069244 1.43833 0
M  V30 10793 H 1013.5 -2.22374 3.57949 0
M  V30 10794 H 1012.22 -2.28036 2.3381 0
M  V30 10795 H 1010.88 -0.576442 3.6204 0
M  V30 10796 H 1010.53 -3.01959 4.02281 0
M  V30 10797 H 1010.23 -2.06939 5.49955 0
M  V30 10798 H 1011.75 -2.98558 5.32631 0
M  V30 10799 H 1013.17 -0.742597 5.6847 0
M  V30 10800 H 1011.56 -0.0173747 6.00097 0
M  V30 10801 H 1012.63 0.720333 4.7952 0
M  V30 10802 N 1013.98 -1.5736 0.0868897 0
M  V30 10803 C 1014.94 -2.12436 -0.860439 0
M  V30 10804 C 1015.94 -1.05175 -1.21634 0
M  V30 10805 O 1017.13 -1.31098 -1.14713 0
M  V30 10806 C 1014.26 -2.63818 -2.159 0
M  V30 10807 H 1015.45 -2.97453 -0.382346 0
M  V30 10808 H 1013.01 -1.55458 -0.162009 0
M  V30 10809 H 1013.74 -1.82298 -2.68212 0
M  V30 10810 H 1013.53 -3.42234 -1.91359 0
M  V30 10811 H 1015.02 -3.06452 -2.83685 0
M  V30 10812 N 1015.45 0.186762 -1.56489 0
M  V30 10813 C 1016.7 0.904063 -1.80752 0
M  V30 10814 C 1017.02 1.83443 -0.661343 0
M  V30 10815 O 1016.29 1.93272 0.319811 0
M  V30 10816 H 1014.87 0.336828 -0.66675 0
M  V30 10817 H 1017.54 0.190275 -1.93969 0
M  V30 10818 H 1016.63 1.49021 -2.74225 0
M  V30 10819 N 1016.93 1.50896 0.454776 0
M  V30 10820 C 1018.16 1.66759 1.23313 0
M  V30 10821 C 1018.58 0.35722 1.84677 0
M  V30 10822 O 1017.94 -0.680771 1.68033 0
M  V30 10823 C 1017.99 2.77254 2.3057 0
M  V30 10824 O 1017.09 2.39642 3.35627 0
M  V30 10825 H 1016.43 0.556599 0.362068 0
M  V30 10826 H 1018.96 1.97365 0.539274 0
M  V30 10827 H 1018.97 3.0082 2.75629 0
M  V30 10828 H 1017.65 3.72349 1.85281 0
M  V30 10829 H 1016.23 2.26584 2.96165 0
M  V30 10830 N 1018.41 -0.709066 1.40748 0
M  V30 10831 C 1019.36 -1.82312 1.4153 0
M  V30 10832 C 1020.33 -1.63868 0.271392 0
M  V30 10833 O 1021.51 -1.8491 0.470431 0
M  V30 10834 C 1018.65 -3.2008 1.29006 0
M  V30 10835 C 1017.77 -3.50051 2.53156 0
M  V30 10836 C 1016.9 -4.7736 2.33025 0
M  V30 10837 C 1015.94 -5.00255 3.52719 0
M  V30 10838 N 1015.08 -6.18782 3.31743 0
M  V30 10839 H 1019.92 -1.80978 2.36751 0
M  V30 10840 H 1017.45 -0.883975 1.17577 0
M  V30 10841 H 1019.41 -3.99645 1.19749 0
M  V30 10842 H 1018.04 -3.20626 0.374014 0
M  V30 10843 H 1017.09 -2.64993 2.72916 0
M  V30 10844 H 1018.41 -3.62877 3.42231 0
M  V30 10845 H 1017.56 -5.64954 2.21159 0
M  V30 10846 H 1016.3 -4.66756 1.41386 0
M  V30 10847 H 1015.3 -4.11114 3.65055 0
M  V30 10848 H 1016.53 -5.12728 4.45295 0
M  V30 10849 H 1014.47 -6.09416 2.42791 0
M  V30 10850 H 1014.39 -6.32313 4.14386 0
M  V30 10851 H 1015.66 -7.09146 3.23623 0
M  V30 10852 N 1019.89 -1.26353 -0.941956 0
M  V30 10853 C 1020.84 -1.07842 -2.04056 0
M  V30 10854 C 1021.81 0.0163064 -1.66092 0
M  V30 10855 O 1022.99 -0.143313 -1.90261 0
M  V30 10856 C 1020.13 -0.716636 -3.37577 0
M  V30 10857 C 1019.24 -1.88754 -3.88582 0
M  V30 10858 C 1018.38 -1.46893 -5.10486 0
M  V30 10859 C 1017.42 -2.60819 -5.53751 0
M  V30 10860 N 1016.56 -2.19646 -6.66858 0
M  V30 10861 H 1021.4 -2.01856 -2.19221 0
M  V30 10862 H 1018.93 -1.00504 -1.07412 0
M  V30 10863 H 1020.89 -0.487768 -4.14339 0
M  V30 10864 H 1019.52 0.18653 -3.22261 0
M  V30 10865 H 1018.57 -2.22936 -3.08227 0
M  V30 10866 H 1019.88 -2.74264 -4.1663 0
M  V30 10867 H 1019.04 -1.20047 -5.94705 0
M  V30 10868 H 1017.78 -0.584721 -4.84182 0
M  V30 10869 H 1016.78 -2.88396 -4.6809 0
M  V30 10870 H 1018.01 -3.49838 -5.82057 0
M  V30 10871 H 1015.95 -1.33657 -6.4224 0
M  V30 10872 H 1015.87 -2.987 -6.94489 0
M  V30 10873 H 1017.14 -1.96009 -7.54454 0
M  V30 10874 N 1021.37 1.14642 -1.08144 0
M  V30 10875 C 1022.31 2.1964 -0.708995 0
M  V30 10876 C 1023.28 1.63303 0.303512 0
M  V30 10877 O 1024.47 1.8987 0.18813 0
M  V30 10878 C 1021.61 3.44886 -0.121585 0
M  V30 10879 C 1020.72 4.15386 -1.18654 0
M  V30 10880 C 1019.86 5.28205 -0.56328 0
M  V30 10881 C 1018.9 5.90534 -1.61046 0
M  V30 10882 N 1018.03 6.94809 -1.00919 0
M  V30 10883 H 1022.87 2.50848 -1.6087 0
M  V30 10884 H 1020.41 1.23185 -0.803975 0
M  V30 10885 H 1022.37 4.16528 0.23668 0
M  V30 10886 H 1021 3.14169 0.741445 0
M  V30 10887 H 1020.05 3.42159 -1.66227 0
M  V30 10888 H 1021.36 4.57809 -1.9802 0
M  V30 10889 H 1020.52 6.06507 -0.153109 0
M  V30 10890 H 1019.26 4.86995 0.262066 0
M  V30 10891 H 1018.26 5.10938 -2.03033 0
M  V30 10892 H 1019.49 6.33819 -2.43824 0
M  V30 10893 H 1017.43 6.5568 -0.204894 0
M  V30 10894 H 1017.35 7.35704 -1.73999 0
M  V30 10895 H 1018.62 7.76992 -0.624792 0
M  V30 10896 N 1022.85 0.866709 1.31628 0
M  V30 10897 C 1024.09 0.472185 1.96095 0
M  V30 10898 C 1024.41 -0.979873 1.69286 0
M  V30 10899 O 1025.61 -1.48039 2.27589 0
M  V30 10900 C 1024.07 0.793468 3.51044 0
M  V30 10901 C 1023.68 2.26206 3.86697 0
M  V30 10902 C 1025.42 0.467255 4.21921 0
M  V30 10903 C 1023.33 2.52593 5.34743 0
M  V30 10904 H 1022.26 0.172846 0.733921 0
M  V30 10905 H 1024.91 1.05916 1.49847 0
M  V30 10906 H 1023.29 0.135783 3.95767 0
M  V30 10907 H 1024.47 2.96254 3.52945 0
M  V30 10908 H 1022.78 2.55399 3.28877 0
M  V30 10909 H 1025.38 0.641669 5.30836 0
M  V30 10910 H 1025.72 -0.592065 4.12068 0
M  V30 10911 H 1026.25 1.08134 3.82821 0
M  V30 10912 H 1022.99 3.57196 5.49628 0
M  V30 10913 H 1022.51 1.87136 5.6986 0
M  V30 10914 H 1024.19 2.37156 6.01968 0
M  V30 10915 N 1024.32 -1.44642 0.625825 0
M  V30 10916 C 1025.56 -2.03977 0.131444 0
M  V30 10917 C 1025.93 -1.48122 -1.22163 0
M  V30 10918 O 1027.13 -1.98926 -1.80781 0
M  V30 10919 C 1025.4 -3.57224 0.112032 0
M  V30 10920 S 1026.96 -4.37643 -0.318501 0
M  V30 10921 H 1023.78 -0.70859 0.0584859 0
M  V30 10922 H 1026.38 -1.77099 0.828024 0
M  V30 10923 H 1025.08 -3.95383 1.10001 0
M  V30 10924 H 1024.61 -3.88705 -0.605965 0
M  V30 10925 H 1026.63 -4.70909 -1.56393 0
M  V30 10926 N 1025.8 -0.366053 -1.5329 0
M  V30 10927 C 1027.03 0.224236 -2.05681 0
M  V30 10928 C 1027.44 1.42412 -1.23952 0
M  V30 10929 O 1026.8 1.80334 -0.280309 0
M  V30 10930 C 1026.85 0.617266 -3.56191 0
M  V30 10931 O 1026.57 -0.534931 -4.34822 0
M  V30 10932 C 1028.07 1.26589 -4.24841 0
M  V30 10933 H 1025.29 0.0392928 -0.669849 0
M  V30 10934 H 1027.84 -0.52456 -1.97658 0
M  V30 10935 H 1025.99 1.31598 -3.64364 0
M  V30 10936 H 1026.41 -0.217123 -5.2405 0
M  V30 10937 H 1027.88 1.49146 -5.31469 0
M  V30 10938 H 1028.36 2.22633 -3.78591 0
M  V30 10939 H 1028.96 0.6086 -4.20923 0
M  V30 10940 N 1027.28 1.57312 -0.0952337 0
M  V30 10941 C 1028.7 1.57445 0.261416 0
M  V30 10942 C 1028.9 1.10639 1.68408 0
M  V30 10943 O 1027.95 0.782912 2.40056 0
M  V30 10944 C 1029.26 3.00659 0.0497206 0
M  V30 10945 C 1030.81 3.1278 0.117459 0
M  V30 10946 C 1031.29 4.57952 -0.0662441 0
M  V30 10947 N 1032.78 4.63199 -0.0114146 0
M  V30 10948 C 1033.51 5.73255 -0.128799 0
M  V30 10949 N 1033.01 6.92146 -0.301026 0
M  V30 10950 N 1034.8 5.62056 -0.0700599 0
M  V30 10951 H 1026.95 1.86045 -1.02475 0
M  V30 10952 H 1029.22 0.858726 -0.401614 0
M  V30 10953 H 1028.92 3.39102 -0.932888 0
M  V30 10954 H 1028.8 3.68792 0.791975 0
M  V30 10955 H 1031.18 2.74209 1.09057 0
M  V30 10956 H 1031.26 2.47238 -0.656288 0
M  V30 10957 H 1030.91 4.97217 -1.03623 0
M  V30 10958 H 1030.84 5.21555 0.727198 0
M  V30 10959 H 1033.33 3.77712 0.119154 0
M  V30 10960 H 1033.64 7.71855 -0.382104 0
M  V30 10961 H 1031.99 6.94184 -0.336695 0
M  V30 10962 H 1035.18 4.68057 0.0633587 0
M  V30 10963 H 1035.35 6.4779 -0.164991 0
M  V30 10964 N 1028.76 -0.17846 1.56586 0
M  V30 10965 C 1029.7 -1.22104 1.95855 0
M  V30 10966 C 1030.67 -1.44366 0.821447 0
M  V30 10967 O 1031.86 -1.57224 1.08098 0
M  V30 10968 C 1029 -2.55701 2.31757 0
M  V30 10969 C 1028.11 -2.40879 3.5861 0
M  V30 10970 C 1027.25 -3.67293 3.83757 0
M  V30 10971 C 1026.29 -3.47373 5.03982 0
M  V30 10972 N 1025.42 -4.65839 5.25298 0
M  V30 10973 H 1030.26 -0.879168 2.84736 0
M  V30 10974 H 1027.8 -0.422721 1.40895 0
M  V30 10975 H 1029.76 -3.33556 2.50592 0
M  V30 10976 H 1028.39 -2.87898 1.45995 0
M  V30 10977 H 1027.44 -1.54236 3.47729 0
M  V30 10978 H 1028.75 -2.22102 4.46623 0
M  V30 10979 H 1027.91 -4.53584 4.02922 0
M  V30 10980 H 1026.65 -3.89041 2.94107 0
M  V30 10981 H 1025.65 -2.59467 4.84723 0
M  V30 10982 H 1026.88 -3.27055 5.95157 0
M  V30 10983 H 1024.82 -4.8782 4.38598 0
M  V30 10984 H 1024.74 -4.4995 6.0752 0
M  V30 10985 H 1026.01 -5.53435 5.48936 0
M  V30 10986 N 1030.24 -1.51135 -0.446768 0
M  V30 10987 C 1031.65 -1.55919 -1.02694 0
M  V30 10988 C 1032 -0.377038 -1.92543 0
M  V30 10989 O 1031.12 0.507295 -2.1037 0
M  V30 10990 C 1031.72 -2.8257 -1.86922 0
M  V30 10991 C 1030.28 -2.89956 -2.40005 0
M  V30 10992 C 1029.42 -2.50482 -1.18971 0
M  V30 10993 H 1032.37 -1.57048 -0.228403 0
M  V30 10994 H 1032.4 -2.65799 -2.7227 0
M  V30 10995 H 1031.91 -3.6859 -1.21502 0
M  V30 10996 H 1030.01 -2.08343 -3.08907 0
M  V30 10997 H 1030.12 -3.93399 -2.73448 0
M  V30 10998 H 1028.49 -2.03466 -1.53211 0
M  V30 10999 H 1029.27 -3.38837 -0.551762 0
M  V30 11000 N 1031.71 0.701592 -1.41122 0
M  V30 11001 C 1033.13 1.01143 -1.23459 0
M  V30 11002 C 1033.33 2.01144 -0.11968 0
M  V30 11003 O 1032.39 2.47132 0.517889 0
M  V30 11004 C 1033.7 1.54179 -2.58165 0
M  V30 11005 C 1035.25 1.66093 -2.65296 0
M  V30 11006 C 1035.72 2.22532 -4.00304 0
M  V30 11007 N 1037.21 2.299 -4.0212 0
M  V30 11008 C 1037.95 2.74584 -5.0338 0
M  V30 11009 N 1037.44 3.18917 -6.15032 0
M  V30 11010 N 1039.24 2.74094 -4.90743 0
M  V30 11011 H 1031.39 0.0390087 -2.12364 0
M  V30 11012 H 1033.65 0.0798848 -0.944628 0
M  V30 11013 H 1033.36 0.881587 -3.40472 0
M  V30 11014 H 1033.23 2.52488 -2.80231 0
M  V30 11015 H 1035.62 2.31227 -1.83352 0
M  V30 11016 H 1035.7 0.663461 -2.47046 0
M  V30 11017 H 1035.34 1.58016 -4.82694 0
M  V30 11018 H 1035.27 3.2302 -4.15891 0
M  V30 11019 H 1037.76 1.98607 -3.21502 0
M  V30 11020 H 1038.08 3.5162 -6.88174 0
M  V30 11021 H 1036.42 3.1684 -6.18577 0
M  V30 11022 H 1039.61 2.38804 -4.02604 0
M  V30 11023 H 1039.79 3.086 -5.69798 0
M  V30 11024 N 1033.19 1.2685 0.935242 0
M  V30 11025 C 1034.44 1.12745 1.68211 0
M  V30 11026 C 1034.77 -0.328128 1.91712 0
M  V30 11027 O 1034.02 -1.25701 1.49993 0
M  V30 11028 C 1034.32 1.8482 3.05903 0
M  V30 11029 C 1033.99 3.347 3.02137 0
M  V30 11030 C 1032.65 3.75583 3.00817 0
M  V30 11031 C 1035 4.30368 2.93995 0
M  V30 11032 C 1032.33 5.10511 2.89129 0
M  V30 11033 C 1034.68 5.65343 2.83848 0
M  V30 11034 C 1033.34 6.0553 2.80874 0
M  V30 11035 H 1032.61 0.412563 0.615527 0
M  V30 11036 H 1035.26 1.57366 1.09124 0
M  V30 11037 H 1033.57 1.32685 3.68649 0
M  V30 11038 H 1035.26 1.71341 3.62551 0
M  V30 11039 H 1031.85 3.02182 3.03947 0
M  V30 11040 H 1036.04 3.9976 2.94118 0
M  V30 11041 H 1031.29 5.40802 2.85208 0
M  V30 11042 H 1035.47 6.39151 2.76512 0
M  V30 11043 H 1033.09 7.10037 2.71573 0
M  V30 11044 N 1034.67 -1.14067 1.0875 0
M  V30 11045 C 1035.6 -2.18306 0.664652 0
M  V30 11046 C 1036.58 -1.59312 -0.325359 0
M  V30 11047 O 1037.77 -1.87111 -0.228385 0
M  V30 11048 C 1034.89 -3.38693 -0.0218723 0
M  V30 11049 C 1033.94 -4.16263 0.928844 0
M  V30 11050 S 1034.77 -4.76817 2.43734 0
M  V30 11051 C 1035.93 -6.00557 1.76302 0
M  V30 11052 H 1036.16 -2.53837 1.54772 0
M  V30 11053 H 1033.69 -1.25254 0.902817 0
M  V30 11054 H 1035.65 -4.0843 -0.411686 0
M  V30 11055 H 1034.31 -3.01478 -0.881481 0
M  V30 11056 H 1033.51 -5.02446 0.395446 0
M  V30 11057 H 1033.11 -3.52146 1.25972 0
M  V30 11058 H 1035.4 -6.68788 1.08301 0
M  V30 11059 H 1036.34 -6.58492 2.60373 0
M  V30 11060 H 1036.75 -5.50827 1.23489 0
M  V30 11061 N 1036.15 -0.873678 -1.31166 0
M  V30 11062 C 1037.37 -0.500242 -2.01277 0
M  V30 11063 C 1037.8 0.900811 -1.65127 0
M  V30 11064 O 1037.16 1.59504 -0.861862 0
M  V30 11065 C 1037.2 -0.668976 -3.5434 0
M  V30 11066 O 1036.31 0.290096 -4.11378 0
M  V30 11067 H 1035.65 -0.198507 -0.633633 0
M  V30 11068 H 1038.18 -1.17811 -1.67277 0
M  V30 11069 H 1038.19 -0.563673 -4.04088 0
M  V30 11070 H 1036.86 -1.69055 -3.79991 0
M  V30 11071 H 1035.44 0.139437 -3.72639 0
M  V30 11072 N 1037.63 1.44308 -0.633487 0
M  V30 11073 C 1038.59 2.2912 0.060376 0
M  V30 11074 C 1039.59 1.41166 0.769992 0
M  V30 11075 O 1040.78 1.63012 0.614224 0
M  V30 11076 C 1037.91 3.22798 1.0961 0
M  V30 11077 H 1039.1 2.91958 -0.685617 0
M  V30 11078 H 1036.66 1.51259 -0.393738 0
M  V30 11079 H 1037.39 2.64815 1.87199 0
M  V30 11080 H 1037.18 3.87618 0.591161 0
M  V30 11081 H 1038.67 3.86504 1.58127 0
M  V30 11082 N 1039.1 0.374177 1.53094 0
M  V30 11083 C 1040.35 -0.205669 2.02358 0
M  V30 11084 C 1040.71 -1.4572 1.25633 0
M  V30 11085 O 1040 -1.88487 0.343977 0
M  V30 11086 C 1040.19 -0.542179 3.53264 0
M  V30 11087 C 1040.02 0.675186 4.44602 0
M  V30 11088 C 1038.79 1.18987 4.91091 0
M  V30 11089 C 1040.99 1.54299 4.90608 0
M  V30 11090 N 1038.97 2.36637 5.66459 0
M  V30 11091 C 1040.34 2.56605 5.64406 0
M  V30 11092 C 1042.4 1.56486 4.7267 0
M  V30 11093 C 1041.1 3.60965 6.22171 0
M  V30 11094 C 1043.13 2.59745 5.31307 0
M  V30 11095 C 1042.49 3.60774 6.04997 0
M  V30 11096 H 1038.59 -0.0377471 0.781088 0
M  V30 11097 H 1041.17 0.520661 1.87609 0
M  V30 11098 H 1039.34 -1.23758 3.68156 0
M  V30 11099 H 1041.07 -1.10786 3.89241 0
M  V30 11100 H 1037.83 0.753181 4.67573 0
M  V30 11101 H 1038.25 2.96123 6.08802 0
M  V30 11102 H 1042.9 0.797296 4.15214 0
M  V30 11103 H 1040.61 4.38599 6.78717 0
M  V30 11104 H 1044.2 2.62301 5.19316 0
M  V30 11105 H 1043.08 4.39363 6.49561 0
M  V30 11106 N 1040.58 -1.57259 0.103575 0
M  V30 11107 C 1041.55 -2.13337 -0.837859 0
M  V30 11108 C 1042.55 -1.06459 -1.20512 0
M  V30 11109 O 1043.74 -1.32307 -1.13316 0
M  V30 11110 C 1040.87 -2.66093 -2.13089 0
M  V30 11111 H 1042.06 -2.97842 -0.350775 0
M  V30 11112 H 1039.61 -1.55621 -0.145511 0
M  V30 11113 H 1040.35 -1.85133 -2.66264 0
M  V30 11114 H 1040.13 -3.44244 -1.87719 0
M  V30 11115 H 1041.62 -3.09443 -2.80419 0
M  V30 11116 N 1042.06 0.170153 -1.56679 0
M  V30 11117 C 1042.99 1.23525 -1.93066 0
M  V30 11118 C 1044.01 1.40414 -0.823879 0
M  V30 11119 O 1045.19 1.40396 -1.10232 0
M  V30 11120 C 1042.29 2.60376 -2.16928 0
M  V30 11121 C 1041.47 2.6477 -3.4816 0
M  V30 11122 C 1040.53 3.82993 -3.60837 0
M  V30 11123 O 1039.55 3.68937 -4.33444 0
M  V30 11124 N 1040.75 4.99498 -2.95773 0
M  V30 11125 H 1043.52 0.926172 -2.8503 0
M  V30 11126 H 1041.08 0.359909 -1.57849 0
M  V30 11127 H 1043.07 3.37934 -2.22672 0
M  V30 11128 H 1041.64 2.83669 -1.31342 0
M  V30 11129 H 1040.86 1.73298 -3.54064 0
M  V30 11130 H 1042.15 2.64717 -4.34514 0
M  V30 11131 H 1041.55 5.13819 -2.36657 0
M  V30 11132 H 1040.11 5.74914 -3.07111 0
M  V30 11133 N 1043.54 1.5137 0.438746 0
M  V30 11134 C 1044.78 1.64211 1.19006 0
M  V30 11135 C 1045.12 0.356607 1.90898 0
M  V30 11136 O 1044.39 -0.643722 1.83539 0
M  V30 11137 C 1044.68 2.8445 2.20817 0
M  V30 11138 C 1044.53 4.22972 1.53018 0
M  V30 11139 C 1045.85 3.00207 3.21813 0
M  V30 11140 H 1042.97 0.597628 0.431288 0
M  V30 11141 H 1045.61 1.8385 0.479487 0
M  V30 11142 H 1043.76 2.67836 2.81418 0
M  V30 11143 H 1045.43 4.5125 0.957654 0
M  V30 11144 H 1043.67 4.25736 0.832556 0
M  V30 11145 H 1044.34 5.03094 2.27158 0
M  V30 11146 H 1046.82 3.15522 2.71266 0
M  V30 11147 H 1045.7 3.85904 3.90345 0
M  V30 11148 H 1045.96 2.12216 3.87836 0
M  V30 11149 N 1045.02 -0.694098 1.41492 0
M  V30 11150 C 1046.27 -1.4498 1.40227 0
M  V30 11151 C 1046.58 -1.95594 0.0151253 0
M  V30 11152 O 1047.78 -2.71234 -0.120146 0
M  V30 11153 C 1046.24 -2.62171 2.46565 0
M  V30 11154 C 1045.85 -2.18337 3.91194 0
M  V30 11155 C 1047.59 -3.39796 2.54439 0
M  V30 11156 C 1045.5 -3.32495 4.89082 0
M  V30 11157 H 1044.43 -0.544584 0.521483 0
M  V30 11158 H 1047.08 -0.75337 1.67322 0
M  V30 11159 H 1045.46 -3.34089 2.12604 0
M  V30 11160 H 1046.64 -1.53698 4.34412 0
M  V30 11161 H 1044.95 -1.53702 3.86994 0
M  V30 11162 H 1047.55 -4.2478 3.24755 0
M  V30 11163 H 1047.89 -3.85082 1.5817 0
M  V30 11164 H 1048.42 -2.74935 2.87499 0
M  V30 11165 H 1045.16 -2.92219 5.86761 0
M  V30 11166 H 1044.68 -3.95978 4.50512 0
M  V30 11167 H 1046.36 -3.98251 5.09907 0
M  V30 11168 N 1046.49 -1.27344 -0.928501 0
M  V30 11169 C 1047.74 -1.13019 -1.67061 0
M  V30 11170 C 1048.06 0.323614 -1.92904 0
M  V30 11171 O 1049.26 0.587752 -2.65062 0
M  V30 11172 C 1047.72 -1.97471 -3.00887 0
M  V30 11173 C 1047.33 -3.47504 -2.82746 0
M  V30 11174 C 1049.07 -1.91792 -3.78703 0
M  V30 11175 C 1046.98 -4.24158 -4.12122 0
M  V30 11176 H 1045.91 -0.419364 -0.626618 0
M  V30 11177 H 1048.56 -1.51759 -1.03158 0
M  V30 11178 H 1046.94 -1.51576 -3.65843 0
M  V30 11179 H 1048.11 -4.01256 -2.26562 0
M  V30 11180 H 1046.43 -3.54554 -2.18359 0
M  V30 11181 H 1049.03 -2.46339 -4.74575 0
M  V30 11182 H 1049.37 -0.891375 -4.06645 0
M  V30 11183 H 1049.9 -2.35578 -3.20543 0
M  V30 11184 H 1046.64 -5.27333 -3.89359 0
M  V30 11185 H 1046.16 -3.75183 -4.67972 0
M  V30 11186 H 1047.84 -4.33288 -4.80489 0
M  V30 11187 N 1047.97 1.13488 -1.09353 0
M  V30 11188 C 1048.94 2.17066 -0.735863 0
M  V30 11189 C 1049.94 1.59086 0.234181 0
M  V30 11190 O 1051.13 1.74196 0.012463 0
M  V30 11191 C 1048.26 3.40786 -0.0880975 0
M  V30 11192 H 1049.45 2.50221 -1.65316 0
M  V30 11193 H 1047 1.28304 -0.89263 0
M  V30 11194 H 1047.74 3.1322 0.840462 0
M  V30 11195 H 1047.52 3.8414 -0.786073 0
M  V30 11196 H 1049.01 4.17342 0.146775 0
M  V30 11197 N 1049.45 0.880621 1.30701 0
M  V30 11198 C 1050.68 0.510909 2.01009 0
M  V30 11199 C 1051.1 -0.892041 1.65603 0
M  V30 11200 O 1050.46 -1.59045 0.870309 0
M  V30 11201 C 1050.51 0.687759 3.53981 0
M  V30 11202 O 1049.61 -0.268275 4.11526 0
M  V30 11203 H 1048.95 0.201864 0.632572 0
M  V30 11204 H 1051.48 1.18697 1.6665 0
M  V30 11205 H 1051.49 0.585095 4.03783 0
M  V30 11206 H 1050.17 1.71068 3.79089 0
M  V30 11207 H 1048.74 -0.119673 3.72708 0
M  V30 11208 N 1050.93 -1.4397 0.641131 0
M  V30 11209 C 1052.18 -2.01163 0.147026 0
M  V30 11210 C 1052.49 -1.51099 -1.24211 0
M  V30 11211 O 1053.7 -2.00487 -1.83078 0
M  V30 11212 C 1052.15 -3.59275 0.212068 0
M  V30 11213 C 1051.76 -4.18334 1.60314 0
M  V30 11214 C 1053.51 -4.23903 -0.225057 0
M  V30 11215 C 1051.41 -5.68701 1.62276 0
M  V30 11216 H 1050.34 -0.75226 0.051201 0
M  V30 11217 H 1052.99 -1.65075 0.801396 0
M  V30 11218 H 1051.38 -3.92708 -0.509589 0
M  V30 11219 H 1052.55 -3.96422 2.34918 0
M  V30 11220 H 1050.86 -3.66031 1.9852 0
M  V30 11221 H 1053.46 -5.34205 -0.230074 0
M  V30 11222 H 1053.8 -3.96956 -1.25426 0
M  V30 11223 H 1054.34 -3.95309 0.44444 0
M  V30 11224 H 1051.08 -6.00397 2.63066 0
M  V30 11225 H 1050.6 -5.92705 0.919797 0
M  V30 11226 H 1052.28 -6.32521 1.36112 0
M  V30 11227 N 1052.41 -0.382291 -1.52893 0
M  V30 11228 C 1053.34 0.447829 -2.29165 0
M  V30 11229 C 1054.32 1.06956 -1.32267 0
M  V30 11230 O 1055.5 1.08365 -1.61154 0
M  V30 11231 C 1052.63 1.57902 -3.09329 0
M  V30 11232 C 1051.59 1.08369 -4.14053 0
M  V30 11233 C 1050.91 2.30641 -4.82399 0
M  V30 11234 C 1052.21 0.156591 -5.22065 0
M  V30 11235 H 1053.91 -0.188541 -2.98806 0
M  V30 11236 H 1051.45 -0.0921179 -1.43705 0
M  V30 11237 H 1053.41 2.16652 -3.61442 0
M  V30 11238 H 1052.13 2.24287 -2.37409 0
M  V30 11239 H 1050.79 0.518772 -3.62911 0
M  V30 11240 H 1050.44 2.9552 -4.07034 0
M  V30 11241 H 1050.14 1.98163 -5.53177 0
M  V30 11242 H 1051.66 2.90047 -5.37313 0
M  V30 11243 H 1053.08 0.652065 -5.6958 0
M  V30 11244 H 1051.47 -0.0780978 -6.00049 0
M  V30 11245 H 1052.54 -0.796529 -4.78313 0
M  V30 11246 N 1053.89 1.57202 -0.111913 0
M  V30 11247 C 1055.13 1.94125 0.547573 0
M  V30 11248 C 1055.45 0.997026 1.68282 0
M  V30 11249 O 1056.65 1.26063 2.40459 0
M  V30 11250 C 1055.11 3.44982 1.02545 0
M  V30 11251 C 1054.72 4.47927 -0.0809529 0
M  V30 11252 C 1056.46 3.90837 1.65671 0
M  V30 11253 C 1054.37 5.89955 0.413224 0
M  V30 11254 H 1053.3 0.724651 0.208321 0
M  V30 11255 H 1055.95 1.82507 -0.190625 0
M  V30 11256 H 1054.33 3.5181 1.81785 0
M  V30 11257 H 1055.51 4.52761 -0.857003 0
M  V30 11258 H 1053.82 4.11782 -0.618434 0
M  V30 11259 H 1056.42 4.9436 2.03746 0
M  V30 11260 H 1056.76 3.30417 2.53239 0
M  V30 11261 H 1057.29 3.8678 0.929844 0
M  V30 11262 H 1054.03 6.54113 -0.426238 0
M  V30 11263 H 1053.55 5.88557 1.15591 0
M  V30 11264 H 1055.23 6.41032 0.876756 0
M  V30 11265 N 1055.36 -0.161842 1.56767 0
M  V30 11266 C 1056.59 -0.896274 1.87034 0
M  V30 11267 C 1057.01 -1.74617 0.699314 0
M  V30 11268 O 1056.37 -1.77861 -0.351435 0
M  V30 11269 C 1056.42 -1.74105 3.15784 0
M  V30 11270 O 1055.52 -2.84372 2.98674 0
M  V30 11271 H 1054.86 -0.250523 0.614926 0
M  V30 11272 H 1057.39 -0.157127 2.03996 0
M  V30 11273 H 1057.4 -2.13907 3.4743 0
M  V30 11274 H 1056.08 -1.11684 4.00624 0
M  V30 11275 H 1054.66 -2.48084 2.78404 0
M  V30 11276 N 1056.84 -1.516 -0.430713 0
M  V30 11277 C 1058.09 -1.6484 -1.18134 0
M  V30 11278 C 1058.42 -0.366725 -1.90706 0
M  V30 11279 O 1057.7 0.63398 -1.83878 0
M  V30 11280 C 1057.98 -2.85617 -2.19306 0
M  V30 11281 C 1057.83 -4.23778 -1.50773 0
M  V30 11282 C 1059.15 -3.01909 -3.20217 0
M  V30 11283 H 1056.27 -0.599907 -0.428113 0
M  V30 11284 H 1058.91 -1.84102 -0.46973 0
M  V30 11285 H 1057.06 -2.69325 -2.79993 0
M  V30 11286 H 1058.73 -4.51752 -0.93371 0
M  V30 11287 H 1056.98 -4.26171 -0.809966 0
M  V30 11288 H 1057.65 -5.04291 -2.24487 0
M  V30 11289 H 1060.12 -3.16956 -2.69589 0
M  V30 11290 H 1059 -3.87968 -3.88293 0
M  V30 11291 H 1059.26 -2.1427 -3.86705 0
M  V30 11292 N 1058.32 0.686584 -1.41858 0
M  V30 11293 C 1059.25 1.81202 -1.40352 0
M  V30 11294 C 1060.26 1.5993 -0.304322 0
M  V30 11295 O 1061.45 1.69267 -0.566643 0
M  V30 11296 C 1058.55 3.18116 -1.16856 0
M  V30 11297 C 1057.73 3.66339 -2.38987 0
M  V30 11298 C 1056.79 4.8195 -2.11212 0
M  V30 11299 O 1055.81 4.93102 -2.84323 0
M  V30 11300 N 1057.01 5.69829 -1.10793 0
M  V30 11301 H 1059.78 1.82983 -2.37355 0
M  V30 11302 H 1057.34 0.869244 -1.36586 0
M  V30 11303 H 1059.33 3.93097 -0.962125 0
M  V30 11304 H 1057.9 3.11306 -0.284186 0
M  V30 11305 H 1057.12 2.82166 -2.75274 0
M  V30 11306 H 1058.41 3.95297 -3.2034 0
M  V30 11307 H 1057.81 5.63459 -0.503012 0
M  V30 11308 H 1056.36 6.44671 -0.961379 0
M  V30 11309 N 1059.8 1.27835 0.921735 0
M  V30 11310 C 1060.73 1.136 2.04003 0
M  V30 11311 C 1061.71 0.0358756 1.70062 0
M  V30 11312 O 1062.89 0.211438 1.93046 0
M  V30 11313 C 1060.02 0.788697 3.38226 0
M  V30 11314 C 1058.98 1.84272 3.863 0
M  V30 11315 C 1058.3 1.34923 5.17397 0
M  V30 11316 C 1059.6 3.24788 4.09035 0
M  V30 11317 H 1061.3 2.07149 2.1617 0
M  V30 11318 H 1058.84 0.997349 1.0387 0
M  V30 11319 H 1060.8 0.675911 4.15944 0
M  V30 11320 H 1059.52 -0.182499 3.2609 0
M  V30 11321 H 1058.18 1.94451 3.1078 0
M  V30 11322 H 1057.83 0.367328 5.01657 0
M  V30 11323 H 1057.53 2.05397 5.50532 0
M  V30 11324 H 1059.05 1.24951 5.97678 0
M  V30 11325 H 1060.47 3.17575 4.77304 0
M  V30 11326 H 1058.86 3.93025 4.53488 0
M  V30 11327 H 1059.93 3.69398 3.14122 0
M  V30 11328 N 1061.28 -1.12907 1.09954 0
M  V30 11329 C 1062.5 -1.88138 0.860905 0
M  V30 11330 C 1062.92 -1.79402 -0.588256 0
M  V30 11331 O 1062.28 -1.16442 -1.40526 0
M  V30 11332 C 1062.33 -3.37537 1.29425 0
M  V30 11333 O 1062.05 -3.46056 2.68658 0
M  V30 11334 C 1063.55 -4.29721 1.08879 0
M  V30 11335 H 1060.77 -0.595437 0.309347 0
M  V30 11336 H 1063.31 -1.42894 1.46292 0
M  V30 11337 H 1061.47 -3.80344 0.736009 0
M  V30 11338 H 1061.88 -4.38969 2.87065 0
M  V30 11339 H 1063.36 -5.32854 1.4412 0
M  V30 11340 H 1063.83 -4.39192 0.0270053 0
M  V30 11341 H 1064.44 -3.9269 1.63325 0
M  V30 11342 N 1062.75 -0.88754 -1.30232 0
M  V30 11343 C 1063.68 -0.372481 -2.3051 0
M  V30 11344 C 1064.66 0.546037 -1.61098 0
M  V30 11345 O 1065.85 0.459345 -1.88689 0
M  V30 11346 C 1062.98 0.411605 -3.44852 0
M  V30 11347 C 1061.93 -0.415383 -4.2598 0
M  V30 11348 C 1061.26 0.495463 -5.324 0
M  V30 11349 C 1062.56 -1.65886 -4.95257 0
M  V30 11350 H 1064.25 -1.21045 -2.7384 0
M  V30 11351 H 1061.8 -0.583498 -1.31648 0
M  V30 11352 H 1063.75 0.782584 -4.1407 0
M  V30 11353 H 1062.48 1.28325 -3.00334 0
M  V30 11354 H 1061.14 -0.768534 -3.58454 0
M  V30 11355 H 1060.78 1.36489 -4.84128 0
M  V30 11356 H 1060.48 -0.0540885 -5.87575 0
M  V30 11357 H 1062.01 0.862901 -6.04472 0
M  V30 11358 H 1063.42 -1.35832 -5.56976 0
M  V30 11359 H 1061.82 -2.14881 -5.60309 0
M  V30 11360 H 1062.89 -2.40181 -4.21237 0
M  V30 11361 N 1064.23 1.43628 -0.648757 0
M  V30 11362 C 1065.48 2.02163 -0.160574 0
M  V30 11363 C 1065.81 1.51037 1.22072 0
M  V30 11364 O 1065.09 0.701633 1.81404 0
M  V30 11365 C 1065.37 3.59715 -0.166528 0
M  V30 11366 C 1065.22 4.21083 -1.58142 0
M  V30 11367 C 1066.54 4.37256 0.499485 0
M  V30 11368 H 1063.66 0.734568 -0.0598238 0
M  V30 11369 H 1066.3 1.70981 -0.828592 0
M  V30 11370 H 1064.45 3.86411 0.402302 0
M  V30 11371 H 1066.12 4.05433 -2.2005 0
M  V30 11372 H 1064.37 3.77904 -2.13005 0
M  V30 11373 H 1065.04 5.30156 -1.53748 0
M  V30 11374 H 1067.51 4.16097 0.0155561 0
M  V30 11375 H 1066.39 5.4693 0.464574 0
M  V30 11376 H 1066.65 4.13175 1.57286 0
M  V30 11377 N 1065.71 0.390394 1.52688 0
M  V30 11378 C 1066.96 -0.191729 2.01892 0
M  V30 11379 C 1067.29 -1.4637 1.27631 0
M  V30 11380 O 1066.56 -1.90809 0.377094 0
M  V30 11381 C 1066.85 -0.458535 3.57169 0
M  V30 11382 C 1066.7 0.828796 4.42098 0
M  V30 11383 C 1068.02 -1.2487 4.22014 0
M  V30 11384 H 1065.14 -0.0682091 0.733837 0
M  V30 11385 H 1067.78 0.520176 1.82741 0
M  V30 11386 H 1065.93 -1.06498 3.73618 0
M  V30 11387 H 1067.6 1.46562 4.37398 0
M  V30 11388 H 1065.85 1.44388 4.09066 0
M  V30 11389 H 1066.52 0.596746 5.48765 0
M  V30 11390 H 1068.99 -0.735452 4.09549 0
M  V30 11391 H 1067.87 -1.40412 5.30637 0
M  V30 11392 H 1068.13 -2.2642 3.79719 0
M  V30 11393 N 1067.19 -1.57141 0.120249 0
M  V30 11394 C 1068.42 -1.99589 -0.545136 0
M  V30 11395 C 1068.83 -0.999951 -1.60145 0
M  V30 11396 O 1068.19 0.00698897 -1.82499 0
M  V30 11397 C 1068.24 -3.42038 -1.17014 0
M  V30 11398 O 1067.96 -4.37822 -0.156044 0
M  V30 11399 C 1069.46 -3.99625 -1.91872 0
M  V30 11400 H 1066.68 -0.655318 -0.144222 0
M  V30 11401 H 1069.23 -2.0345 0.206955 0
M  V30 11402 H 1067.38 -3.39113 -1.873 0
M  V30 11403 H 1067.79 -5.20937 -0.610317 0
M  V30 11404 H 1069.27 -5.01374 -2.30928 0
M  V30 11405 H 1069.75 -3.38836 -2.7944 0
M  V30 11406 H 1070.35 -4.061 -1.26345 0
M  V30 11407 N 1068.67 0.153526 -1.5685 0
M  V30 11408 C 1069.6 1.19162 -2.00805 0
M  V30 11409 C 1070.58 1.45172 -0.886518 0
M  V30 11410 O 1071.76 1.56203 -1.15387 0
M  V30 11411 C 1068.89 2.52637 -2.38311 0
M  V30 11412 C 1067.85 2.41161 -3.53589 0
M  V30 11413 C 1067.17 3.79287 -3.76889 0
M  V30 11414 C 1068.47 1.90122 -4.86468 0
M  V30 11415 H 1070.17 0.82617 -2.87776 0
M  V30 11416 H 1067.71 0.395972 -1.38449 0
M  V30 11417 H 1069.67 3.25478 -2.6766 0
M  V30 11418 H 1068.39 2.91005 -1.4827 0
M  V30 11419 H 1067.05 1.70772 -3.24395 0
M  V30 11420 H 1066.7 4.15079 -2.84109 0
M  V30 11421 H 1066.4 3.72472 -4.54465 0
M  V30 11422 H 1067.92 4.53687 -4.08657 0
M  V30 11423 H 1069.33 2.52752 -5.14577 0
M  V30 11424 H 1067.73 1.94214 -5.67804 0
M  V30 11425 H 1068.8 0.856517 -4.77275 0
M  V30 11426 N 1070.14 1.51827 0.422667 0
M  V30 11427 C 1071.39 1.6445 1.16786 0
M  V30 11428 C 1071.71 0.373792 1.91995 0
M  V30 11429 O 1072.91 0.379621 2.68833 0
M  V30 11430 C 1071.37 2.90488 2.12473 0
M  V30 11431 C 1070.98 4.24617 1.42844 0
M  V30 11432 C 1072.72 3.12472 2.87335 0
M  V30 11433 C 1070.63 5.41791 2.371 0
M  V30 11434 H 1069.56 0.612561 0.439641 0
M  V30 11435 H 1072.21 1.78305 0.433534 0
M  V30 11436 H 1070.59 2.703 2.89402 0
M  V30 11437 H 1071.76 4.55239 0.71372 0
M  V30 11438 H 1070.08 4.08628 0.800769 0
M  V30 11439 H 1072.68 3.9719 3.57973 0
M  V30 11440 H 1073.02 2.26148 3.49518 0
M  V30 11441 H 1073.55 3.33069 2.17509 0
M  V30 11442 H 1070.29 6.3042 1.79584 0
M  V30 11443 H 1069.81 5.15526 3.06583 0
M  V30 11444 H 1071.49 5.74329 2.97918 0
M  V30 11445 N 1071.62 -0.679052 1.4222 0
M  V30 11446 C 1072.87 -1.43485 1.41757 0
M  V30 11447 C 1073.18 -1.95567 0.0358698 0
M  V30 11448 O 1074.39 -2.71346 -0.0913713 0
M  V30 11449 C 1072.85 -2.59541 2.49332 0
M  V30 11450 C 1072.45 -2.14176 3.93488 0
M  V30 11451 C 1074.2 -3.37078 2.58029 0
M  V30 11452 C 1072.11 -3.27289 4.92581 0
M  V30 11453 H 1071.04 -0.539022 0.52723 0
M  V30 11454 H 1073.69 -0.735581 1.68111 0
M  V30 11455 H 1072.07 -3.31815 2.16135 0
M  V30 11456 H 1073.24 -1.49082 4.36017 0
M  V30 11457 H 1071.56 -1.49589 3.88603 0
M  V30 11458 H 1074.15 -4.21312 3.29242 0
M  V30 11459 H 1074.5 -3.83383 1.62245 0
M  V30 11460 H 1075.03 -2.7187 2.90399 0
M  V30 11461 H 1071.77 -2.8598 5.89827 0
M  V30 11462 H 1071.29 -3.91178 4.54687 0
M  V30 11463 H 1072.97 -3.9282 5.14103 0
M  V30 11464 N 1073.1 -1.28322 -0.914942 0
M  V30 11465 C 1074.03 -1.06469 -2.01841 0
M  V30 11466 C 1075.01 0.0188681 -1.62589 0
M  V30 11467 O 1076.2 -0.128825 -1.88059 0
M  V30 11468 C 1073.32 -0.617685 -3.3302 0
M  V30 11469 C 1072.37 -1.6977 -3.91255 0
M  V30 11470 S 1073.2 -3.29337 -4.22253 0
M  V30 11471 C 1074.36 -2.86468 -5.56495 0
M  V30 11472 H 1074.59 -1.99893 -2.20068 0
M  V30 11473 H 1072.12 -1.12297 -1.05966 0
M  V30 11474 H 1074.08 -0.366481 -4.08861 0
M  V30 11475 H 1072.74 0.296709 -3.12695 0
M  V30 11476 H 1071.94 -1.33653 -4.85956 0
M  V30 11477 H 1071.54 -1.90164 -3.22046 0
M  V30 11478 H 1073.83 -2.32565 -6.36333 0
M  V30 11479 H 1074.77 -3.79962 -5.97523 0
M  V30 11480 H 1075.18 -2.2522 -5.17626 0
M  V30 11481 N 1074.58 1.12322 -1.10551 0
M  V30 11482 C 1075.49 2.21678 -0.767862 0
M  V30 11483 C 1076.5 1.72404 0.235132 0
M  V30 11484 O 1077.68 2.01266 0.0735912 0
M  V30 11485 C 1074.75 3.46087 -0.205999 0
M  V30 11486 C 1073.81 4.10195 -1.26642 0
M  V30 11487 C 1073.04 5.28666 -0.731274 0
M  V30 11488 O 1073.26 5.68686 0.44189 0
M  V30 11489 O 1072.2 5.83121 -1.49176 0
M  V30 11490 H 1076.02 2.52955 -1.6807 0
M  V30 11491 H 1073.61 1.2068 -0.880728 0
M  V30 11492 H 1075.49 4.21273 0.103435 0
M  V30 11493 H 1074.16 3.16484 0.679685 0
M  V30 11494 H 1073.07 3.36784 -1.62873 0
M  V30 11495 H 1074.4 4.43957 -2.12516 0
M  V30 11496 N 1076.06 0.894434 1.2976 0
M  V30 11497 C 1077.47 0.566892 1.77885 0
M  V30 11498 C 1077.82 -0.917289 1.73437 0
M  V30 11499 O 1076.94 -1.71707 1.31703 0
M  V30 11500 C 1077.54 1.02227 3.2301 0
M  V30 11501 C 1076.1 0.745978 3.68934 0
M  V30 11502 C 1075.24 1.19993 2.49994 0
M  V30 11503 H 1078.2 1.0777 1.16496 0
M  V30 11504 H 1078.22 0.355281 3.78838 0
M  V30 11505 H 1077.73 2.1025 3.26215 0
M  V30 11506 H 1075.83 -0.321866 3.71207 0
M  V30 11507 H 1075.94 1.34017 4.59974 0
M  V30 11508 H 1074.31 0.619047 2.47063 0
M  V30 11509 H 1075.09 2.28811 2.55931 0
M  V30 11510 N 1077.53 -1.43282 0.656365 0
M  V30 11511 C 1078.95 -1.85012 0.250475 0
M  V30 11512 C 1079.3 -1.54944 -1.20361 0
M  V30 11513 O 1078.42 -0.999983 -1.9191 0
M  V30 11514 C 1079.02 -3.35827 0.447815 0
M  V30 11515 C 1077.58 -3.76277 0.0962151 0
M  V30 11516 C 1076.72 -2.66988 0.749168 0
M  V30 11517 H 1079.67 -1.3339 0.85982 0
M  V30 11518 H 1079.69 -3.7927 -0.305726 0
M  V30 11519 H 1079.21 -3.5768 1.5062 0
M  V30 11520 H 1077.31 -3.60035 -0.959449 0
M  V30 11521 H 1077.42 -4.76227 0.523875 0
M  V30 11522 H 1075.78 -2.54048 0.18212 0
M  V30 11523 H 1076.57 -2.91669 1.81064 0
M  V30 11524 N 1079.01 -0.398486 -1.52479 0
M  V30 11525 C 1079.95 0.476551 -2.23169 0
M  V30 11526 C 1080.92 1.05665 -1.23587 0
M  V30 11527 O 1082.11 1.10654 -1.52604 0
M  V30 11528 C 1079.24 1.66048 -2.95204 0
M  V30 11529 C 1078.28 1.20478 -4.0913 0
M  V30 11530 S 1079.11 0.178711 -5.35202 0
M  V30 11531 C 1080.27 1.36821 -6.10762 0
M  V30 11532 H 1080.5 -0.123704 -2.97043 0
M  V30 11533 H 1078.04 -0.182722 -1.53315 0
M  V30 11534 H 1079.99 2.33942 -3.37315 0
M  V30 11535 H 1078.66 2.23206 -2.20993 0
M  V30 11536 H 1077.85 2.08901 -4.58668 0
M  V30 11537 H 1077.45 0.604632 -3.6908 0
M  V30 11538 H 1079.74 2.2937 -6.37492 0
M  V30 11539 H 1080.69 0.913579 -7.02182 0
M  V30 11540 H 1081.09 1.58919 -5.41669 0
M  V30 11541 N 1080.49 1.57075 -0.12858 0
M  V30 11542 C 1081.9 1.82468 0.39526 0
M  V30 11543 C 1082.25 1.0463 1.65973 0
M  V30 11544 O 1081.38 0.285835 2.14504 0
M  V30 11545 C 1081.97 3.30976 0.723889 0
M  V30 11546 C 1080.53 3.57016 1.19232 0
M  V30 11547 C 1079.68 2.76534 0.205907 0
M  V30 11548 H 1082.63 1.54711 -0.353571 0
M  V30 11549 H 1082.65 3.46127 1.58039 0
M  V30 11550 H 1082.16 3.87602 -0.196595 0
M  V30 11551 H 1080.26 3.05758 2.12938 0
M  V30 11552 H 1080.38 4.65558 1.13103 0
M  V30 11553 H 1078.74 2.45038 0.694872 0
M  V30 11554 H 1079.52 3.35923 -0.707842 0
M  V30 11555 N 1081.97 -0.145205 1.5693 0
M  V30 11556 C 1083.22 -0.855955 1.82637 0
M  V30 11557 C 1083.53 -1.82255 0.710109 0
M  V30 11558 O 1084.74 -2.57758 0.852837 0
M  V30 11559 C 1083.19 -1.57278 3.23715 0
M  V30 11560 C 1082.8 -0.648507 4.43281 0
M  V30 11561 C 1084.55 -2.27021 3.58695 0
M  V30 11562 C 1082.45 -1.36706 5.75383 0
M  V30 11563 H 1081.38 -0.323385 0.68113 0
M  V30 11564 H 1084.03 -0.10869 1.83178 0
M  V30 11565 H 1082.42 -2.36574 3.17567 0
M  V30 11566 H 1083.59 0.109355 4.6067 0
M  V30 11567 H 1081.9 -0.0594029 4.16358 0
M  V30 11568 H 1084.5 -2.81423 4.54648 0
M  V30 11569 H 1084.84 -3.03598 2.8484 0
M  V30 11570 H 1085.38 -1.54642 3.66512 0
M  V30 11571 H 1082.12 -0.6431 6.52338 0
M  V30 11572 H 1081.64 -2.09759 5.61926 0
M  V30 11573 H 1083.32 -1.90748 6.18243 0
M  V30 11574 N 1083.45 -1.52049 -0.414609 0
M  V30 11575 C 1084.38 -1.77956 -1.51175 0
M  V30 11576 C 1085.36 -0.630282 -1.57992 0
M  V30 11577 O 1086.54 -0.875324 -1.73354 0
M  V30 11578 C 1083.67 -1.92527 -2.89051 0
M  V30 11579 C 1082.63 -3.08096 -2.97087 0
M  V30 11580 C 1081.95 -3.07882 -4.37164 0
M  V30 11581 C 1083.25 -4.47656 -2.69075 0
M  V30 11582 H 1084.95 -2.69827 -1.29746 0
M  V30 11583 H 1082.49 -1.29839 -0.62273 0
M  V30 11584 H 1084.45 -2.09234 -3.65786 0
M  V30 11585 H 1083.17 -0.973235 -3.11762 0
M  V30 11586 H 1081.83 -2.91131 -2.22797 0
M  V30 11587 H 1081.48 -2.10411 -4.56877 0
M  V30 11588 H 1081.18 -3.85501 -4.43467 0
M  V30 11589 H 1082.7 -3.26712 -5.15841 0
M  V30 11590 H 1084.12 -4.64855 -3.35534 0
M  V30 11591 H 1082.51 -5.27151 -2.8676 0
M  V30 11592 H 1083.58 -4.56129 -1.64544 0
M  V30 11593 N 1084.93 0.6715 -1.42579 0
M  V30 11594 C 1086.15 1.46471 -1.46836 0
M  V30 11595 C 1086.58 1.87921 -0.0820658 0
M  V30 11596 O 1085.93 1.5621 0.920217 0
M  V30 11597 C 1085.98 2.68796 -2.40377 0
M  V30 11598 O 1085.09 3.67188 -1.87741 0
M  V30 11599 H 1084.43 0.439901 -0.497376 0
M  V30 11600 H 1086.96 0.823342 -1.87303 0
M  V30 11601 H 1086.97 3.16828 -2.57068 0
M  V30 11602 H 1085.64 2.37967 -3.41093 0
M  V30 11603 H 1084.22 3.26237 -1.80621 0
M  V30 11604 N 1086.4 1.28806 0.908124 0
M  V30 11605 C 1087.63 1.1898 1.689 0
M  V30 11606 C 1088.04 -0.253334 1.87496 0
M  V30 11607 O 1087.38 -1.18245 1.40584 0
M  V30 11608 C 1087.45 1.82266 3.0987 0
M  V30 11609 C 1087.11 3.31534 3.14538 0
M  V30 11610 C 1088.11 4.27886 2.95313 0
M  V30 11611 C 1085.79 3.72589 3.36872 0
M  V30 11612 C 1087.79 5.63267 2.98343 0
M  V30 11613 C 1085.47 5.08095 3.39534 0
M  V30 11614 C 1086.47 6.03244 3.2029 0
M  V30 11615 O 1086.16 7.36277 3.22724 0
M  V30 11616 H 1085.89 0.413772 0.534574 0
M  V30 11617 H 1088.45 1.7055 1.14464 0
M  V30 11618 H 1086.68 1.25197 3.65872 0
M  V30 11619 H 1088.36 1.6688 3.70008 0
M  V30 11620 H 1089.13 3.97502 2.77879 0
M  V30 11621 H 1085.01 2.98989 3.50894 0
M  V30 11622 H 1088.55 6.37511 2.83241 0
M  V30 11623 H 1084.45 5.38126 3.56497 0
M  V30 11624 H 1085.22 7.44976 3.39048 0
M  V30 11625 N 1087.88 -1.11734 1.11145 0
M  V30 11626 C 1089.29 -1.64928 0.874959 0
M  V30 11627 C 1089.64 -1.87012 -0.593375 0
M  V30 11628 O 1088.77 -1.60206 -1.45475 0
M  V30 11629 C 1089.36 -2.99608 1.58178 0
M  V30 11630 C 1087.92 -3.49723 1.39179 0
M  V30 11631 C 1087.07 -2.24595 1.62642 0
M  V30 11632 H 1090.02 -0.954154 1.26813 0
M  V30 11633 H 1090.04 -3.66434 1.02501 0
M  V30 11634 H 1089.55 -2.83504 2.65042 0
M  V30 11635 H 1087.65 -3.70998 0.345111 0
M  V30 11636 H 1087.77 -4.28711 2.13878 0
M  V30 11637 H 1086.13 -2.32067 1.04961 0
M  V30 11638 H 1086.91 -2.11036 2.70774 0
M  V30 11639 N 1089.36 -0.901303 -1.29284 0
M  V30 11640 C 1090.58 -0.542823 -2.0017 0
M  V30 11641 C 1091.01 0.865583 -1.67001 0
M  V30 11642 O 1090.37 1.5764 -0.895502 0
M  V30 11643 C 1090.42 -0.743987 -3.52842 0
M  V30 11644 O 1089.52 0.202771 -4.11901 0
M  V30 11645 H 1088.86 -0.211903 -0.62928 0
M  V30 11646 H 1091.39 -1.21333 -1.64741 0
M  V30 11647 H 1091.4 -0.64926 -4.02801 0
M  V30 11648 H 1090.08 -1.77077 -3.7632 0
M  V30 11649 H 1088.65 0.0603637 -3.72851 0
M  V30 11650 N 1090.84 1.42931 -0.663954 0
M  V30 11651 C 1092.09 2.00904 -0.179011 0
M  V30 11652 C 1092.4 1.53056 1.21791 0
M  V30 11653 O 1093.61 2.03374 1.79865 0
M  V30 11654 C 1092.06 3.58892 -0.269198 0
M  V30 11655 C 1091.67 4.15731 -1.66949 0
M  V30 11656 C 1093.41 4.24207 0.157589 0
M  V30 11657 C 1091.32 5.66047 -1.71303 0
M  V30 11658 H 1090.25 0.75135 -0.0631623 0
M  V30 11659 H 1092.9 1.6378 -0.827556 0
M  V30 11660 H 1091.28 3.93469 0.447048 0
M  V30 11661 H 1092.46 3.92634 -2.41195 0
M  V30 11662 H 1090.77 3.62826 -2.04318 0
M  V30 11663 H 1093.37 5.34503 0.145057 0
M  V30 11664 H 1093.71 3.98901 1.19095 0
M  V30 11665 H 1094.25 3.94552 -0.507274 0
M  V30 11666 H 1090.98 5.96136 -2.72584 0
M  V30 11667 H 1090.5 5.91167 -1.01398 0
M  V30 11668 H 1092.18 6.30275 -1.46158 0
M  V30 11669 N 1092.32 0.406567 1.52266 0
M  V30 11670 C 1093.26 -0.420182 2.26943 0
M  V30 11671 C 1094.23 -1.04323 1.29251 0
M  V30 11672 O 1095.42 -1.06799 1.5811 0
M  V30 11673 C 1092.56 -1.5323 3.09216 0
M  V30 11674 C 1091.67 -0.930419 4.21862 0
M  V30 11675 C 1090.81 -2.01502 4.91498 0
M  V30 11676 C 1089.84 -1.38994 5.9611 0
M  V30 11677 N 1088.98 -2.41458 6.59274 0
M  V30 11678 H 1093.82 0.223066 2.97164 0
M  V30 11679 H 1091.36 0.121842 1.46595 0
M  V30 11680 H 1093.32 -2.18803 3.5522 0
M  V30 11681 H 1091.95 -2.14561 2.41171 0
M  V30 11682 H 1091 -0.163809 3.80047 0
M  V30 11683 H 1092.31 -0.433785 4.9691 0
M  V30 11684 H 1091.46 -2.74807 5.40894 0
M  V30 11685 H 1090.2 -2.5453 4.16012 0
M  V30 11686 H 1089.21 -0.642213 5.46036 0
M  V30 11687 H 1090.43 -0.867386 6.73538 0
M  V30 11688 H 1088.38 -2.93623 5.86619 0
M  V30 11689 H 1088.3 -1.96599 7.2999 0
M  V30 11690 H 1089.56 -3.14341 7.13309 0
M  V30 11691 N 1093.79 -1.57004 0.136909 0
M  V30 11692 C 1094.7 -2.19807 -0.819887 0
M  V30 11693 C 1095.72 -1.17939 -1.27932 0
M  V30 11694 O 1096.9 -1.50478 -1.3386 0
M  V30 11695 C 1093.96 -2.79935 -2.04542 0
M  V30 11696 C 1093.02 -3.96897 -1.6362 0
M  V30 11697 C 1092.26 -4.54148 -2.80331 0
M  V30 11698 O 1092.48 -4.10282 -3.96264 0
M  V30 11699 O 1091.41 -5.44565 -2.56384 0
M  V30 11700 H 1095.24 -3.02058 -0.315337 0
M  V30 11701 H 1092.82 -1.49131 -0.0896151 0
M  V30 11702 H 1094.71 -3.18191 -2.76283 0
M  V30 11703 H 1093.38 -2.00703 -2.53969 0
M  V30 11704 H 1092.29 -3.63376 -0.889316 0
M  V30 11705 H 1093.62 -4.77618 -1.18918 0
M  V30 11706 N 1095.27 0.136881 -1.57004 0
M  V30 11707 C 1096.52 0.849031 -1.84172 0
M  V30 11708 C 1096.85 1.80359 -0.720027 0
M  V30 11709 O 1096.13 1.92538 0.275584 0
M  V30 11710 C 1096.41 1.61465 -3.21871 0
M  V30 11711 C 1096.26 0.680902 -4.44616 0
M  V30 11712 C 1097.58 2.57488 -3.56914 0
M  V30 11713 H 1094.7 0.307209 -0.669919 0
M  V30 11714 H 1097.34 0.113862 -1.89659 0
M  V30 11715 H 1095.49 2.24137 -3.17325 0
M  V30 11716 H 1097.16 0.0644094 -4.61255 0
M  V30 11717 H 1095.41 -0.00883629 -4.33799 0
M  V30 11718 H 1096.08 1.25286 -5.37594 0
M  V30 11719 H 1098.55 2.0493 -3.62136 0
M  V30 11720 H 1097.43 3.08101 -4.54274 0
M  V30 11721 H 1097.69 3.39321 -2.83397 0
M  V30 11722 N 1096.75 1.52266 0.40654 0
M  V30 11723 C 1097.98 1.70057 1.1732 0
M  V30 11724 C 1098.39 0.41084 1.84686 0
M  V30 11725 O 1097.73 -0.623187 1.72806 0
M  V30 11726 C 1097.79 2.78197 2.27698 0
M  V30 11727 C 1097.46 4.19866 1.80447 0
M  V30 11728 C 1098.45 5.03621 1.29082 0
M  V30 11729 C 1096.14 4.66112 1.87202 0
M  V30 11730 C 1098.13 6.31694 0.850973 0
M  V30 11731 C 1095.82 5.94174 1.42829 0
M  V30 11732 C 1096.82 6.76794 0.918621 0
M  V30 11733 O 1096.51 8.02458 0.481302 0
M  V30 11734 H 1096.24 0.573137 0.358455 0
M  V30 11735 H 1098.79 1.99615 0.484064 0
M  V30 11736 H 1097.02 2.44022 2.99983 0
M  V30 11737 H 1098.71 2.84562 2.89446 0
M  V30 11738 H 1099.48 4.69083 1.23234 0
M  V30 11739 H 1095.36 4.01905 2.25816 0
M  V30 11740 H 1098.9 6.96131 0.452471 0
M  V30 11741 H 1094.8 6.2822 1.48358 0
M  V30 11742 H 1095.57 8.16266 0.604376 0
M  V30 11743 N 1098.23 -0.663929 1.42933 0
M  V30 11744 C 1099.16 -1.78899 1.50058 0
M  V30 11745 C 1100.14 -1.66329 0.356164 0
M  V30 11746 O 1101.32 -1.85587 0.571944 0
M  V30 11747 C 1098.45 -3.17265 1.41281 0
M  V30 11748 C 1097.41 -3.44584 2.53861 0
M  V30 11749 C 1096.73 -4.82638 2.3014 0
M  V30 11750 C 1098.03 -3.40394 3.96143 0
M  V30 11751 H 1099.73 -1.73194 2.44222 0
M  V30 11752 H 1097.27 -0.83182 1.17545 0
M  V30 11753 H 1099.23 -3.95715 1.44872 0
M  V30 11754 H 1097.95 -3.23675 0.43616 0
M  V30 11755 H 1096.61 -2.685 2.49606 0
M  V30 11756 H 1096.26 -4.85711 1.30743 0
M  V30 11757 H 1095.96 -5.01879 3.056 0
M  V30 11758 H 1097.48 -5.63359 2.35497 0
M  V30 11759 H 1098.9 -4.08796 4.01943 0
M  V30 11760 H 1097.29 -3.7117 4.71543 0
M  V30 11761 H 1098.36 -2.38767 4.22041 0
M  V30 11762 N 1099.71 -1.29285 -0.901281 0
M  V30 11763 C 1100.96 -1.16538 -1.64626 0
M  V30 11764 C 1101.27 0.282623 -1.93547 0
M  V30 11765 O 1102.47 0.531396 -2.66249 0
M  V30 11766 C 1100.93 -2.03809 -2.96631 0
M  V30 11767 C 1100.54 -3.53423 -2.75311 0
M  V30 11768 C 1102.28 -1.99782 -3.7455 0
M  V30 11769 C 1100.19 -4.32804 -4.03032 0
M  V30 11770 H 1099.12 -0.432561 -0.617581 0
M  V30 11771 H 1101.77 -1.53912 -0.999159 0
M  V30 11772 H 1100.15 -1.59302 -3.62545 0
M  V30 11773 H 1101.33 -4.05971 -2.18 0
M  V30 11774 H 1099.64 -3.59106 -2.10789 0
M  V30 11775 H 1102.24 -2.5635 -4.69243 0
M  V30 11776 H 1102.58 -0.97743 -4.04663 0
M  V30 11777 H 1103.11 -2.42324 -3.15474 0
M  V30 11778 H 1099.85 -5.35473 -3.78086 0
M  V30 11779 H 1099.37 -3.85025 -4.59909 0
M  V30 11780 H 1101.05 -4.43383 -4.71191 0
M  V30 11781 N 1101.18 1.11143 -1.11736 0
M  V30 11782 C 1102.42 1.84576 -0.878119 0
M  V30 11783 C 1102.79 1.82851 0.585605 0
M  V30 11784 O 1103.99 2.51763 0.941732 0
M  V30 11785 C 1102.26 3.27628 -1.4281 0
M  V30 11786 S 1103.82 4.18276 -1.3263 0
M  V30 11787 H 1100.64 0.636442 -0.316958 0
M  V30 11788 H 1103.24 1.33794 -1.42546 0
M  V30 11789 H 1101.94 3.2645 -2.48714 0
M  V30 11790 H 1101.47 3.83479 -0.877925 0
M  V30 11791 H 1103.49 4.95335 -0.292878 0
M  V30 11792 N 1102.66 0.908147 1.28804 0
M  V30 11793 C 1103.61 0.382315 2.29437 0
M  V30 11794 C 1104.6 -0.523033 1.61123 0
M  V30 11795 O 1105.81 -0.404898 1.75387 0
M  V30 11796 H 1102.19 0.105022 0.74463 0
M  V30 11797 H 1104.16 1.24425 2.71221 0
M  V30 11798 C 1102.91 -0.367475 3.45753 0
M  V30 11799 H 1102.23 0.319957 3.98518 0
M  V30 11800 H 1103.67 -0.700131 4.1818 0
M  V30 11801 C 1102.13 -1.57329 2.97908 0
M  V30 11802 O 1102.66 -2.67248 2.99902 0
M  V30 11803 N 1100.86 -1.41835 2.53636 0
M  V30 11804 H 1100.41 -0.524099 2.52212 0
M  V30 11805 H 1100.37 -2.22645 2.21984 0
M  V30 11806 N 1104.14 -1.42577 0.671525 0
M  V30 11807 C 1105.37 -2.05924 0.200731 0
M  V30 11808 C 1105.78 -1.50434 -1.14083 0
M  V30 11809 O 1105.14 -0.642845 -1.70803 0
M  V30 11810 C 1105.19 -3.61289 0.123505 0
M  V30 11811 O 1104.91 -4.1472 1.41205 0
M  V30 11812 C 1106.41 -4.41743 -0.371178 0
M  V30 11813 H 1103.63 -0.663746 0.0983958 0
M  V30 11814 H 1106.18 -1.82771 0.917338 0
M  V30 11815 H 1104.33 -3.83565 -0.543769 0
M  V30 11816 H 1104.75 -5.0856 1.28325 0
M  V30 11817 H 1106.22 -5.50731 -0.374128 0
M  V30 11818 H 1106.7 -4.16092 -1.40585 0
M  V30 11819 H 1107.3 -4.24478 0.264244 0
M  V30 11820 N 1105.62 -0.414636 -1.52048 0
M  V30 11821 C 1106.84 0.161137 -2.06773 0
M  V30 11822 C 1107.27 1.37628 -1.2822 0
M  V30 11823 O 1106.63 1.78562 -0.313915 0
M  V30 11824 C 1106.67 0.48452 -3.5733 0
M  V30 11825 O 1105.78 1.57466 -3.81154 0
M  V30 11826 H 1105.12 0.0118003 -0.663895 0
M  V30 11827 H 1107.65 -0.589424 -1.95926 0
M  V30 11828 H 1107.66 0.741567 -4.01204 0
M  V30 11829 H 1106.33 -0.403733 -4.13936 0
M  V30 11830 H 1104.91 1.30935 -3.49157 0
M  V30 11831 N 1107.1 1.56929 -0.145233 0
M  V30 11832 C 1108.04 2.17958 0.812237 0
M  V30 11833 C 1109.04 1.13608 1.25657 0
M  V30 11834 O 1110.24 1.31861 1.22526 0
M  V30 11835 H 1106.62 0.697876 0.28013 0
M  V30 11836 H 1108.59 2.97146 0.273297 0
M  V30 11837 C 1107.34 2.81418 2.04203 0
M  V30 11838 H 1106.66 3.61427 1.70911 0
M  V30 11839 H 1108.1 3.27624 2.69144 0
M  V30 11840 C 1106.56 1.79835 2.84888 0
M  V30 11841 O 1107.09 1.26773 3.81171 0
M  V30 11842 N 1105.3 1.49179 2.49387 0
M  V30 11843 H 1104.84 1.9252 1.71154 0
M  V30 11844 H 1104.8 0.81458 3.03664 0
M  V30 11845 N 1108.58 -0.128553 1.57075 0
M  V30 11846 C 1109.51 -1.15953 2.02675 0
M  V30 11847 C 1110.49 -1.43743 0.909501 0
M  V30 11848 O 1111.67 -1.54348 1.17857 0
M  V30 11849 C 1108.8 -2.48813 2.423 0
M  V30 11850 C 1107.76 -2.35506 3.57381 0
M  V30 11851 C 1107.08 -3.73243 3.82875 0
M  V30 11852 C 1108.38 -1.82359 4.89431 0
M  V30 11853 H 1110.08 -0.780283 2.89054 0
M  V30 11854 H 1107.62 -0.373896 1.39061 0
M  V30 11855 H 1109.57 -3.21179 2.72804 0
M  V30 11856 H 1108.3 -2.88609 1.52881 0
M  V30 11857 H 1106.96 -1.6559 3.27071 0
M  V30 11858 H 1106.61 -4.10507 2.90677 0
M  V30 11859 H 1106.31 -3.65195 4.60333 0
M  V30 11860 H 1107.83 -4.47128 4.15823 0
M  V30 11861 H 1109.24 -2.44533 5.18533 0
M  V30 11862 H 1107.64 -1.85156 5.70822 0
M  V30 11863 H 1108.71 -0.780478 4.78578 0
M  V30 11864 N 1110.05 -1.5248 -0.398459 0
M  V30 11865 C 1111.3 -1.66731 -1.14215 0
M  V30 11866 C 1111.62 -0.404957 -1.90749 0
M  V30 11867 O 1110.89 0.580434 -1.87104 0
M  V30 11868 H 1109.47 -0.614577 -0.424622 0
M  V30 11869 H 1112.13 -1.89561 -0.453059 0
M  V30 11870 H 1111.23 -2.51336 -1.85031 0
M  V30 11871 N 1111.53 0.65634 -1.43283 0
M  V30 11872 C 1112.78 1.41837 -1.44949 0
M  V30 11873 C 1113.11 1.94065 -0.0723212 0
M  V30 11874 O 1112.39 1.72092 0.906346 0
M  V30 11875 C 1112.67 2.60206 -2.48927 0
M  V30 11876 C 1112.52 2.1349 -3.95907 0
M  V30 11877 C 1113.84 3.62421 -2.49678 0
M  V30 11878 H 1110.96 0.514398 -0.527792 0
M  V30 11879 H 1113.6 0.74435 -1.74813 0
M  V30 11880 H 1111.75 3.17708 -2.23592 0
M  V30 11881 H 1113.42 1.61012 -4.32288 0
M  V30 11882 H 1111.67 1.4489 -4.08888 0
M  V30 11883 H 1112.34 2.98596 -4.64268 0
M  V30 11884 H 1114.81 3.14671 -2.72252 0
M  V30 11885 H 1113.69 4.42798 -3.24378 0
M  V30 11886 H 1113.95 4.14802 -1.52944 0
M  V30 11887 N 1113.01 1.29761 0.894412 0
M  V30 11888 C 1114.26 1.18214 1.64782 0
M  V30 11889 C 1114.59 -0.264635 1.92388 0
M  V30 11890 O 1113.86 -1.19051 1.53809 0
M  V30 11891 C 1114.15 2.00138 2.99361 0
M  V30 11892 C 1114 3.52984 2.78787 0
M  V30 11893 C 1115.32 1.83187 4.00163 0
M  V30 11894 H 1112.44 0.430802 0.597979 0
M  V30 11895 H 1115.08 1.59292 1.03566 0
M  V30 11896 H 1113.23 1.65233 3.51611 0
M  V30 11897 H 1114.9 3.97898 2.33398 0
M  V30 11898 H 1113.14 3.77642 2.13469 0
M  V30 11899 H 1113.82 4.05585 3.7444 0
M  V30 11900 H 1116.29 2.13684 3.57041 0
M  V30 11901 H 1115.17 2.42849 4.92255 0
M  V30 11902 H 1115.43 0.788469 4.35012 0
M  V30 11903 N 1114.49 -1.10549 1.12324 0
M  V30 11904 C 1115.45 -2.15039 0.793156 0
M  V30 11905 C 1116.45 -1.59651 -0.19192 0
M  V30 11906 O 1117.64 -1.74167 0.0337262 0
M  V30 11907 C 1114.77 -3.40433 0.17842 0
M  V30 11908 H 1115.97 -2.4575 1.71892 0
M  V30 11909 H 1113.52 -1.25892 0.926333 0
M  V30 11910 H 1114.25 -3.15338 -0.757122 0
M  V30 11911 H 1114.04 -3.81921 0.887645 0
M  V30 11912 H 1115.53 -4.17584 -0.0360724 0
M  V30 11913 N 1115.97 -0.914965 -1.28321 0
M  V30 11914 C 1117.38 -0.59512 -1.76961 0
M  V30 11915 C 1117.73 0.88958 -1.74874 0
M  V30 11916 O 1116.85 1.6959 -1.34418 0
M  V30 11917 C 1117.45 -1.07353 -3.21342 0
M  V30 11918 C 1116.01 -0.804577 -3.677 0
M  V30 11919 C 1115.15 -1.23955 -2.48053 0
M  V30 11920 H 1118.1 -1.0961 -1.14767 0
M  V30 11921 H 1118.13 -0.415506 -3.78225 0
M  V30 11922 H 1117.64 -2.15413 -3.22829 0
M  V30 11923 H 1115.74 0.26277 -3.71672 0
M  V30 11924 H 1115.85 -1.41317 -4.57784 0
M  V30 11925 H 1114.22 -0.658274 -2.46046 0
M  V30 11926 H 1115 -2.32853 -2.52258 0
M  V30 11927 N 1117.44 1.42219 -0.679077 0
M  V30 11928 C 1118.37 2.33493 -0.0174528 0
M  V30 11929 C 1119.35 1.50915 0.78477 0
M  V30 11930 O 1120.54 1.79504 0.741065 0
M  V30 11931 C 1117.67 3.34576 0.931463 0
M  V30 11932 C 1116.62 4.2734 0.237527 0
M  V30 11933 C 1115.95 5.18664 1.29967 0
M  V30 11934 C 1117.25 5.14729 -0.886082 0
M  V30 11935 H 1118.94 2.89068 -0.779748 0
M  V30 11936 H 1116.49 1.38993 -0.376419 0
M  V30 11937 H 1118.44 3.97343 1.40343 0
M  V30 11938 H 1117.17 2.77315 1.72523 0
M  V30 11939 H 1115.83 3.65973 -0.214245 0
M  V30 11940 H 1115.47 4.57727 2.08554 0
M  V30 11941 H 1115.17 5.81558 0.840463 0
M  V30 11942 H 1116.7 5.84308 1.77249 0
M  V30 11943 H 1118.11 5.71158 -0.495141 0
M  V30 11944 H 1116.51 5.86478 -1.27135 0
M  V30 11945 H 1117.58 4.52874 -1.733 0
M  V30 11946 N 1118.92 0.422693 1.51826 0
M  V30 11947 C 1120.17 -0.148348 2.01555 0
M  V30 11948 C 1120.49 -1.44483 1.30956 0
M  V30 11949 O 1119.76 -1.90904 0.439599 0
M  V30 11950 H 1118.34 -0.0578116 0.74476 0
M  V30 11951 H 1121 0.562046 1.8662 0
M  V30 11952 H 1120.1 -0.334766 3.10299 0
M  V30 11953 N 1120.4 -1.5685 0.153553 0
M  V30 11954 C 1121.63 -2.0041 -0.501949 0
M  V30 11955 C 1122.04 -1.03272 -1.58529 0
M  V30 11956 O 1121.38 -0.0227479 -1.83686 0
M  V30 11957 C 1121.44 -3.40402 -1.15613 0
M  V30 11958 C 1121.11 -4.56486 -0.216596 0
M  V30 11959 C 1122.1 -5.16894 0.558267 0
M  V30 11960 C 1119.79 -5.02162 -0.117592 0
M  V30 11961 C 1121.78 -6.21392 1.41951 0
M  V30 11962 C 1119.47 -6.06514 0.747255 0
M  V30 11963 C 1120.47 -6.65999 1.51441 0
M  V30 11964 O 1120.16 -7.6833 2.36483 0
M  V30 11965 H 1119.89 -0.66247 -0.134574 0
M  V30 11966 H 1122.44 -2.03908 0.247086 0
M  V30 11967 H 1120.67 -3.33762 -1.95294 0
M  V30 11968 H 1122.36 -3.68028 -1.71202 0
M  V30 11969 H 1123.13 -4.825 0.491851 0
M  V30 11970 H 1119.01 -4.55586 -0.704462 0
M  V30 11971 H 1122.55 -6.67751 2.01877 0
M  V30 11972 H 1118.45 -6.40335 0.81494 0
M  V30 11973 H 1119.21 -7.85578 2.29803 0
M  V30 11974 N 1121.88 0.120221 -1.57141 0
M  V30 11975 C 1122.83 1.16654 -2.01233 0
M  V30 11976 C 1123.82 1.42943 -0.909053 0
M  V30 11977 O 1125.03 1.4292 -1.09426 0
M  V30 11978 H 1121.4 0.393289 -0.640958 0
M  V30 11979 H 1123.37 0.768156 -2.88343 0
M  V30 11980 C 1122.12 2.4854 -2.43152 0
M  V30 11981 H 1121.44 2.29149 -3.27614 0
M  V30 11982 H 1122.88 3.20315 -2.77802 0
M  V30 11983 C 1121.34 3.1103 -1.29468 0
M  V30 11984 O 1121.87 3.97042 -0.609982 0
M  V30 11985 N 1120.08 2.70888 -1.05205 0
M  V30 11986 H 1119.63 2.01039 -1.61062 0
M  V30 11987 H 1119.58 3.13028 -0.293347 0
M  V30 11988 N 1123.36 1.52689 0.390367 0
M  V30 11989 C 1124.6 1.67335 1.13329 0
M  V30 11990 C 1124.93 0.415068 1.90531 0
M  V30 11991 O 1124.2 -0.570504 1.87409 0
M  V30 11992 H 1122.78 0.616821 0.421356 0
M  V30 11993 H 1125.44 1.89799 0.443 0
M  V30 11994 H 1124.53 2.52314 1.83696 0
M  V30 11995 N 1124.83 -0.648732 1.43629 0
M  V30 11996 C 1125.76 -1.77298 1.51947 0
M  V30 11997 C 1126.75 -1.65942 0.373785 0
M  V30 11998 O 1127.93 -1.8497 0.591596 0
M  V30 11999 C 1125.06 -3.15749 1.44638 0
M  V30 12000 C 1124.01 -3.41872 2.57502 0
M  V30 12001 C 1123.34 -4.8017 2.35246 0
M  V30 12002 C 1124.64 -3.36173 3.99731 0
M  V30 12003 H 1126.33 -1.70594 2.46045 0
M  V30 12004 H 1123.88 -0.819306 1.1842 0
M  V30 12005 H 1125.83 -3.94156 1.4906 0
M  V30 12006 H 1124.56 -3.23194 0.470466 0
M  V30 12007 H 1123.22 -2.65838 2.5244 0
M  V30 12008 H 1122.86 -4.84297 1.35887 0
M  V30 12009 H 1122.56 -4.9861 3.10906 0
M  V30 12010 H 1124.09 -5.6083 2.41459 0
M  V30 12011 H 1125.5 -4.0451 4.06257 0
M  V30 12012 H 1123.9 -3.66148 4.75453 0
M  V30 12013 H 1124.97 -2.34277 4.24549 0
M  V30 12014 N 1126.31 -1.30234 -0.887518 0
M  V30 12015 C 1127.24 -1.18969 -2.00919 0
M  V30 12016 C 1128.22 -0.080952 -1.69907 0
M  V30 12017 O 1129.41 -0.262546 -1.92417 0
M  V30 12018 C 1126.54 -0.878094 -3.36016 0
M  V30 12019 C 1125.49 -1.94449 -3.81279 0
M  V30 12020 C 1124.82 -1.48594 -5.13638 0
M  V30 12021 C 1126.12 -3.35519 -4.00281 0
M  V30 12022 H 1127.81 -2.12808 -2.10602 0
M  V30 12023 H 1125.36 -1.02454 -1.01189 0
M  V30 12024 H 1127.31 -0.785954 -4.14006 0
M  V30 12025 H 1126.04 0.0959779 -3.26459 0
M  V30 12026 H 1124.69 -2.02622 -3.05516 0
M  V30 12027 H 1124.34 -0.500204 -5.00507 0
M  V30 12028 H 1124.04 -2.19921 -5.44893 0
M  V30 12029 H 1125.57 -1.40754 -5.94156 0
M  V30 12030 H 1126.98 -3.30119 -4.68716 0
M  V30 12031 H 1125.38 -4.0491 -4.42909 0
M  V30 12032 H 1126.45 -3.77597 -3.04218 0
M  V30 12033 N 1127.79 1.09952 -1.12909 0
M  V30 12034 C 1129.04 1.81386 -0.882163 0
M  V30 12035 C 1129.35 1.86376 0.593592 0
M  V30 12036 O 1130.56 2.54064 0.957275 0
M  V30 12037 C 1129.01 3.25824 -1.52861 0
M  V30 12038 C 1128.62 3.29117 -3.0395 0
M  V30 12039 C 1130.37 4.02051 -1.36216 0
M  V30 12040 C 1128.27 4.68047 -3.61505 0
M  V30 12041 H 1127.2 0.679701 -0.326378 0
M  V30 12042 H 1129.85 1.23614 -1.35616 0
M  V30 12043 H 1128.24 3.83624 -0.982271 0
M  V30 12044 H 1129.41 2.81114 -3.65119 0
M  V30 12045 H 1127.73 2.66379 -3.20049 0
M  V30 12046 H 1130.32 5.04683 -1.76633 0
M  V30 12047 H 1130.67 4.15171 -0.306391 0
M  V30 12048 H 1131.2 3.5068 -1.87799 0
M  V30 12049 H 1127.94 4.60128 -4.66865 0
M  V30 12050 H 1127.46 5.16397 -3.05114 0
M  V30 12051 H 1129.14 5.37018 -3.6086 0
M  V30 12052 N 1129.27 0.921757 1.27833 0
M  V30 12053 C 1130.2 0.360683 2.25332 0
M  V30 12054 C 1131.18 -0.53961 1.53385 0
M  V30 12055 O 1132.36 -0.48146 1.82248 0
M  V30 12056 C 1129.49 -0.483626 3.35229 0
M  V30 12057 C 1128.54 0.352405 4.25042 0
M  V30 12058 S 1129.37 1.76421 5.05605 0
M  V30 12059 C 1130.53 0.92742 6.18991 0
M  V30 12060 H 1130.76 1.18703 2.72574 0
M  V30 12061 H 1128.29 0.72354 1.36397 0
M  V30 12062 H 1130.25 -0.964914 3.98998 0
M  V30 12063 H 1128.91 -1.28444 2.86637 0
M  V30 12064 H 1128.1 -0.293558 5.03144 0
M  V30 12065 H 1127.71 0.767643 3.66037 0
M  V30 12066 H 1130 0.160698 6.77309 0
M  V30 12067 H 1130.94 1.68126 6.87851 0
M  V30 12068 H 1131.35 0.472056 5.62523 0
M  V30 12069 N 1130.75 -1.41857 0.686609 0
M  V30 12070 C 1131.97 -2.06219 0.221037 0
M  V30 12071 C 1132.4 -1.51298 -1.11762 0
M  V30 12072 O 1131.75 -0.636253 -1.69769 0
M  V30 12073 C 1131.8 -3.60153 0.179425 0
M  V30 12074 O 1130.91 -4.03577 -0.848481 0
M  V30 12075 H 1130.25 -0.654787 0.110228 0
M  V30 12076 H 1132.78 -1.81783 0.938948 0
M  V30 12077 H 1132.79 -4.07999 0.00725332 0
M  V30 12078 H 1131.46 -3.99498 1.15647 0
M  V30 12079 H 1130.04 -3.67255 -0.646393 0
M  V30 12080 N 1132.22 -0.430739 -1.51599 0
M  V30 12081 C 1133.46 0.137184 -2.03939 0
M  V30 12082 C 1133.83 1.40533 -1.30823 0
M  V30 12083 O 1135.03 2.05307 -1.73501 0
M  V30 12084 C 1133.3 0.357395 -3.55609 0
M  V30 12085 S 1134.86 0.889669 -4.29686 0
M  V30 12086 H 1131.68 0.0349429 -0.710141 0
M  V30 12087 H 1134.28 -0.588628 -1.86428 0
M  V30 12088 H 1132.98 -0.572011 -4.06394 0
M  V30 12089 H 1132.51 1.11047 -3.77402 0
M  V30 12090 H 1134.53 2.16797 -4.46333 0
M  V30 12091 N 1133.7 1.56767 -0.161869 0
M  V30 12092 C 1134.93 2.00964 0.492027 0
M  V30 12093 C 1135.35 1.04206 1.57437 0
M  V30 12094 O 1134.7 0.0413998 1.82453 0
M  V30 12095 C 1134.75 3.4502 1.07904 0
M  V30 12096 O 1134.47 4.38082 0.0399085 0
M  V30 12097 C 1135.98 4.04572 1.81209 0
M  V30 12098 H 1133.2 0.658911 0.126797 0
M  V30 12099 H 1135.74 2.0283 -0.260824 0
M  V30 12100 H 1133.89 3.43959 1.78243 0
M  V30 12101 H 1134.31 5.22372 0.471985 0
M  V30 12102 H 1135.78 5.07321 2.17554 0
M  V30 12103 H 1136.26 3.46126 2.70359 0
M  V30 12104 H 1136.87 4.09307 1.15534 0
M  V30 12105 N 1135.18 -0.111886 1.57202 0
M  V30 12106 C 1136.41 -0.8312 1.89142 0
M  V30 12107 C 1136.82 -1.73614 0.751987 0
M  V30 12108 O 1136.16 -1.81462 -0.285877 0
M  V30 12109 C 1136.22 -1.71107 3.16169 0
M  V30 12110 C 1135.89 -0.9797 4.46375 0
M  V30 12111 C 1136.88 -0.317219 5.18931 0
M  V30 12112 C 1134.57 -0.958764 4.93065 0
M  V30 12113 C 1136.56 0.356419 6.36403 0
M  V30 12114 C 1134.25 -0.281332 6.10452 0
M  V30 12115 C 1135.25 0.375098 6.81969 0
M  V30 12116 O 1134.94 1.0417 7.97122 0
M  V30 12117 H 1134.67 -0.243855 0.630484 0
M  V30 12118 H 1137.22 -0.0986634 2.05163 0
M  V30 12119 H 1135.45 -2.48543 2.96249 0
M  V30 12120 H 1137.14 -2.30544 3.34072 0
M  V30 12121 H 1137.91 -0.324965 4.8391 0
M  V30 12122 H 1133.79 -1.45913 4.37299 0
M  V30 12123 H 1137.33 0.869362 6.92162 0
M  V30 12124 H 1133.23 -0.271374 6.44929 0
M  V30 12125 H 1134 0.946899 8.13004 0
M  V30 12126 N 1136.66 -1.52894 -0.382264 0
M  V30 12127 C 1137.89 -1.71902 -1.146 0
M  V30 12128 C 1138.3 -0.44017 -1.84009 0
M  V30 12129 O 1137.64 0.595616 -1.73776 0
M  V30 12130 C 1137.7 -2.81785 -2.23244 0
M  V30 12131 C 1137.37 -4.22684 -1.73745 0
M  V30 12132 C 1138.36 -5.05611 -1.21054 0
M  V30 12133 C 1136.05 -4.69031 -1.79763 0
M  V30 12134 C 1138.04 -6.32968 -0.750368 0
M  V30 12135 C 1135.73 -5.96371 -1.33358 0
M  V30 12136 C 1136.73 -6.7817 -0.810832 0
M  V30 12137 O 1136.41 -8.03122 -0.353577 0
M  V30 12138 H 1136.15 -0.578767 -0.349292 0
M  V30 12139 H 1138.7 -2.00359 -0.452246 0
M  V30 12140 H 1136.93 -2.48764 -2.96063 0
M  V30 12141 H 1138.62 -2.89131 -2.84883 0
M  V30 12142 H 1139.39 -4.70984 -1.15755 0
M  V30 12143 H 1135.26 -4.05447 -2.19394 0
M  V30 12144 H 1138.81 -6.96763 -0.341666 0
M  V30 12145 H 1134.71 -6.30501 -1.38344 0
M  V30 12146 H 1135.47 -8.17124 -0.474439 0
M  V30 12147 N 1138.14 0.641106 -1.43971 0
M  V30 12148 C 1139.1 1.73539 -1.49723 0
M  V30 12149 C 1140.1 1.56235 -0.380438 0
M  V30 12150 O 1141.29 1.61912 -0.642673 0
M  V30 12151 C 1138.42 3.1253 -1.36153 0
M  V30 12152 H 1139.62 1.69816 -2.47189 0
M  V30 12153 H 1137.17 0.853867 -1.30915 0
M  V30 12154 H 1137.9 3.21856 -0.39742 0
M  V30 12155 H 1137.69 3.26496 -2.17124 0
M  V30 12156 H 1139.18 3.92303 -1.43138 0
M  V30 12157 N 1139.62 1.30703 0.880598 0
M  V30 12158 C 1140.86 1.19778 1.63277 0
M  V30 12159 C 1141.19 -0.246521 1.92931 0
M  V30 12160 O 1140.45 -1.19226 1.55189 0
M  V30 12161 C 1140.74 1.97628 2.97789 0
M  V30 12162 C 1140.41 3.47213 2.87669 0
M  V30 12163 C 1139.07 3.88004 2.84617 0
M  V30 12164 C 1141.42 4.4245 2.75477 0
M  V30 12165 C 1138.75 5.22315 2.67216 0
M  V30 12166 C 1141.1 5.76874 2.59614 0
M  V30 12167 C 1139.77 6.16898 2.54939 0
M  V30 12168 H 1139.04 0.438298 0.597475 0
M  V30 12169 H 1141.69 1.61853 1.02352 0
M  V30 12170 H 1139.99 1.48201 3.6269 0
M  V30 12171 H 1141.69 1.86563 3.54958 0
M  V30 12172 H 1138.28 3.14802 2.90857 0
M  V30 12173 H 1142.46 4.11875 2.76899 0
M  V30 12174 H 1137.72 5.52412 2.62014 0
M  V30 12175 H 1141.89 6.50304 2.49155 0
M  V30 12176 H 1139.52 7.20916 2.41214 0
M  V30 12177 N 1141.09 -1.09351 1.1349 0
M  V30 12178 C 1142.04 -2.16008 0.812981 0
M  V30 12179 C 1143.01 -1.64566 -0.225252 0
M  V30 12180 O 1144.2 -1.90552 -0.0973261 0
M  V30 12181 C 1141.34 -3.43913 0.285996 0
M  V30 12182 C 1140.45 -4.09251 1.38338 0
M  V30 12183 C 1139.58 -5.24916 0.814652 0
M  V30 12184 C 1138.62 -5.82178 1.89038 0
M  V30 12185 N 1137.76 -6.89203 1.33955 0
M  V30 12186 H 1142.6 -2.42887 1.72655 0
M  V30 12187 H 1140.14 -1.19209 0.861833 0
M  V30 12188 H 1142.09 -4.17183 -0.0376794 0
M  V30 12189 H 1140.72 -3.17349 -0.590707 0
M  V30 12190 H 1139.78 -3.33838 1.82363 0
M  V30 12191 H 1141.09 -4.4784 2.19638 0
M  V30 12192 H 1140.24 -6.05086 0.442306 0
M  V30 12193 H 1138.98 -4.87691 -0.029416 0
M  V30 12194 H 1137.99 -5.00669 2.27179 0
M  V30 12195 H 1139.21 -6.21464 2.73787 0
M  V30 12196 H 1137.16 -6.53956 0.517494 0
M  V30 12197 H 1137.07 -7.26565 2.08902 0
M  V30 12198 H 1138.34 -7.73126 0.994793 0
M  V30 12199 N 1142.57 -0.928524 -1.27343 0
M  V30 12200 C 1143.8 -0.585734 -1.98436 0
M  V30 12201 C 1144.21 0.83644 -1.69261 0
M  V30 12202 O 1143.57 1.55603 -0.953626 0
M  V30 12203 C 1143.62 -0.803092 -3.52467 0
M  V30 12204 O 1143.34 -2.16932 -3.80621 0
M  V30 12205 C 1144.84 -0.469127 -4.40811 0
M  V30 12206 H 1142.06 -0.221887 -0.633251 0
M  V30 12207 H 1144.61 -1.24577 -1.62175 0
M  V30 12208 H 1142.76 -0.189846 -3.86935 0
M  V30 12209 H 1143.18 -2.21992 -4.75205 0
M  V30 12210 H 1144.65 -0.671906 -5.47895 0
M  V30 12211 H 1145.13 0.595365 -4.35146 0
M  V30 12212 H 1145.73 -1.06055 -4.11865 0
M  V30 12213 N 1144.05 1.41491 -0.694123 0
M  V30 12214 C 1145.47 1.55358 -0.365532 0
M  V30 12215 C 1145.67 1.66994 1.12762 0
M  V30 12216 O 1144.72 1.64756 1.91342 0
M  V30 12217 C 1146.03 2.79352 -1.11279 0
M  V30 12218 C 1147.58 2.93147 -1.097 0
M  V30 12219 C 1148.06 4.20027 -1.82597 0
M  V30 12220 N 1149.55 4.26981 -1.7956 0
M  V30 12221 C 1150.28 5.24013 -2.32805 0
M  V30 12222 N 1149.78 6.27083 -2.94515 0
M  V30 12223 N 1151.57 5.15943 -2.23069 0
M  V30 12224 H 1143.72 1.32183 -1.66257 0
M  V30 12225 H 1145.99 0.637624 -0.701527 0
M  V30 12226 H 1145.69 2.76958 -2.16765 0
M  V30 12227 H 1145.57 3.70827 -0.690439 0
M  V30 12228 H 1147.95 2.95057 -0.0504037 0
M  V30 12229 H 1148.03 2.02849 -1.55839 0
M  V30 12230 H 1147.68 4.18878 -2.87235 0
M  V30 12231 H 1147.61 5.09294 -1.33893 0
M  V30 12232 H 1150.1 3.53129 -1.34567 0
M  V30 12233 H 1150.41 6.97511 -3.32714 0
M  V30 12234 H 1148.76 6.27589 -2.98592 0
M  V30 12235 H 1151.95 4.34346 -1.74532 0
M  V30 12236 H 1152.12 5.91396 -2.64868 0
M  V30 12237 N 1145.53 0.438773 1.51369 0
M  V30 12238 C 1146.48 -0.386324 2.29369 0
M  V30 12239 C 1147.47 -1.0196 1.3528 0
M  V30 12240 O 1148.68 -0.9544 1.52615 0
M  V30 12241 H 1145.05 -0.143397 0.738201 0
M  V30 12242 H 1147.02 0.292372 2.96964 0
M  V30 12243 C 1145.77 -1.47426 3.14898 0
M  V30 12244 H 1145.09 -0.996335 3.87186 0
M  V30 12245 H 1146.53 -2.02481 3.72529 0
M  V30 12246 C 1144.99 -2.45831 2.30366 0
M  V30 12247 O 1145.52 -3.50398 1.96428 0
M  V30 12248 N 1143.73 -2.16754 1.93561 0
M  V30 12249 H 1143.28 -1.31748 2.2136 0
M  V30 12250 H 1143.23 -2.82836 1.373 0
M  V30 12251 N 1147.01 -1.56678 0.170181 0
M  V30 12252 C 1148.25 -1.9714 -0.475767 0
M  V30 12253 C 1148.58 -1.05611 -1.62972 0
M  V30 12254 O 1147.86 -0.103017 -1.94227 0
M  V30 12255 C 1148.14 -3.47072 -0.959828 0
M  V30 12256 C 1148 -4.4938 0.194225 0
M  V30 12257 C 1149.31 -4.00071 -1.83387 0
M  V30 12258 H 1146.43 -0.716776 -0.171466 0
M  V30 12259 H 1149.08 -1.88266 0.256086 0
M  V30 12260 H 1147.23 -3.54766 -1.58346 0
M  V30 12261 H 1148.9 -4.53748 0.83128 0
M  V30 12262 H 1147.14 -4.25393 0.849893 0
M  V30 12263 H 1147.81 -5.51685 -0.186575 0
M  V30 12264 H 1150.29 -3.95002 -1.30815 0
M  V30 12265 H 1149.16 -5.05398 -2.14159 0
M  V30 12266 H 1149.42 -3.43819 -2.77923 0
M  V30 12267 N 1148.48 0.103547 -1.57259 0
M  V30 12268 C 1149.89 0.659006 -1.74683 0
M  V30 12269 C 1150.25 1.79542 -0.791142 0
M  V30 12270 O 1149.37 2.16376 0.0323585 0
M  V30 12271 C 1149.97 1.20222 -3.16752 0
M  V30 12272 C 1148.52 1.70382 -3.35629 0
M  V30 12273 C 1147.67 0.609886 -2.7051 0
M  V30 12274 H 1150.62 -0.122474 -1.58227 0
M  V30 12275 H 1150.64 2.07169 -3.19157 0
M  V30 12276 H 1150.16 0.374901 -3.86285 0
M  V30 12277 H 1148.26 2.55542 -2.71162 0
M  V30 12278 H 1148.37 1.80263 -4.43894 0
M  V30 12279 H 1146.73 1.04728 -2.32173 0
M  V30 12280 H 1147.52 -0.206713 -3.42677 0
M  V30 12281 N 1149.96 1.53094 0.37415 0
M  V30 12282 C 1150.92 1.78264 1.44065 0
M  V30 12283 C 1151.92 0.652892 1.46949 0
M  V30 12284 O 1153.11 0.921046 1.47859 0
M  V30 12285 C 1150.25 1.89693 2.83248 0
M  V30 12286 H 1151.44 2.73505 1.23025 0
M  V30 12287 H 1148.99 1.44041 0.60678 0
M  V30 12288 H 1149.73 0.964884 3.09613 0
M  V30 12289 H 1149.51 2.71855 2.82554 0
M  V30 12290 H 1151 2.10787 3.60498 0
M  V30 12291 N 1151.44 -0.633461 1.44309 0
M  V30 12292 C 1152.39 -1.76674 1.51292 0
M  V30 12293 C 1153.38 -1.64972 0.384807 0
M  V30 12294 O 1154.59 -1.71079 0.559653 0
M  V30 12295 H 1150.96 -0.583238 0.474697 0
M  V30 12296 H 1152.93 -1.67907 2.46678 0
M  V30 12297 C 1151.68 -3.15002 1.47205 0
M  V30 12298 H 1151.01 -3.24653 2.33325 0
M  V30 12299 H 1152.45 -3.94199 1.56151 0
M  V30 12300 C 1150.9 -3.3635 0.192464 0
M  V30 12301 O 1151.43 -3.94857 -0.738285 0
M  V30 12302 N 1149.64 -2.9044 0.0963424 0
M  V30 12303 H 1149.19 -2.43011 0.85459 0
M  V30 12304 H 1149.15 -3.05099 -0.759061 0
M  V30 12305 N 1152.92 -1.31168 -0.873655 0
M  V30 12306 C 1154.17 -1.20642 -1.6264 0
M  V30 12307 C 1154.49 0.236286 -1.93059 0
M  V30 12308 O 1153.75 1.18401 -1.55819 0
M  V30 12309 C 1154.05 -1.99204 -2.96736 0
M  V30 12310 C 1153.71 -3.48734 -2.85824 0
M  V30 12311 C 1152.38 -3.89507 -2.82555 0
M  V30 12312 C 1154.73 -4.43905 -2.73127 0
M  V30 12313 C 1152.06 -5.23724 -2.64442 0
M  V30 12314 C 1154.41 -5.78242 -2.56551 0
M  V30 12315 C 1153.07 -6.18241 -2.51663 0
M  V30 12316 H 1152.34 -0.44146 -0.595142 0
M  V30 12317 H 1154.99 -1.62394 -1.01492 0
M  V30 12318 H 1153.29 -1.50122 -3.61899 0
M  V30 12319 H 1154.99 -1.88443 -3.53963 0
M  V30 12320 H 1151.58 -3.1634 -2.89184 0
M  V30 12321 H 1155.76 -4.13338 -2.7471 0
M  V30 12322 H 1151.02 -5.53794 -2.59081 0
M  V30 12323 H 1155.19 -6.51616 -2.45702 0
M  V30 12324 H 1152.82 -7.22185 -2.37387 0
M  V30 12325 N 1154.4 1.08748 -1.14068 0
M  V30 12326 C 1155.34 2.17667 -0.819981 0
M  V30 12327 C 1156.34 1.68207 0.200654 0
M  V30 12328 O 1157.54 1.79909 0.0571014 0
M  V30 12329 H 1153.92 0.710129 -0.247427 0
M  V30 12330 H 1155.89 2.41944 -1.74659 0
M  V30 12331 C 1154.64 3.46315 -0.309985 0
M  V30 12332 H 1153.96 3.84748 -1.08669 0
M  V30 12333 H 1155.4 4.23818 -0.124094 0
M  V30 12334 C 1153.86 3.22762 0.965724 0
M  V30 12335 O 1154.39 3.46034 2.04018 0
M  V30 12336 N 1152.6 2.76326 0.899576 0
M  V30 12337 H 1152.14 2.57588 0.0250598 0
M  V30 12338 H 1152.1 2.60945 1.75371 0
M  V30 12339 N 1155.87 0.935264 1.26849 0
M  V30 12340 C 1156.78 0.446122 2.30319 0
M  V30 12341 C 1157.8 -0.476965 1.67335 0
M  V30 12342 O 1158.98 -0.357934 1.98194 0
M  V30 12343 C 1156.04 -0.286297 3.45516 0
M  V30 12344 C 1155.1 0.672626 4.23998 0
M  V30 12345 C 1154.34 -0.0249345 5.33694 0
M  V30 12346 O 1154.56 -1.24296 5.56693 0
M  V30 12347 O 1153.49 0.650752 5.98372 0
M  V30 12348 H 1157.32 1.30546 2.74211 0
M  V30 12349 H 1154.9 0.70091 1.31938 0
M  V30 12350 H 1156.79 -0.699109 4.1556 0
M  V30 12351 H 1155.46 -1.12112 3.03665 0
M  V30 12352 H 1154.37 1.13527 3.56458 0
M  V30 12353 H 1155.7 1.47489 4.69583 0
M  V30 12354 N 1157.35 -1.41121 0.701616 0
M  V30 12355 C 1158.32 -2.29148 0.0490091 0
M  V30 12356 C 1159.32 -1.44679 -0.701763 0
M  V30 12357 O 1160.51 -1.65757 -0.53575 0
M  V30 12358 C 1157.64 -3.2766 -0.940837 0
M  V30 12359 H 1158.83 -2.88354 0.824133 0
M  V30 12360 H 1156.38 -1.49209 0.465457 0
M  V30 12361 H 1157.12 -2.73445 -1.74351 0
M  V30 12362 H 1156.9 -3.89997 -0.405551 0
M  V30 12363 H 1158.39 -3.93609 -1.39507 0
M  V30 12364 N 1158.83 -0.446794 -1.51134 0
M  V30 12365 C 1159.78 0.359865 -2.27977 0
M  V30 12366 C 1160.75 1.0086 -1.31972 0
M  V30 12367 O 1161.93 1.02569 -1.60886 0
M  V30 12368 C 1159.07 1.44978 -3.1317 0
M  V30 12369 C 1158.19 0.818243 -4.2418 0
M  V30 12370 C 1157.32 1.884 -4.96668 0
M  V30 12371 C 1156.36 1.2314 -5.99586 0
M  V30 12372 N 1155.5 2.23894 -6.65444 0
M  V30 12373 H 1160.34 -0.301775 -2.96468 0
M  V30 12374 H 1157.87 -0.160666 -1.4622 0
M  V30 12375 H 1159.83 2.09308 -3.60896 0
M  V30 12376 H 1158.46 2.08092 -2.46775 0
M  V30 12377 H 1157.51 0.0629889 -3.80348 0
M  V30 12378 H 1158.83 0.301885 -4.97886 0
M  V30 12379 H 1157.98 2.6037 -5.4799 0
M  V30 12380 H 1156.72 2.43411 -4.22614 0
M  V30 12381 H 1155.72 0.497215 -5.47547 0
M  V30 12382 H 1156.95 0.688505 -6.75601 0
M  V30 12383 H 1154.89 2.77967 -5.94197 0
M  V30 12384 H 1154.81 1.77176 -7.34945 0
M  V30 12385 H 1156.08 2.95318 -7.21393 0
M  V30 12386 N 1160.31 1.56586 -0.178487 0
M  V30 12387 C 1161.54 2.01183 0.470002 0
M  V30 12388 C 1161.95 1.05781 1.56866 0
M  V30 12389 O 1161.29 0.0519678 1.83626 0
M  V30 12390 C 1161.35 3.42199 1.10183 0
M  V30 12391 C 1161.02 4.56773 0.143945 0
M  V30 12392 C 1162.01 5.1594 -0.64043 0
M  V30 12393 C 1159.7 5.02286 0.0376874 0
M  V30 12394 C 1161.69 6.19055 -1.51819 0
M  V30 12395 C 1159.38 6.05248 -0.843652 0
M  V30 12396 C 1160.38 6.63505 -1.62017 0
M  V30 12397 O 1160.06 7.6447 -2.48677 0
M  V30 12398 H 1159.8 0.664527 0.124018 0
M  V30 12399 H 1162.35 2.0349 -0.279495 0
M  V30 12400 H 1160.58 3.36827 1.89959 0
M  V30 12401 H 1162.27 3.70705 1.65326 0
M  V30 12402 H 1163.04 4.81656 -0.56855 0
M  V30 12403 H 1158.91 4.56649 0.631893 0
M  V30 12404 H 1162.46 6.64455 -2.12475 0
M  V30 12405 H 1158.36 6.38958 -0.916708 0
M  V30 12406 H 1159.12 7.81823 -2.42272 0
M  V30 12407 N 1161.79 -0.095206 1.57312 0
M  V30 12408 C 1163.04 -0.797417 1.85268 0
M  V30 12409 C 1163.35 -1.79903 0.767733 0
M  V30 12410 O 1164.55 -2.54914 0.934409 0
M  V30 12411 C 1163.01 -1.469 3.28555 0
M  V30 12412 C 1162.62 -0.507152 4.4512 0
M  V30 12413 C 1164.36 -2.15494 3.65735 0
M  V30 12414 C 1162.27 -1.18331 5.79441 0
M  V30 12415 H 1161.2 -0.301552 0.691074 0
M  V30 12416 H 1163.85 -0.0503584 1.83431 0
M  V30 12417 H 1162.23 -2.26351 3.24933 0
M  V30 12418 H 1163.41 0.255858 4.60089 0
M  V30 12419 H 1161.72 0.0730882 4.16336 0
M  V30 12420 H 1164.32 -2.66816 4.63371 0
M  V30 12421 H 1164.66 -2.94383 2.94354 0
M  V30 12422 H 1165.19 -1.42903 3.71246 0
M  V30 12423 H 1161.93 -0.435238 6.54053 0
M  V30 12424 H 1161.45 -1.91775 5.68315 0
M  V30 12425 H 1163.13 -1.70983 6.23998 0
M  V30 12426 N 1163.26 -1.53291 -0.366026 0
M  V30 12427 C 1164.23 -1.79025 -1.43117 0
M  V30 12428 C 1165.23 -0.660676 -1.46601 0
M  V30 12429 O 1166.42 -0.928875 -1.47369 0
M  V30 12430 C 1163.55 -1.91192 -2.82238 0
M  V30 12431 H 1164.74 -2.74154 -1.21572 0
M  V30 12432 H 1162.3 -1.44361 -0.599132 0
M  V30 12433 H 1163.03 -0.98129 -3.09097 0
M  V30 12434 H 1162.82 -2.7335 -2.81109 0
M  V30 12435 H 1164.31 -2.12696 -3.59375 0
M  V30 12436 N 1164.74 0.6258 -1.44643 0
M  V30 12437 C 1165.99 1.38525 -1.47706 0
M  V30 12438 C 1166.32 1.94179 -0.111703 0
M  V30 12439 O 1165.57 1.74432 0.887237 0
M  V30 12440 C 1165.87 2.56466 -2.48917 0
M  V30 12441 C 1165.54 2.19069 -3.94106 0
M  V30 12442 C 1164.2 2.08583 -4.33643 0
M  V30 12443 C 1166.55 1.89608 -4.85488 0
M  V30 12444 C 1163.88 1.66831 -5.6248 0
M  V30 12445 C 1166.23 1.49347 -6.14718 0
M  V30 12446 C 1164.9 1.37406 -6.53204 0
M  V30 12447 H 1164.17 0.506899 -0.540494 0
M  V30 12448 H 1166.81 0.709128 -1.77887 0
M  V30 12449 H 1165.12 3.29335 -2.12239 0
M  V30 12450 H 1166.81 3.14695 -2.48532 0
M  V30 12451 H 1163.4 2.28151 -3.62829 0
M  V30 12452 H 1167.59 1.96616 -4.55693 0
M  V30 12453 H 1162.84 1.56195 -5.91112 0
M  V30 12454 H 1167.02 1.2559 -6.84982 0
M  V30 12455 H 1164.65 1.04826 -7.52938 0
M  V30 12456 N 1166.22 1.31629 0.866686 0
M  V30 12457 C 1167.45 1.24474 1.65269 0
M  V30 12458 C 1167.86 -0.18939 1.87848 0
M  V30 12459 O 1167.22 -1.12251 1.43895 0
M  V30 12460 C 1167.27 1.98872 3.01881 0
M  V30 12461 O 1166.99 3.36687 2.8031 0
M  V30 12462 C 1168.49 1.98595 3.96327 0
M  V30 12463 H 1165.71 0.429966 0.515141 0
M  V30 12464 H 1168.26 1.73559 1.08156 0
M  V30 12465 H 1166.41 1.53539 3.55675 0
M  V30 12466 H 1166.83 3.74612 3.67105 0
M  V30 12467 H 1168.3 2.55156 4.89489 0
M  V30 12468 H 1168.78 0.969257 4.28371 0
M  V30 12469 H 1169.38 2.43821 3.4847 0
M  V30 12470 N 1167.7 -1.08142 1.14644 0
M  V30 12471 C 1168.63 -2.14476 0.779437 0
M  V30 12472 C 1169.61 -1.60812 -0.240454 0
M  V30 12473 O 1170.79 -1.88059 -0.128881 0
M  V30 12474 C 1167.92 -3.38333 0.157692 0
M  V30 12475 C 1166.97 -4.10754 1.14819 0
M  V30 12476 S 1167.8 -4.63227 2.68666 0
M  V30 12477 C 1168.96 -5.90367 2.07888 0
M  V30 12478 H 1169.19 -2.45276 1.68009 0
M  V30 12479 H 1166.72 -1.20292 0.967942 0
M  V30 12480 H 1168.68 -4.10038 -0.194607 0
M  V30 12481 H 1167.34 -3.05726 -0.720435 0
M  V30 12482 H 1166.53 -4.99644 0.661226 0
M  V30 12483 H 1166.14 -3.44974 1.44462 0
M  V30 12484 H 1168.43 -6.62107 1.43599 0
M  V30 12485 H 1169.37 -6.43764 2.94913 0
M  V30 12486 H 1169.78 -5.43507 1.52514 0
M  V30 12487 N 1169.18 -0.941978 -1.26351 0
M  V30 12488 C 1170.41 -0.605868 -1.97517 0
M  V30 12489 C 1170.82 0.823583 -1.70334 0
M  V30 12490 O 1170.16 1.56085 -0.968662 0
M  V30 12491 C 1170.22 -0.769201 -3.51175 0
M  V30 12492 C 1169.88 -2.17343 -4.02009 0
M  V30 12493 C 1170.88 -3.14898 -4.13685 0
M  V30 12494 C 1168.57 -2.49422 -4.35998 0
M  V30 12495 C 1170.56 -4.42631 -4.58646 0
M  V30 12496 C 1168.25 -3.77388 -4.80647 0
M  V30 12497 C 1169.25 -4.73806 -4.91932 0
M  V30 12498 O 1168.93 -5.99493 -5.35596 0
M  V30 12499 H 1168.67 -0.227113 -0.636707 0
M  V30 12500 H 1171.22 -1.26523 -1.61806 0
M  V30 12501 H 1169.45 -0.0527104 -3.86664 0
M  V30 12502 H 1171.14 -0.436032 -4.03551 0
M  V30 12503 H 1171.9 -2.91438 -3.87671 0
M  V30 12504 H 1167.78 -1.7511 -4.26448 0
M  V30 12505 H 1171.33 -5.17892 -4.67369 0
M  V30 12506 H 1167.22 -4.0066 -5.06105 0
M  V30 12507 H 1167.99 -6.02687 -5.53815 0
M  V30 12508 N 1170.66 1.40747 -0.709091 0
M  V30 12509 C 1171.88 2.05319 -0.255258 0
M  V30 12510 C 1172.3 1.53406 1.10054 0
M  V30 12511 O 1171.66 0.687905 1.69039 0
M  V30 12512 C 1171.71 3.60835 -0.219251 0
M  V30 12513 O 1171.43 4.1083 -1.52151 0
M  V30 12514 C 1172.93 4.42572 0.253927 0
M  V30 12515 H 1170.15 0.660904 -0.115959 0
M  V30 12516 H 1172.69 1.80274 -0.965474 0
M  V30 12517 H 1170.85 3.84872 0.441882 0
M  V30 12518 H 1171.26 5.04979 -1.41764 0
M  V30 12519 H 1172.74 5.51529 0.22798 0
M  V30 12520 H 1173.21 4.19673 1.29504 0
M  V30 12521 H 1173.82 4.23629 -0.376694 0
M  V30 12522 N 1172.13 0.454803 1.50895 0
M  V30 12523 C 1173.36 -0.103936 2.06639 0
M  V30 12524 C 1173.78 -1.34943 1.32044 0
M  V30 12525 O 1173.13 -1.78393 0.384972 0
M  V30 12526 C 1173.18 -0.408546 3.59184 0
M  V30 12527 O 1172.91 0.787535 4.30963 0
M  V30 12528 C 1174.41 -1.01605 4.31499 0
M  V30 12529 H 1171.63 -0.000171839 0.671 0
M  V30 12530 H 1174.17 0.638907 1.94263 0
M  V30 12531 H 1172.33 -1.1013 3.71416 0
M  V30 12532 H 1172.74 0.52229 5.21893 0
M  V30 12533 H 1174.21 -1.17906 5.39261 0
M  V30 12534 H 1174.69 -2.00182 3.90927 0
M  V30 12535 H 1175.3 -0.362155 4.23755 0
M  V30 12536 N 1173.61 -1.56489 0.186789 0
M  V30 12537 C 1174.85 -1.99239 -0.456427 0
M  V30 12538 C 1175.22 -1.07076 -1.5937 0
M  V30 12539 O 1176.42 -1.39028 -2.30054 0
M  V30 12540 C 1174.69 -3.45553 -0.912587 0
M  V30 12541 S 1176.25 -4.1033 -1.55481 0
M  V30 12542 H 1173.06 -0.695792 -0.146267 0
M  V30 12543 H 1175.67 -1.93369 0.287899 0
M  V30 12544 H 1174.37 -4.10332 -0.0746877 0
M  V30 12545 H 1173.9 -3.55222 -1.69058 0
M  V30 12546 H 1175.92 -4.06653 -2.84338 0
M  V30 12547 N 1175.09 0.086862 -1.5736 0
M  V30 12548 C 1176.34 0.787581 -1.85688 0
M  V30 12549 C 1176.65 1.79494 -0.777263 0
M  V30 12550 O 1177.86 2.54415 -0.947914 0
M  V30 12551 C 1176.31 1.45155 -3.2933 0
M  V30 12552 C 1175.92 0.483539 -4.45383 0
M  V30 12553 C 1177.67 2.13552 -3.66873 0
M  V30 12554 C 1175.57 1.15257 -5.8006 0
M  V30 12555 H 1174.5 0.297882 -0.692663 0
M  V30 12556 H 1177.15 0.0406299 -1.83455 0
M  V30 12557 H 1175.54 2.24625 -3.26128 0
M  V30 12558 H 1176.71 -0.280254 -4.59947 0
M  V30 12559 H 1175.02 -0.0951664 -4.16291 0
M  V30 12560 H 1177.62 2.64355 -4.6478 0
M  V30 12561 H 1177.96 2.92818 -2.95911 0
M  V30 12562 H 1178.5 1.40932 -3.71999 0
M  V30 12563 H 1175.24 0.400546 -6.54275 0
M  V30 12564 H 1174.76 1.88759 -5.69324 0
M  V30 12565 H 1176.44 1.67671 -6.24896 0
M  V30 12566 N 1176.57 1.53483 0.357892 0
M  V30 12567 C 1177.82 1.69256 1.09706 0
M  V30 12568 C 1178.13 0.454888 1.90237 0
M  V30 12569 O 1179.34 0.4933 2.66981 0
M  V30 12570 C 1177.79 2.99238 1.99961 0
M  V30 12571 C 1177.4 4.30293 1.24706 0
M  V30 12572 C 1179.14 3.24378 2.73823 0
M  V30 12573 C 1177.05 5.5136 2.13907 0
M  V30 12574 H 1175.98 0.630657 0.413265 0
M  V30 12575 H 1178.63 1.79983 0.357518 0
M  V30 12576 H 1177.01 2.82332 2.77677 0
M  V30 12577 H 1178.19 4.57857 0.519995 0
M  V30 12578 H 1176.5 4.11656 0.626736 0
M  V30 12579 H 1179.1 4.12015 3.40805 0
M  V30 12580 H 1179.44 2.40769 3.39612 0
M  V30 12581 H 1179.98 3.41994 2.03187 0
M  V30 12582 H 1176.71 6.3747 1.52684 0
M  V30 12583 H 1176.23 5.28065 2.84442 0
M  V30 12584 H 1177.91 5.86448 2.7329 0
M  V30 12585 N 1178.05 -0.61812 1.44973 0
M  V30 12586 C 1179.29 -1.37754 1.4965 0
M  V30 12587 C 1179.65 -1.91945 0.132201 0
M  V30 12588 O 1178.94 -1.71493 -0.854439 0
M  V30 12589 C 1179.13 -2.55143 2.50274 0
M  V30 12590 C 1178.96 -2.12446 3.96354 0
M  V30 12591 C 1177.73 -1.99112 4.64416 0
M  V30 12592 C 1179.93 -1.70557 4.85196 0
M  V30 12593 N 1177.91 -1.50114 5.95264 0
M  V30 12594 C 1179.28 -1.329 6.05589 0
M  V30 12595 C 1181.34 -1.58054 4.72147 0
M  V30 12596 C 1180.04 -0.839882 7.1438 0
M  V30 12597 C 1182.07 -1.10547 5.80976 0
M  V30 12598 C 1181.43 -0.738477 7.00518 0
M  V30 12599 H 1177.53 -0.498393 0.602601 0
M  V30 12600 H 1180.11 -0.70775 1.81381 0
M  V30 12601 H 1178.28 -3.19732 2.20513 0
M  V30 12602 H 1180.02 -3.21988 2.45166 0
M  V30 12603 H 1176.77 -2.19971 4.19416 0
M  V30 12604 H 1177.19 -1.27878 6.64813 0
M  V30 12605 H 1181.84 -1.85056 3.8015 0
M  V30 12606 H 1179.55 -0.557395 8.06175 0
M  V30 12607 H 1183.14 -1.01314 5.72911 0
M  V30 12608 H 1182.02 -0.376513 7.83296 0
M  V30 12609 N 1179.52 -1.32087 -0.859693 0
M  V30 12610 C 1180.45 -1.23204 -1.98351 0
M  V30 12611 C 1181.43 -0.116974 -1.69697 0
M  V30 12612 O 1182.62 -0.303301 -1.91817 0
M  V30 12613 C 1179.75 -0.949171 -3.34078 0
M  V30 12614 C 1178.7 -2.02493 -3.77069 0
M  V30 12615 C 1178.03 -1.59455 -5.1037 0
M  V30 12616 C 1179.33 -3.43934 -3.93074 0
M  V30 12617 H 1181.02 -2.17227 -2.0604 0
M  V30 12618 H 1178.57 -1.04577 -0.989931 0
M  V30 12619 H 1180.52 -0.873594 -4.12245 0
M  V30 12620 H 1179.25 0.0267095 -3.26589 0
M  V30 12621 H 1177.91 -2.09057 -3.01149 0
M  V30 12622 H 1177.55 -0.606256 -4.99333 0
M  V30 12623 H 1177.25 -2.31429 -5.40106 0
M  V30 12624 H 1178.78 -1.53325 -5.91036 0
M  V30 12625 H 1180.19 -3.39986 -4.61608 0
M  V30 12626 H 1178.59 -4.14214 -4.3422 0
M  V30 12627 H 1179.66 -3.83965 -2.9614 0
M  V30 12628 N 1181 1.07532 -1.15215 0
M  V30 12629 C 1181.96 2.1286 -0.84989 0
M  V30 12630 C 1182.96 1.60103 0.149524 0
M  V30 12631 O 1184.15 1.74017 -0.0798918 0
M  V30 12632 C 1181.29 3.3984 -0.268617 0
M  V30 12633 H 1182.48 2.41106 -1.78347 0
M  V30 12634 H 1180.03 1.23392 -0.959386 0
M  V30 12635 H 1180.77 3.17235 0.67325 0
M  V30 12636 H 1180.55 3.79433 -0.988592 0
M  V30 12637 H 1182.04 4.17533 -0.0746554 0
M  V30 12638 N 1182.48 0.948665 1.2585 0
M  V30 12639 C 1183.73 0.600236 1.934 0
M  V30 12640 C 1184.06 -0.86185 1.74363 0
M  V30 12641 O 1183.31 -1.63294 1.07858 0
M  V30 12642 C 1183.61 0.89784 3.45939 0
M  V30 12643 C 1183.28 2.345 3.85124 0
M  V30 12644 C 1181.94 2.74058 3.95532 0
M  V30 12645 C 1184.29 3.2851 4.04636 0
M  V30 12646 C 1181.62 4.06707 4.22855 0
M  V30 12647 C 1183.97 4.60764 4.3345 0
M  V30 12648 C 1182.63 5.00127 4.42074 0
M  V30 12649 H 1181.9 0.219642 0.707699 0
M  V30 12650 H 1184.55 1.19658 1.49513 0
M  V30 12651 H 1182.86 0.219037 3.91187 0
M  V30 12652 H 1184.55 0.606916 3.96381 0
M  V30 12653 H 1181.14 2.02819 3.77574 0
M  V30 12654 H 1185.33 2.99141 3.96015 0
M  V30 12655 H 1180.58 4.36856 4.27746 0
M  V30 12656 H 1184.76 5.33594 4.47493 0
M  V30 12657 H 1182.38 6.02939 4.63 0
M  V30 12658 N 1183.96 -1.40369 0.716545 0
M  V30 12659 C 1185.2 -2.01167 0.256846 0
M  V30 12660 C 1185.54 -1.56689 -1.14727 0
M  V30 12661 O 1184.81 -0.787384 -1.7785 0
M  V30 12662 C 1185.1 -3.58511 0.337963 0
M  V30 12663 C 1184.95 -4.13059 1.78052 0
M  V30 12664 C 1186.27 -4.39142 -0.290295 0
M  V30 12665 H 1183.39 -0.730877 0.0948028 0
M  V30 12666 H 1186.03 -1.66833 0.909225 0
M  V30 12667 H 1184.18 -3.87891 -0.217482 0
M  V30 12668 H 1185.85 -3.94472 2.39143 0
M  V30 12669 H 1184.09 -3.67311 2.30793 0
M  V30 12670 H 1184.76 -5.22217 1.78867 0
M  V30 12671 H 1187.24 -4.15697 0.182987 0
M  V30 12672 H 1186.12 -5.48524 -0.203097 0
M  V30 12673 H 1186.38 -4.20209 -1.37394 0
M  V30 12674 N 1185.44 -0.462799 -1.50652 0
M  V30 12675 C 1186.85 -0.00568907 -1.86699 0
M  V30 12676 C 1187.2 1.39641 -1.37822 0
M  V30 12677 O 1186.32 2.03366 -0.739679 0
M  V30 12678 C 1186.92 -0.00354783 -3.388 0
M  V30 12679 C 1185.48 0.398061 -3.74289 0
M  V30 12680 C 1184.62 -0.392574 -2.74507 0
M  V30 12681 H 1187.58 -0.677469 -1.43513 0
M  V30 12682 H 1187.6 0.800456 -3.71985 0
M  V30 12683 H 1187.11 -1.02414 -3.74344 0
M  V30 12684 H 1185.21 1.42331 -3.44344 0
M  V30 12685 H 1185.32 0.105168 -4.78985 0
M  V30 12686 H 1183.69 0.152608 -2.54242 0
M  V30 12687 H 1184.47 -1.41252 -3.12894 0
M  V30 12688 N 1186.91 1.56388 -0.195085 0
M  V30 12689 C 1188.16 1.96755 0.443901 0
M  V30 12690 C 1188.48 1.08483 1.6276 0
M  V30 12691 O 1189.68 1.38632 2.33438 0
M  V30 12692 C 1188.14 3.49933 0.841139 0
M  V30 12693 C 1187.75 4.46868 -0.318275 0
M  V30 12694 C 1189.49 3.99069 1.44721 0
M  V30 12695 C 1187.4 5.91316 0.0999211 0
M  V30 12696 H 1186.33 0.734674 0.169616 0
M  V30 12697 H 1188.98 1.8124 -0.287101 0
M  V30 12698 H 1187.36 3.60951 1.62881 0
M  V30 12699 H 1188.53 4.47581 -1.0958 0
M  V30 12700 H 1186.85 4.07925 -0.835842 0
M  V30 12701 H 1189.45 5.04465 1.77255 0
M  V30 12702 H 1189.79 3.43376 2.35369 0
M  V30 12703 H 1190.32 3.91165 0.723513 0
M  V30 12704 H 1187.06 6.50934 -0.77237 0
M  V30 12705 H 1186.58 5.93856 0.842304 0
M  V30 12706 H 1188.26 6.44778 0.535726 0
M  V30 12707 N 1188.39 -0.0785156 1.57404 0
M  V30 12708 C 1189.62 -0.790893 1.90862 0
M  V30 12709 C 1190.03 -1.7198 0.788644 0
M  V30 12710 O 1189.37 -1.82027 -0.247322 0
M  V30 12711 C 1189.44 -1.64362 3.19727 0
M  V30 12712 C 1189.1 -0.884796 4.48353 0
M  V30 12713 C 1190.1 -0.207074 5.19487 0
M  V30 12714 C 1187.78 -0.853962 4.94988 0
M  V30 12715 C 1189.78 0.491329 6.35504 0
M  V30 12716 C 1187.46 -0.151783 6.10911 0
M  V30 12717 C 1188.46 0.519669 6.8102 0
M  V30 12718 O 1188.15 1.21055 7.94733 0
M  V30 12719 H 1187.88 -0.230427 0.635515 0
M  V30 12720 H 1190.43 -0.0551231 2.05326 0
M  V30 12721 H 1188.66 -2.42203 3.01454 0
M  V30 12722 H 1190.35 -2.23406 3.38887 0
M  V30 12723 H 1191.12 -0.222247 4.84491 0
M  V30 12724 H 1187 -1.36605 4.40296 0
M  V30 12725 H 1190.54 1.01598 6.90162 0
M  V30 12726 H 1186.44 -0.134514 6.4536 0
M  V30 12727 H 1187.21 1.11914 8.10813 0
M  V30 12728 N 1189.87 -1.5367 -0.349747 0
M  V30 12729 C 1191.12 -1.70618 -1.09068 0
M  V30 12730 C 1191.45 -0.466133 -1.88832 0
M  V30 12731 O 1190.7 0.552079 -1.87751 0
M  V30 12732 C 1191 -2.91753 -2.06434 0
M  V30 12733 C 1190.67 -4.27614 -1.43029 0
M  V30 12734 C 1189.33 -4.64555 -1.25466 0
M  V30 12735 C 1191.68 -5.12037 -0.972987 0
M  V30 12736 C 1189.01 -5.83543 -0.607807 0
M  V30 12737 C 1191.36 -6.31685 -0.340073 0
M  V30 12738 C 1190.02 -6.67327 -0.152069 0
M  V30 12739 H 1189.29 -0.624334 -0.399108 0
M  V30 12740 H 1191.94 -1.87879 -0.370657 0
M  V30 12741 H 1190.25 -2.6907 -2.84796 0
M  V30 12742 H 1191.94 -3.02059 -2.63744 0
M  V30 12743 H 1188.53 -3.98535 -1.57696 0
M  V30 12744 H 1192.72 -4.84035 -1.09655 0
M  V30 12745 H 1187.97 -6.09737 -0.450705 0
M  V30 12746 H 1192.15 -6.96396 0.0223973 0
M  V30 12747 H 1189.77 -7.59388 0.35121 0
M  V30 12748 N 1191.35 0.610423 -1.45298 0
M  V30 12749 C 1192.6 1.3668 -1.48872 0
M  V30 12750 C 1192.92 1.94562 -0.130686 0
M  V30 12751 O 1192.19 1.76996 0.839607 0
M  V30 12752 H 1190.77 0.507393 -0.548235 0
M  V30 12753 H 1193.43 0.716997 -1.81232 0
M  V30 12754 H 1192.53 2.18766 -2.22593 0
M  V30 12755 N 1192.83 1.32541 0.852676 0
M  V30 12756 C 1194.05 1.2636 1.64462 0
M  V30 12757 C 1194.48 -0.16508 1.87374 0
M  V30 12758 O 1193.83 -1.11712 1.42794 0
M  V30 12759 C 1193.88 2.03052 2.97997 0
M  V30 12760 O 1192.99 1.37967 3.88637 0
M  V30 12761 H 1192.33 0.435393 0.501327 0
M  V30 12762 H 1194.86 1.74888 1.06186 0
M  V30 12763 H 1194.87 2.133 3.47803 0
M  V30 12764 H 1193.54 3.06941 2.80642 0
M  V30 12765 H 1192.12 1.36279 3.47106 0
M  V30 12766 N 1194.3 -1.0692 1.15784 0
M  V30 12767 C 1195.25 -2.16335 0.854506 0
M  V30 12768 C 1196.25 -1.68505 -0.173868 0
M  V30 12769 O 1197.45 -1.79977 -0.0284722 0
M  V30 12770 H 1193.83 -0.706103 0.258694 0
M  V30 12771 H 1195.8 -2.39135 1.78486 0
M  V30 12772 C 1194.55 -3.45778 0.365042 0
M  V30 12773 H 1193.87 -3.82971 1.14776 0
M  V30 12774 H 1195.31 -4.23567 0.191504 0
M  V30 12775 C 1193.77 -3.24258 -0.914253 0
M  V30 12776 O 1194.3 -3.49236 -1.98487 0
M  V30 12777 N 1192.51 -2.77722 -0.855501 0
M  V30 12778 H 1192.05 -2.57595 0.0159233 0
M  V30 12779 H 1192.01 -2.63702 -1.71198 0
M  V30 12780 N 1195.78 -0.955326 -1.25345 0
M  V30 12781 C 1197.01 -0.626783 -1.96863 0
M  V30 12782 C 1197.42 0.80547 -1.71198 0
M  V30 12783 O 1196.76 1.55049 -0.985163 0
M  V30 12784 C 1196.83 -0.806404 -3.50339 0
M  V30 12785 C 1196.49 -2.21595 -3.99681 0
M  V30 12786 C 1197.49 -3.19268 -4.10322 0
M  V30 12787 C 1195.17 -2.54032 -4.33328 0
M  V30 12788 C 1197.17 -4.47471 -4.53926 0
M  V30 12789 C 1194.85 -3.82465 -4.76617 0
M  V30 12790 C 1195.85 -4.78997 -4.86879 0
M  V30 12791 O 1195.54 -6.0514 -5.29208 0
M  V30 12792 H 1195.27 -0.233854 -0.634262 0
M  V30 12793 H 1197.82 -1.28232 -1.60455 0
M  V30 12794 H 1196.05 -0.0937184 -3.86586 0
M  V30 12795 H 1197.74 -0.47881 -4.03066 0
M  V30 12796 H 1198.51 -2.95534 -3.84558 0
M  V30 12797 H 1194.39 -1.79623 -4.24566 0
M  V30 12798 H 1197.93 -5.22819 -4.6185 0
M  V30 12799 H 1193.83 -4.06005 -5.01827 0
M  V30 12800 H 1194.6 -6.08527 -5.47392 0
M  V30 12801 N 1197.26 1.39987 -0.723979 0
M  V30 12802 C 1198.21 2.30672 -0.0768286 0
M  V30 12803 C 1199.18 1.48634 0.741422 0
M  V30 12804 O 1200.36 1.77351 0.703649 0
M  V30 12805 C 1197.5 3.34902 0.832729 0
M  V30 12806 C 1196.62 4.32 0.00304942 0
M  V30 12807 C 1195.75 5.23298 0.91286 0
M  V30 12808 C 1194.79 6.12051 0.0777706 0
M  V30 12809 N 1193.93 6.9574 0.942912 0
M  V30 12810 H 1198.77 2.85446 -0.855832 0
M  V30 12811 H 1196.3 1.40561 -0.433718 0
M  V30 12812 H 1198.26 3.93911 1.37441 0
M  V30 12813 H 1196.89 2.81611 1.57782 0
M  V30 12814 H 1195.94 3.74702 -0.655916 0
M  V30 12815 H 1197.26 4.94637 -0.643124 0
M  V30 12816 H 1196.41 5.87279 1.52277 0
M  V30 12817 H 1195.15 4.60956 1.59284 0
M  V30 12818 H 1194.15 5.47092 -0.545022 0
M  V30 12819 H 1195.38 6.76455 -0.598827 0
M  V30 12820 H 1193.33 6.35977 1.60838 0
M  V30 12821 H 1193.24 7.55176 0.352968 0
M  V30 12822 H 1194.51 7.64162 1.53874 0
M  V30 12823 N 1198.74 0.470782 1.50404 0
M  V30 12824 C 1199.99 -0.0859981 2.01517 0
M  V30 12825 C 1200.3 -1.40811 1.35763 0
M  V30 12826 O 1201.51 -2.04982 1.7803 0
M  V30 12827 C 1199.96 -0.203773 3.59323 0
M  V30 12828 C 1199.57 1.10989 4.34034 0
M  V30 12829 C 1201.32 -0.712528 4.18477 0
M  V30 12830 C 1199.22 0.955928 5.83623 0
M  V30 12831 H 1198.15 -0.0359142 0.753144 0
M  V30 12832 H 1200.8 0.605631 1.73218 0
M  V30 12833 H 1199.19 -0.959177 3.84208 0
M  V30 12834 H 1200.36 1.87623 4.20873 0
M  V30 12835 H 1198.67 1.54973 3.86487 0
M  V30 12836 H 1201.27 -0.844745 5.27985 0
M  V30 12837 H 1201.61 -1.70377 3.79838 0
M  V30 12838 H 1202.15 -0.0145179 3.97797 0
M  V30 12839 H 1198.89 1.92054 6.26734 0
M  V30 12840 H 1198.41 0.22997 5.99359 0
M  V30 12841 H 1200.09 0.622423 6.43999 0
M  V30 12842 N 1200.22 -1.56282 0.203376 0
M  V30 12843 C 1201.47 -1.96987 -0.433461 0
M  V30 12844 C 1201.78 -1.09344 -1.62183 0
M  V30 12845 O 1202.99 -1.39868 -2.327 0
M  V30 12846 C 1201.44 -3.50374 -0.82257 0
M  V30 12847 C 1201.05 -4.46693 0.341969 0
M  V30 12848 C 1202.79 -3.99831 -1.42603 0
M  V30 12849 C 1200.7 -5.9136 -0.0685608 0
M  V30 12850 H 1199.63 -0.735564 -0.165717 0
M  V30 12851 H 1202.28 -1.81085 0.296708 0
M  V30 12852 H 1200.66 -3.6181 -1.60964 0
M  V30 12853 H 1201.84 -4.46994 1.11952 0
M  V30 12854 H 1200.15 -4.07476 0.857463 0
M  V30 12855 H 1202.75 -5.05398 -1.74577 0
M  V30 12856 H 1203.09 -3.4462 -2.33544 0
M  V30 12857 H 1203.63 -3.91543 -0.702758 0
M  V30 12858 H 1200.36 -6.50515 0.80688 0
M  V30 12859 H 1199.88 -5.94295 -0.810798 0
M  V30 12860 H 1201.56 -6.45053 -0.501525 0
M  V30 12861 N 1201.7 0.070167 -1.57444 0
M  V30 12862 C 1202.92 0.781894 -1.91557 0
M  V30 12863 C 1203.34 1.71037 -0.799489 0
M  V30 12864 O 1202.7 1.81082 0.227062 0
M  V30 12865 C 1202.75 1.57415 -3.25427 0
M  V30 12866 O 1202.47 0.682991 -4.32743 0
M  V30 12867 C 1203.97 2.38673 -3.73564 0
M  V30 12868 H 1201.19 0.222211 -0.633138 0
M  V30 12869 H 1203.73 0.0399504 -2.04461 0
M  V30 12870 H 1201.89 2.26835 -3.14045 0
M  V30 12871 H 1202.3 1.2342 -5.09772 0
M  V30 12872 H 1203.78 2.89716 -4.6986 0
M  V30 12873 H 1204.25 3.18269 -3.02657 0
M  V30 12874 H 1204.86 1.74405 -3.87896 0
M  V30 12875 N 1203.17 1.53854 0.341593 0
M  V30 12876 C 1204.4 1.75134 1.10162 0
M  V30 12877 C 1204.82 0.491415 1.82292 0
M  V30 12878 O 1204.17 -0.53703 1.7442 0
M  V30 12879 C 1204.22 2.93273 2.1136 0
M  V30 12880 O 1203.95 4.14393 1.42162 0
M  V30 12881 C 1205.45 3.26621 2.99723 0
M  V30 12882 H 1202.67 0.585126 0.328434 0
M  V30 12883 H 1205.21 2.00684 0.393204 0
M  V30 12884 H 1203.37 2.70048 2.77764 0
M  V30 12885 H 1203.78 4.8072 2.09783 0
M  V30 12886 H 1205.25 4.12629 3.66662 0
M  V30 12887 H 1205.73 2.43008 3.65847 0
M  V30 12888 H 1206.34 3.51858 2.38906 0
M  V30 12889 N 1204.65 -0.602709 1.4562 0
M  V30 12890 C 1205.89 -1.37284 1.51435 0
M  V30 12891 C 1206.26 -1.9138 0.154148 0
M  V30 12892 O 1207.46 -2.68659 0.0870009 0
M  V30 12893 C 1205.73 -2.48651 2.56724 0
M  V30 12894 S 1207.29 -3.36354 2.818 0
M  V30 12895 H 1204.1 -0.46798 0.535272 0
M  V30 12896 H 1206.71 -0.694957 1.82731 0
M  V30 12897 H 1205.41 -2.07267 3.54215 0
M  V30 12898 H 1204.94 -3.21234 2.27095 0
M  V30 12899 H 1206.96 -4.46937 2.15549 0
M  V30 12900 N 1206.13 -1.32992 -0.845635 0
M  V30 12901 C 1207.38 -1.24065 -1.60044 0
M  V30 12902 C 1207.7 0.195282 -1.93517 0
M  V30 12903 O 1206.96 1.1507 -1.58296 0
M  V30 12904 C 1207.26 -2.05454 -2.92444 0
M  V30 12905 C 1206.92 -3.54718 -2.78362 0
M  V30 12906 C 1205.59 -3.95413 -2.74229 0
M  V30 12907 C 1207.94 -4.49598 -2.63649 0
M  V30 12908 C 1205.27 -5.29216 -2.53274 0
M  V30 12909 C 1207.62 -5.83554 -2.44228 0
M  V30 12910 C 1206.28 -6.2344 -2.38493 0
M  V30 12911 H 1205.55 -0.453985 -0.585644 0
M  V30 12912 H 1208.2 -1.6451 -0.980244 0
M  V30 12913 H 1206.5 -1.57765 -3.58633 0
M  V30 12914 H 1208.2 -1.95909 -3.49887 0
M  V30 12915 H 1204.79 -3.22403 -2.82409 0
M  V30 12916 H 1208.98 -4.19072 -2.65881 0
M  V30 12917 H 1204.23 -5.59164 -2.47275 0
M  V30 12918 H 1208.41 -6.56681 -2.31825 0
M  V30 12919 H 1206.03 -7.27058 -2.22015 0
M  V30 12920 N 1207.61 1.06304 -1.1635 0
M  V30 12921 C 1208.57 2.11947 -0.872419 0
M  V30 12922 C 1209.57 1.60253 0.132534 0
M  V30 12923 O 1210.76 1.73922 -0.0983441 0
M  V30 12924 C 1207.89 3.39536 -0.304646 0
M  V30 12925 H 1209.09 2.39201 -1.80894 0
M  V30 12926 H 1206.64 1.22367 -0.972419 0
M  V30 12927 H 1207.37 3.17931 0.639565 0
M  V30 12928 H 1207.16 3.78363 -1.02878 0
M  V30 12929 H 1208.65 4.17431 -0.118936 0
M  V30 12930 N 1209.09 0.96196 1.24836 0
M  V30 12931 C 1210.33 0.621634 1.93038 0
M  V30 12932 C 1210.66 -0.840257 1.75081 0
M  V30 12933 O 1209.94 -1.60381 1.10038 0
M  V30 12934 C 1210.22 0.990107 3.46221 0
M  V30 12935 C 1210.08 2.50827 3.73371 0
M  V30 12936 C 1211.39 0.520478 4.37011 0
M  V30 12937 H 1208.51 0.227312 0.701069 0
M  V30 12938 H 1211.16 1.19993 1.47315 0
M  V30 12939 H 1209.31 0.498008 3.85295 0
M  V30 12940 H 1210.98 3.07469 3.4389 0
M  V30 12941 H 1209.22 2.94277 3.18722 0
M  V30 12942 H 1209.89 2.71659 4.80526 0
M  V30 12943 H 1212.37 0.942703 4.05281 0
M  V30 12944 H 1211.24 0.806918 5.42937 0
M  V30 12945 H 1211.5 -0.579507 4.38285 0
M  V30 12946 N 1210.56 -1.39601 0.731392 0
M  V30 12947 C 1211.79 -2.05411 0.286532 0
M  V30 12948 C 1212.21 -1.54777 -1.06892 0
M  V30 12949 O 1211.57 -0.689942 -1.67659 0
M  V30 12950 C 1211.62 -3.594 0.293914 0
M  V30 12951 O 1210.72 -4.06072 -0.719657 0
M  V30 12952 H 1210.06 -0.650949 0.131004 0
M  V30 12953 H 1212.59 -1.78703 0.996305 0
M  V30 12954 H 1212.6 -4.0777 0.137052 0
M  V30 12955 H 1211.28 -3.95617 1.28298 0
M  V30 12956 H 1209.86 -3.69125 -0.529226 0
M  V30 12957 N 1212.04 -0.478751 -1.50152 0
M  V30 12958 C 1212.97 0.301182 -2.31549 0
M  V30 12959 C 1213.95 0.983276 -1.38801 0
M  V30 12960 O 1215.14 0.978973 -1.67719 0
M  V30 12961 C 1212.27 1.3791 -3.18745 0
M  V30 12962 C 1211.22 0.818175 -4.20107 0
M  V30 12963 C 1210.55 1.99496 -4.9609 0
M  V30 12964 C 1211.85 -0.17574 -5.22004 0
M  V30 12965 H 1213.54 -0.378188 -2.97002 0
M  V30 12966 H 1211.09 -0.183323 -1.42828 0
M  V30 12967 H 1213.04 1.93227 -3.74488 0
M  V30 12968 H 1211.77 2.08735 -2.51192 0
M  V30 12969 H 1210.42 0.286924 -3.65475 0
M  V30 12970 H 1210.07 2.69036 -4.25004 0
M  V30 12971 H 1209.77 1.62582 -5.6466 0
M  V30 12972 H 1211.3 2.55288 -5.54671 0
M  V30 12973 H 1212.71 0.288513 -5.72574 0
M  V30 12974 H 1211.11 -0.459549 -5.98338 0
M  V30 12975 H 1212.18 -1.09911 -4.72279 0
M  V30 12976 N 1213.52 1.56172 -0.211661 0
M  V30 12977 C 1214.75 2.02874 0.430905 0
M  V30 12978 C 1215.17 1.09064 1.53254 0
M  V30 12979 O 1214.53 0.0770408 1.81136 0
M  V30 12980 C 1214.58 3.4789 0.948933 0
M  V30 12981 O 1213.68 3.57213 2.0609 0
M  V30 12982 H 1213.02 0.656614 0.0987607 0
M  V30 12983 H 1215.55 2.01964 -0.327399 0
M  V30 12984 H 1215.56 3.88015 1.2613 0
M  V30 12985 H 1214.24 4.15656 0.142584 0
M  V30 12986 H 1212.81 3.28971 1.75592 0
M  V30 12987 N 1215 -0.0618163 1.57479 0
M  V30 12988 C 1216.24 -0.760193 1.88013 0
M  V30 12989 C 1216.58 -1.76718 0.805258 0
M  V30 12990 O 1215.85 -1.93633 -0.183408 0
M  V30 12991 C 1216.14 -1.45924 3.29208 0
M  V30 12992 C 1215.99 -0.467994 4.47359 0
M  V30 12993 C 1217.31 -2.40166 3.68793 0
M  V30 12994 H 1214.43 -0.274896 0.683814 0
M  V30 12995 H 1217.07 -0.0232433 1.89986 0
M  V30 12996 H 1215.22 -2.08741 3.27657 0
M  V30 12997 H 1216.89 0.155735 4.61037 0
M  V30 12998 H 1215.13 0.215797 4.33263 0
M  V30 12999 H 1215.8 -0.994942 5.42959 0
M  V30 13000 H 1218.28 -1.87419 3.71501 0
M  V30 13001 H 1217.16 -2.86076 4.68457 0
M  V30 13002 H 1217.42 -3.25413 2.99264 0
M  V30 13003 N 1216.48 -1.54033 -0.333429 0
M  V30 13004 C 1217.7 -1.75716 -1.09232 0
M  V30 13005 C 1218.12 -0.501076 -1.82029 0
M  V30 13006 O 1217.48 0.527772 -1.74702 0
M  V30 13007 C 1217.53 -2.9439 -2.09802 0
M  V30 13008 O 1217.25 -4.15141 -1.39963 0
M  V30 13009 C 1218.75 -3.28206 -2.97987 0
M  V30 13010 H 1215.97 -0.586859 -0.325326 0
M  V30 13011 H 1218.51 -2.0089 -0.382555 0
M  V30 13012 H 1216.67 -2.71518 -2.76327 0
M  V30 13013 H 1217.08 -4.81826 -2.0723 0
M  V30 13014 H 1218.56 -4.14568 -3.64469 0
M  V30 13015 H 1219.03 -2.44944 -3.64553 0
M  V30 13016 H 1219.64 -3.5312 -2.37036 0
M  V30 13017 N 1217.95 0.594978 -1.45938 0
M  V30 13018 C 1219.2 1.35561 -1.50834 0
M  V30 13019 C 1219.53 1.93584 -0.154566 0
M  V30 13020 O 1218.81 1.75781 0.832541 0
M  V30 13021 C 1219.09 2.49414 -2.5974 0
M  V30 13022 C 1218.94 1.96506 -4.04605 0
M  V30 13023 C 1220.26 3.51505 -2.64825 0
M  V30 13024 H 1217.38 0.491549 -0.549134 0
M  V30 13025 H 1220.02 0.669536 -1.77812 0
M  V30 13026 H 1218.17 3.07939 -2.36866 0
M  V30 13027 H 1219.85 1.42533 -4.38728 0
M  V30 13028 H 1218.09 1.27418 -4.14665 0
M  V30 13029 H 1218.76 2.78636 -4.76515 0
M  V30 13030 H 1221.24 3.02841 -2.85353 0
M  V30 13031 H 1220.11 4.28641 -3.42867 0
M  V30 13032 H 1220.37 4.07942 -1.70399 0
M  V30 13033 N 1219.43 1.33438 0.838571 0
M  V30 13034 C 1220.4 1.23632 1.92997 0
M  V30 13035 C 1221.4 0.155302 1.60048 0
M  V30 13036 O 1222.59 0.406852 1.69382 0
M  V30 13037 C 1219.72 0.90512 3.28665 0
M  V30 13038 H 1220.91 2.20643 2.03117 0
M  V30 13039 H 1218.46 1.17501 1.03069 0
M  V30 13040 H 1219.2 -0.0624833 3.2424 0
M  V30 13041 H 1218.98 1.68688 3.53959 0
M  V30 13042 H 1220.47 0.861262 4.08622 0
M  V30 13043 N 1220.91 -1.05686 1.16912 0
M  V30 13044 C 1221.84 -2.15268 0.904532 0
M  V30 13045 C 1222.82 -1.69424 -0.151548 0
M  V30 13046 O 1224.01 -1.942 -0.00235371 0
M  V30 13047 C 1221.14 -3.44853 0.411581 0
M  V30 13048 C 1220.09 -4.04237 1.40628 0
M  V30 13049 C 1219.42 -5.29105 0.771479 0
M  V30 13050 C 1220.72 -4.42303 2.77787 0
M  V30 13051 H 1222.41 -2.37659 1.82094 0
M  V30 13052 H 1219.96 -1.14217 0.876947 0
M  V30 13053 H 1221.91 -4.20857 0.213929 0
M  V30 13054 H 1220.63 -3.22099 -0.540352 0
M  V30 13055 H 1219.29 -3.30297 1.59058 0
M  V30 13056 H 1218.94 -5.02652 -0.187133 0
M  V30 13057 H 1218.64 -5.69797 1.43545 0
M  V30 13058 H 1220.16 -6.07801 0.583988 0
M  V30 13059 H 1221.58 -5.09362 2.63103 0
M  V30 13060 H 1219.98 -4.93997 3.40716 0
M  V30 13061 H 1221.05 -3.52877 3.32575 0
M  V30 13062 N 1222.39 -0.968567 -1.24324 0
M  V30 13063 C 1223.64 -0.629682 -1.9204 0
M  V30 13064 C 1223.96 0.837906 -1.7608 0
M  V30 13065 O 1223.23 1.5982 -1.13289 0
M  V30 13066 H 1221.81 -0.229901 -0.710742 0
M  V30 13067 H 1224.47 -1.22982 -1.512 0
M  V30 13068 H 1223.57 -0.871034 -2.99699 0
M  V30 13069 N 1223.87 1.39211 -0.738786 0
M  V30 13070 C 1225.11 2.02287 -0.293119 0
M  V30 13071 C 1225.47 1.57361 1.10006 0
M  V30 13072 O 1226.67 2.12663 1.64402 0
M  V30 13073 C 1224.94 3.55204 -0.395547 0
M  V30 13074 S 1226.5 4.3879 -0.0302798 0
M  V30 13075 H 1223.32 0.701702 -0.114609 0
M  V30 13076 H 1225.92 1.69959 -0.966138 0
M  V30 13077 H 1224.63 3.85392 -1.41072 0
M  V30 13078 H 1224.16 3.92291 0.295163 0
M  V30 13079 H 1226.17 4.81848 1.18478 0
M  V30 13080 N 1225.34 0.486708 1.49896 0
M  V30 13081 C 1226.28 -0.345627 2.25567 0
M  V30 13082 C 1227.26 -0.982794 1.29537 0
M  V30 13083 O 1228.44 -1.01569 1.58796 0
M  V30 13084 C 1225.57 -1.48555 3.04383 0
M  V30 13085 C 1224.61 -0.964196 4.15458 0
M  V30 13086 S 1225.45 0.133631 5.35333 0
M  V30 13087 C 1226.6 -1.00979 6.17701 0
M  V30 13088 H 1226.83 0.296677 2.95816 0
M  V30 13089 H 1224.37 0.271798 1.51989 0
M  V30 13090 H 1226.33 -2.13878 3.50381 0
M  V30 13091 H 1224.99 -2.09942 2.33631 0
M  V30 13092 H 1224.18 -1.81804 4.70067 0
M  V30 13093 H 1223.78 -0.388419 3.71978 0
M  V30 13094 H 1226.07 -1.91812 6.4978 0
M  V30 13095 H 1227.02 -0.502633 7.06314 0
M  V30 13096 H 1227.42 -1.27067 5.50013 0
M  V30 13097 N 1226.82 -1.56058 0.219941 0
M  V30 13098 C 1228.07 -1.9826 -0.412197 0
M  V30 13099 C 1228.4 -1.10754 -1.59887 0
M  V30 13100 O 1227.65 -0.15212 -1.95108 0
M  V30 13101 C 1227.95 -3.46113 -0.8911 0
M  V30 13102 C 1227.62 -4.50521 0.184877 0
M  V30 13103 C 1226.28 -4.78795 0.480462 0
M  V30 13104 C 1228.63 -5.13147 0.912652 0
M  V30 13105 C 1225.96 -5.66979 1.50837 0
M  V30 13106 C 1228.31 -6.02444 1.92988 0
M  V30 13107 C 1226.98 -6.29063 2.2324 0
M  V30 13108 H 1226.25 -0.725486 -0.150834 0
M  V30 13109 H 1228.89 -1.88771 0.322122 0
M  V30 13110 H 1227.2 -3.52797 -1.70415 0
M  V30 13111 H 1228.9 -3.76137 -1.39003 0
M  V30 13112 H 1225.49 -4.28564 -0.0556594 0
M  V30 13113 H 1229.67 -4.91374 0.697532 0
M  V30 13114 H 1224.93 -5.85868 1.74839 0
M  V30 13115 H 1229.1 -6.50022 2.49889 0
M  V30 13116 H 1226.73 -6.97191 3.03032 0
M  V30 13117 N 1228.3 0.053464 -1.57509 0
M  V30 13118 C 1229.53 0.761533 -1.92375 0
M  V30 13119 C 1229.94 1.70179 -0.817585 0
M  V30 13120 O 1229.3 1.81313 0.207843 0
M  V30 13121 C 1229.35 1.53954 -3.27078 0
M  V30 13122 O 1229.07 0.637054 -4.33443 0
M  V30 13123 C 1230.57 2.34697 -3.76075 0
M  V30 13124 H 1227.79 0.215483 -0.635459 0
M  V30 13125 H 1230.34 0.0182624 -2.04492 0
M  V30 13126 H 1228.49 2.23492 -3.16434 0
M  V30 13127 H 1228.91 1.18006 -5.11053 0
M  V30 13128 H 1230.38 2.84716 -4.72906 0
M  V30 13129 H 1230.86 3.15041 -3.06016 0
M  V30 13130 H 1231.46 1.70281 -3.89724 0
M  V30 13131 N 1229.78 1.54207 0.325255 0
M  V30 13132 C 1231.19 1.63587 0.899793 0
M  V30 13133 C 1231.54 0.528851 1.88938 0
M  V30 13134 O 1230.67 -0.33852 2.13736 0
M  V30 13135 C 1231.26 2.9653 1.63877 0
M  V30 13136 C 1229.82 3.08111 2.16205 0
M  V30 13137 C 1228.97 2.59144 0.986903 0
M  V30 13138 H 1231.92 1.58366 0.102883 0
M  V30 13139 H 1231.94 2.86595 2.50287 0
M  V30 13140 H 1231.45 3.7708 0.918279 0
M  V30 13141 H 1229.55 2.32232 2.91375 0
M  V30 13142 H 1229.67 4.13885 2.41322 0
M  V30 13143 H 1228.03 2.14997 1.36558 0
M  V30 13144 H 1228.81 3.4215 0.28076 0
M  V30 13145 N 1231.26 -0.58723 1.46251 0
M  V30 13146 C 1232.2 -1.69662 1.56472 0
M  V30 13147 C 1233.17 -1.60978 0.409294 0
M  V30 13148 O 1234.36 -1.80257 0.625451 0
M  V30 13149 C 1231.5 -3.07996 1.55669 0
M  V30 13150 C 1230.61 -3.27337 2.81913 0
M  V30 13151 C 1229.75 -4.55894 2.72644 0
M  V30 13152 C 1228.79 -4.68562 3.93847 0
M  V30 13153 N 1227.92 -5.8844 3.82991 0
M  V30 13154 H 1232.76 -1.60262 2.51237 0
M  V30 13155 H 1230.3 -0.781148 1.24645 0
M  V30 13156 H 1232.26 -3.88058 1.53189 0
M  V30 13157 H 1230.89 -3.16303 0.6444 0
M  V30 13158 H 1229.94 -2.4091 2.94392 0
M  V30 13159 H 1231.25 -3.32567 3.71754 0
M  V30 13160 H 1230.41 -5.44178 2.68244 0
M  V30 13161 H 1229.15 -4.53094 1.80435 0
M  V30 13162 H 1228.15 -3.78696 3.98584 0
M  V30 13163 H 1229.38 -4.73144 4.87146 0
M  V30 13164 H 1227.32 -5.86647 2.93566 0
M  V30 13165 H 1227.24 -5.94919 4.66484 0
M  V30 13166 H 1228.51 -6.79168 3.82559 0
M  V30 13167 N 1232.74 -1.33881 -0.831482 0
M  V30 13168 C 1233.67 -1.19089 -1.94661 0
M  V30 13169 C 1234.65 -0.0845706 -1.6238 0
M  V30 13170 O 1235.83 -0.248163 -1.86859 0
M  V30 13171 C 1232.96 -0.828223 -3.28418 0
M  V30 13172 C 1232 -1.94309 -3.79666 0
M  V30 13173 S 1232.84 -3.55524 -4.00454 0
M  V30 13174 C 1233.99 -3.21279 -5.3715 0
M  V30 13175 H 1234.23 -2.13484 -2.0691 0
M  V30 13176 H 1231.76 -1.18809 -0.986098 0
M  V30 13177 H 1233.72 -0.625759 -4.05702 0
M  V30 13178 H 1232.38 0.0972457 -3.13949 0
M  V30 13179 H 1231.57 -1.64288 -4.76472 0
M  V30 13180 H 1231.17 -2.1026 -3.093 0
M  V30 13181 H 1233.46 -2.72563 -6.20255 0
M  V30 13182 H 1234.41 -4.17193 -5.7215 0
M  V30 13183 H 1234.82 -2.57683 -5.02255 0
M  V30 13184 N 1234.21 1.05064 -1.1747 0
M  V30 13185 C 1235.44 1.81497 -0.987031 0
M  V30 13186 C 1235.85 1.83323 0.467921 0
M  V30 13187 O 1235.19 1.26006 1.33672 0
M  V30 13188 C 1235.26 3.28826 -1.45306 0
M  V30 13189 C 1234.92 3.50681 -2.93039 0
M  V30 13190 C 1235.92 3.42699 -3.90965 0
M  V30 13191 C 1233.6 3.77602 -3.31243 0
M  V30 13192 C 1235.6 3.61325 -5.25093 0
M  V30 13193 C 1233.28 3.95876 -4.65538 0
M  V30 13194 C 1234.28 3.87737 -5.62271 0
M  V30 13195 O 1233.97 4.055 -6.94136 0
M  V30 13196 H 1233.7 0.578734 -0.349347 0
M  V30 13197 H 1236.26 1.33373 -1.56208 0
M  V30 13198 H 1234.49 3.77872 -0.821581 0
M  V30 13199 H 1236.17 3.86788 -1.23085 0
M  V30 13200 H 1236.94 3.21877 -3.62795 0
M  V30 13201 H 1232.82 3.8304 -2.56517 0
M  V30 13202 H 1236.36 3.54888 -6.00583 0
M  V30 13203 H 1232.26 4.16191 -4.93412 0
M  V30 13204 H 1233.03 4.22718 -7.00894 0
M  V30 13205 N 1235.69 0.975146 1.23809 0
M  V30 13206 C 1236.94 0.636678 1.91388 0
M  V30 13207 C 1237.25 -0.832876 1.76982 0
M  V30 13208 O 1238.46 -1.28218 2.39316 0
M  V30 13209 C 1236.92 1.08813 3.43057 0
M  V30 13210 C 1236.52 2.58165 3.66135 0
M  V30 13211 C 1238.27 0.823154 4.16443 0
M  V30 13212 C 1236.17 2.97004 5.11412 0
M  V30 13213 H 1235.1 0.234424 0.716632 0
M  V30 13214 H 1237.76 1.18235 1.40331 0
M  V30 13215 H 1236.14 0.470709 3.93192 0
M  V30 13216 H 1237.31 3.25101 3.26567 0
M  V30 13217 H 1235.63 2.82353 3.06049 0
M  V30 13218 H 1238.22 1.08925 5.23488 0
M  V30 13219 H 1238.57 -0.240705 4.15604 0
M  V30 13220 H 1239.1 1.4019 3.72279 0
M  V30 13221 H 1235.84 4.02492 5.17378 0
M  V30 13222 H 1235.36 2.34759 5.51949 0
M  V30 13223 H 1237.04 2.8732 5.79704 0
M  V30 13224 N 1237.17 -1.38817 0.746158 0
M  V30 13225 C 1238.42 -1.99519 0.295839 0
M  V30 13226 C 1238.73 -1.59897 -1.12661 0
M  V30 13227 O 1239.94 -2.13514 -1.67702 0
M  V30 13228 C 1238.39 -3.56712 0.477984 0
M  V30 13229 C 1238 -4.0529 1.90904 0
M  V30 13230 C 1239.75 -4.24405 0.0900039 0
M  V30 13231 C 1237.65 -5.55097 2.04014 0
M  V30 13232 H 1236.58 -0.746389 0.106861 0
M  V30 13233 H 1239.23 -1.58676 0.921637 0
M  V30 13234 H 1237.62 -3.95406 -0.216884 0
M  V30 13235 H 1238.79 -3.77904 2.63677 0
M  V30 13236 H 1237.1 -3.50297 2.25125 0
M  V30 13237 H 1239.7 -5.3444 0.16682 0
M  V30 13238 H 1240.04 -4.05166 -0.956349 0
M  V30 13239 H 1240.58 -3.90924 0.736446 0
M  V30 13240 H 1237.32 -5.7923 3.06877 0
M  V30 13241 H 1236.84 -5.8425 1.35692 0
M  V30 13242 H 1238.52 -6.20682 1.82656 0
M  V30 13243 N 1238.65 -0.49465 -1.49636 0
M  V30 13244 C 1239.9 0.0539277 -2.01628 0
M  V30 13245 C 1240.21 1.38634 -1.37986 0
M  V30 13246 O 1241.42 2.02123 -1.81269 0
M  V30 13247 C 1239.87 0.146582 -3.59601 0
M  V30 13248 C 1239.48 -1.1788 -4.32213 0
M  V30 13249 C 1241.22 0.645862 -4.19558 0
M  V30 13250 C 1239.13 -1.04866 -5.82028 0
M  V30 13251 H 1238.06 0.0239278 -0.75362 0
M  V30 13252 H 1240.71 -0.633112 -1.72232 0
M  V30 13253 H 1239.09 0.897931 -3.85685 0
M  V30 13254 H 1240.27 -1.94295 -4.17835 0
M  V30 13255 H 1238.58 -1.61102 -3.83973 0
M  V30 13256 H 1241.18 0.76064 -5.29262 0
M  V30 13257 H 1241.52 1.64313 -3.82501 0
M  V30 13258 H 1242.06 -0.04877 -3.9777 0
M  V30 13259 H 1238.79 -2.02 -6.23599 0
M  V30 13260 H 1238.31 -0.325293 -5.98917 0
M  V30 13261 H 1239.99 -0.724799 -6.42927 0
M  V30 13262 N 1240.13 1.55939 -0.228214 0
M  V30 13263 C 1241.09 2.1932 0.665681 0
M  V30 13264 C 1242.09 1.15699 1.11671 0
M  V30 13265 O 1243.28 1.40893 1.02444 0
M  V30 13266 C 1240.41 2.82185 1.9127 0
M  V30 13267 H 1241.6 2.99687 0.112986 0
M  V30 13268 H 1239.16 1.56285 0.0213865 0
M  V30 13269 H 1239.89 2.05706 2.5071 0
M  V30 13270 H 1239.68 3.58073 1.5977 0
M  V30 13271 H 1241.17 3.30748 2.54942 0
M  V30 13272 N 1241.6 -0.0451101 1.57535 0
M  V30 13273 C 1242.55 -1.05066 2.05499 0
M  V30 13274 C 1243.52 -1.36884 0.940843 0
M  V30 13275 O 1244.71 -1.47497 1.21034 0
M  V30 13276 C 1241.85 -2.35139 2.52594 0
M  V30 13277 C 1240.96 -2.0962 3.77735 0
M  V30 13278 C 1240.09 -3.33447 4.13505 0
M  V30 13279 C 1239.13 -3.03411 5.31609 0
M  V30 13280 N 1238.27 -4.19644 5.62888 0
M  V30 13281 H 1243.11 -0.63469 2.91163 0
M  V30 13282 H 1240.65 -0.30179 1.43971 0
M  V30 13283 H 1242.61 -3.11118 2.7796 0
M  V30 13284 H 1241.24 -2.74489 1.69869 0
M  V30 13285 H 1240.29 -1.24211 3.59549 0
M  V30 13286 H 1241.6 -1.83452 4.63839 0
M  V30 13287 H 1240.75 -4.17805 4.39914 0
M  V30 13288 H 1239.49 -3.62715 3.2602 0
M  V30 13289 H 1238.5 -2.17453 5.04969 0
M  V30 13290 H 1239.72 -2.75438 6.20734 0
M  V30 13291 H 1237.67 -4.48893 4.78363 0
M  V30 13292 H 1237.59 -3.96843 6.43468 0
M  V30 13293 H 1238.85 -5.04921 5.93865 0
M  V30 13294 N 1243.08 -1.54377 -0.317073 0
M  V30 13295 C 1244.49 -1.64062 -0.891105 0
M  V30 13296 C 1244.84 -0.538863 -1.88655 0
M  V30 13297 O 1243.97 0.32718 -2.13912 0
M  V30 13298 C 1244.56 -2.97395 -1.62302 0
M  V30 13299 C 1243.12 -3.09253 -2.14568 0
M  V30 13300 C 1242.27 -2.59664 -0.973146 0
M  V30 13301 H 1245.22 -1.58418 -0.0944829 0
M  V30 13302 H 1245.24 -2.87918 -2.48764 0
M  V30 13303 H 1244.75 -3.77562 -0.898268 0
M  V30 13304 H 1242.86 -2.33774 -2.90139 0
M  V30 13305 H 1242.97 -4.15159 -2.39123 0
M  V30 13306 H 1241.33 -2.15719 -1.35416 0
M  V30 13307 H 1242.12 -3.42294 -0.262611 0
M  V30 13308 N 1244.56 0.579466 -1.4656 0
M  V30 13309 C 1245.47 1.71609 -1.59961 0
M  V30 13310 C 1246.49 1.67162 -0.483002 0
M  V30 13311 O 1247.66 1.87012 -0.747561 0
M  V30 13312 C 1244.73 3.08114 -1.58954 0
M  V30 13313 C 1243.79 3.238 -2.81872 0
M  V30 13314 C 1243.02 4.53794 -2.80904 0
M  V30 13315 O 1243.24 5.37884 -1.89835 0
M  V30 13316 O 1242.18 4.72796 -3.72488 0
M  V30 13317 H 1246 1.6325 -2.56092 0
M  V30 13318 H 1243.59 0.746891 -1.2939 0
M  V30 13319 H 1245.47 3.8939 -1.611 0
M  V30 13320 H 1244.15 3.16903 -0.65984 0
M  V30 13321 H 1243.05 2.42006 -2.85279 0
M  V30 13322 H 1244.39 3.19904 -3.74062 0
M  V30 13323 N 1246.04 1.3432 0.824371 0
M  V30 13324 C 1247.45 1.1397 1.11727 0
M  V30 13325 C 1247.65 -0.0597597 2.01411 0
M  V30 13326 O 1246.71 -0.735717 2.41544 0
M  V30 13327 C 1248.02 2.43423 1.76538 0
M  V30 13328 C 1249.57 2.49466 1.89039 0
M  V30 13329 C 1250.05 3.78917 2.57266 0
M  V30 13330 N 1251.54 3.8007 2.64767 0
M  V30 13331 C 1252.27 4.76953 3.18282 0
M  V30 13332 N 1251.77 5.84217 3.72373 0
M  V30 13333 N 1253.56 4.6441 3.1667 0
M  V30 13334 H 1245.71 2.11175 0.227802 0
M  V30 13335 H 1247.98 0.933774 0.163615 0
M  V30 13336 H 1247.68 3.31278 1.18102 0
M  V30 13337 H 1247.56 2.56655 2.7642 0
M  V30 13338 H 1249.94 1.62052 2.46623 0
M  V30 13339 H 1250.02 2.40163 0.880635 0
M  V30 13340 H 1249.67 4.6672 2.00336 0
M  V30 13341 H 1249.6 3.85502 3.58742 0
M  V30 13342 H 1252.09 3.02556 2.26425 0
M  V30 13343 H 1252.4 6.54159 4.11455 0
M  V30 13344 H 1250.75 5.87933 3.70621 0
M  V30 13345 H 1253.94 3.7976 2.73678 0
M  V30 13346 H 1254.11 5.40081 3.58073 0
M  V30 13347 N 1247.52 -1.0444 1.18026 0
M  V30 13348 C 1248.46 -2.14474 0.900202 0
M  V30 13349 C 1249.46 -1.68836 -0.138086 0
M  V30 13350 O 1250.66 -1.79997 0.00971011 0
M  V30 13351 H 1247.04 -0.700457 0.273613 0
M  V30 13352 H 1249.01 -2.35295 1.83518 0
M  V30 13353 C 1247.76 -3.44926 0.438305 0
M  V30 13354 H 1247.08 -3.8045 1.22874 0
M  V30 13355 H 1248.52 -4.23066 0.281306 0
M  V30 13356 C 1246.98 -3.26124 -0.845268 0
M  V30 13357 O 1247.51 -3.53368 -1.91034 0
M  V30 13358 N 1245.72 -2.79474 -0.7964 0
M  V30 13359 H 1245.26 -2.57503 0.0705595 0
M  V30 13360 H 1245.22 -2.67274 -1.65566 0
M  V30 13361 N 1248.99 -0.981699 -1.2329 0
M  V30 13362 C 1250.24 -0.652266 -1.92024 0
M  V30 13363 C 1250.57 0.812297 -1.76396 0
M  V30 13364 O 1249.85 1.5861 -1.12575 0
M  V30 13365 C 1250.13 -1.04506 -3.44602 0
M  V30 13366 C 1249.98 -2.56735 -3.69333 0
M  V30 13367 C 1251.3 -0.589937 -4.36128 0
M  V30 13368 H 1248.42 -0.238437 -0.697364 0
M  V30 13369 H 1251.06 -1.22322 -1.45387 0
M  V30 13370 H 1249.21 -0.559242 -3.84454 0
M  V30 13371 H 1250.89 -3.12901 -3.38955 0
M  V30 13372 H 1249.13 -2.9931 -3.14 0
M  V30 13373 H 1249.8 -2.79269 -4.76144 0
M  V30 13374 H 1252.28 -1.00706 -4.0373 0
M  V30 13375 H 1251.15 -0.893192 -5.41584 0
M  V30 13376 H 1251.41 0.509707 -4.39152 0
M  V30 13377 N 1250.47 1.3842 -0.753509 0
M  V30 13378 C 1251.89 1.53668 -0.431095 0
M  V30 13379 C 1252.09 1.71626 1.05578 0
M  V30 13380 O 1251.14 1.72723 1.84182 0
M  V30 13381 C 1252.46 2.74381 -1.23027 0
M  V30 13382 C 1254.01 2.8823 -1.22034 0
M  V30 13383 C 1254.48 4.11904 -2.00248 0
M  V30 13384 N 1255.97 4.18981 -1.97508 0
M  V30 13385 C 1256.71 5.13667 -2.5482 0
M  V30 13386 N 1256.2 6.14027 -3.20846 0
M  V30 13387 N 1258 5.06017 -2.44751 0
M  V30 13388 H 1250.15 1.25012 -1.71714 0
M  V30 13389 H 1252.41 0.607296 -0.727939 0
M  V30 13390 H 1252.12 2.67515 -2.28317 0
M  V30 13391 H 1251.99 3.67565 -0.847098 0
M  V30 13392 H 1254.38 2.94578 -0.175502 0
M  V30 13393 H 1254.46 1.96057 -1.64303 0
M  V30 13394 H 1254.1 4.06318 -3.04742 0
M  V30 13395 H 1254.03 5.03157 -1.55373 0
M  V30 13396 H 1256.52 3.47104 -1.49423 0
M  V30 13397 H 1256.84 6.82771 -3.61999 0
M  V30 13398 H 1255.18 6.1436 -3.24941 0
M  V30 13399 H 1258.37 4.26552 -1.92797 0
M  V30 13400 H 1258.54 5.7963 -2.89713 0
M  V30 13401 N 1251.95 0.502579 1.49372 0
M  V30 13402 C 1253.18 -0.0403087 2.07361 0
M  V30 13403 C 1253.6 -1.29918 1.36026 0
M  V30 13404 O 1252.96 -1.76428 0.417488 0
M  V30 13405 C 1253.01 -0.275362 3.59547 0
M  V30 13406 O 1252.11 -1.34975 3.89686 0
M  V30 13407 H 1251.45 0.0269268 0.663454 0
M  V30 13408 H 1253.98 0.702652 1.92156 0
M  V30 13409 H 1253.99 -0.506392 4.04845 0
M  V30 13410 H 1252.67 0.644382 4.10878 0
M  V30 13411 H 1251.24 -1.10355 3.56197 0
M  V30 13412 N 1253.43 -1.55816 0.23648 0
M  V30 13413 C 1254.39 -2.1967 -0.654041 0
M  V30 13414 C 1255.39 -1.1629 -1.11056 0
M  V30 13415 O 1256.58 -1.41435 -1.01695 0
M  V30 13416 C 1253.71 -2.83196 -1.89771 0
M  V30 13417 H 1254.91 -2.99743 -0.0970911 0
M  V30 13418 H 1252.46 -1.56295 -0.013098 0
M  V30 13419 H 1253.19 -2.07033 -2.49616 0
M  V30 13420 H 1252.98 -3.58915 -1.57868 0
M  V30 13421 H 1254.47 -3.32095 -2.53184 0
M  V30 13422 N 1254.91 0.036755 -1.57557 0
M  V30 13423 C 1256.15 0.729106 -1.88919 0
M  V30 13424 C 1256.48 1.75769 -0.832801 0
M  V30 13425 O 1255.74 1.94985 0.167173 0
M  V30 13426 C 1256.04 1.44206 -3.27016 0
M  V30 13427 C 1255.7 0.550184 -4.47531 0
M  V30 13428 C 1254.36 0.304511 -4.80236 0
M  V30 13429 C 1256.72 -0.0660664 -5.21158 0
M  V30 13430 C 1254.04 -0.566316 -5.8396 0
M  V30 13431 C 1256.4 -0.92455 -6.25807 0
M  V30 13432 C 1255.06 -1.17976 -6.56992 0
M  V30 13433 H 1254.33 0.266799 -0.691303 0
M  V30 13434 H 1256.98 -0.0108698 -1.91497 0
M  V30 13435 H 1255.28 2.25516 -3.2039 0
M  V30 13436 H 1256.98 1.98317 -3.48527 0
M  V30 13437 H 1253.57 0.751814 -4.21955 0
M  V30 13438 H 1257.75 0.110784 -4.96176 0
M  V30 13439 H 1253.01 -0.772428 -6.06501 0
M  V30 13440 H 1257.18 -1.40861 -6.82005 0
M  V30 13441 H 1254.81 -1.85627 -7.37188 0
M  V30 13442 N 1256.39 1.54543 0.308881 0
M  V30 13443 C 1257.61 1.77431 1.06422 0
M  V30 13444 C 1258.03 0.529972 1.81209 0
M  V30 13445 O 1257.39 -0.499912 1.7552 0
M  V30 13446 C 1257.44 2.9769 2.05092 0
M  V30 13447 O 1257.16 4.17315 1.33341 0
M  V30 13448 C 1258.66 3.32905 2.92727 0
M  V30 13449 H 1255.88 0.591961 0.315948 0
M  V30 13450 H 1258.42 2.01473 0.350547 0
M  V30 13451 H 1256.58 2.7588 2.71973 0
M  V30 13452 H 1256.99 4.85061 1.99539 0
M  V30 13453 H 1258.47 4.20314 3.57827 0
M  V30 13454 H 1258.94 2.50713 3.6061 0
M  V30 13455 H 1259.55 3.56847 2.31388 0
M  V30 13456 N 1257.86 -0.571685 1.46866 0
M  V30 13457 C 1259.09 -1.35524 1.56336 0
M  V30 13458 C 1259.51 -1.87647 0.208359 0
M  V30 13459 O 1258.86 -1.64219 -0.796136 0
M  V30 13460 C 1258.91 -2.53518 2.57703 0
M  V30 13461 O 1258.64 -2.03552 3.87941 0
M  V30 13462 C 1260.14 -3.45925 2.77219 0
M  V30 13463 H 1257.36 -0.41363 0.528348 0
M  V30 13464 H 1259.9 -0.693943 1.92366 0
M  V30 13465 H 1258.06 -3.15615 2.24647 0
M  V30 13466 H 1258.47 -2.80476 4.43208 0
M  V30 13467 H 1259.94 -4.2517 3.52043 0
M  V30 13468 H 1260.42 -3.98559 1.8452 0
M  V30 13469 H 1261.03 -2.89655 3.11416 0
M  V30 13470 N 1259.34 -1.34755 -0.817236 0
M  V30 13471 C 1260.57 -1.30676 -1.61054 0
M  V30 13472 C 1260.99 0.115343 -1.87746 0
M  V30 13473 O 1260.35 1.07887 -1.45705 0
M  V30 13474 C 1260.4 -2.10881 -2.92509 0
M  V30 13475 O 1259.5 -1.48223 -3.84842 0
M  V30 13476 H 1258.84 -0.448531 -0.489608 0
M  V30 13477 H 1261.37 -1.77642 -1.01512 0
M  V30 13478 H 1261.38 -2.22446 -3.42026 0
M  V30 13479 H 1260.06 -3.14274 -2.72406 0
M  V30 13480 H 1258.63 -1.45434 -3.4337 0
M  V30 13481 N 1260.82 1.03812 -1.18578 0
M  V30 13482 C 1262.1 1.74062 -0.892288 0
M  V30 13483 C 1262.48 2.02267 0.604256 0
M  V30 13484 O 1261.82 1.66988 1.55972 0
M  V30 13485 C 1262.03 3.024 -1.74228 0
M  V30 13486 C 1263.38 3.76088 -1.97087 0
M  V30 13487 O 1264.41 3.12305 -1.71302 0
M  V30 13488 O 1263.27 4.90732 -2.40509 0
M  V30 13489 H 1260.36 0.757567 -0.331695 0
M  V30 13490 H 1262.91 1.09855 -1.29345 0
M  V30 13491 H 1261.68 2.77713 -2.75665 0
M  V30 13492 H 1261.3 3.74346 -1.3398 0
M  V30 13493 N 1262.3 0.988223 1.22768 0
M  V30 13494 C 1263.54 0.662441 1.91676 0
M  V30 13495 C 1263.88 -0.802931 1.76824 0
M  V30 13496 O 1263.15 -1.58011 1.13415 0
M  V30 13497 C 1263.43 1.06332 3.44043 0
M  V30 13498 C 1263.29 2.5869 3.67967 0
M  V30 13499 C 1264.61 0.613058 4.35809 0
M  V30 13500 H 1261.73 0.242132 0.69609 0
M  V30 13501 H 1264.37 1.23091 1.44736 0
M  V30 13502 H 1262.52 0.579623 3.84152 0
M  V30 13503 H 1264.19 3.14694 3.37291 0
M  V30 13504 H 1262.43 3.00971 3.12408 0
M  V30 13505 H 1263.1 2.8179 4.74656 0
M  V30 13506 H 1265.58 1.02846 4.0319 0
M  V30 13507 H 1264.46 0.921901 5.41103 0
M  V30 13508 H 1264.72 -0.48641 4.39416 0
M  V30 13509 N 1263.78 -1.38018 0.760839 0
M  V30 13510 C 1265.02 -2.00248 0.320716 0
M  V30 13511 C 1265.35 -1.60259 -1.09684 0
M  V30 13512 O 1264.63 -0.843567 -1.75255 0
M  V30 13513 C 1264.91 -3.57254 0.451849 0
M  V30 13514 C 1264.77 -4.07185 1.91103 0
M  V30 13515 C 1266.08 -4.39843 -0.150439 0
M  V30 13516 H 1263.2 -0.727491 0.118007 0
M  V30 13517 H 1265.85 -1.63855 0.961842 0
M  V30 13518 H 1264 -3.88386 -0.0939672 0
M  V30 13519 H 1265.67 -3.86665 2.51571 0
M  V30 13520 H 1263.91 -3.59782 2.42362 0
M  V30 13521 H 1264.58 -5.16262 1.9539 0
M  V30 13522 H 1267.06 -4.14905 0.315145 0
M  V30 13523 H 1265.93 -5.48893 -0.0284853 0
M  V30 13524 H 1266.19 -4.24367 -1.23956 0
M  V30 13525 N 1265.25 -0.510493 -1.49103 0
M  V30 13526 C 1266.67 -0.167061 -1.58723 0
M  V30 13527 C 1266.87 1.32886 -1.51471 0
M  V30 13528 O 1265.93 2.10559 -1.39359 0
M  V30 13529 C 1267.24 -0.752293 -2.91137 0
M  V30 13530 C 1268.79 -0.719258 -3.04624 0
M  V30 13531 C 1269.26 -1.28272 -4.39671 0
M  V30 13532 N 1270.75 -1.24383 -4.46187 0
M  V30 13533 C 1271.49 -1.6499 -5.4915 0
M  V30 13534 N 1270.98 -2.13235 -6.59168 0
M  V30 13535 N 1272.78 -1.56348 -5.39918 0
M  V30 13536 H 1264.93 -1.48296 -1.5206 0
M  V30 13537 H 1267.19 -0.615683 -0.72086 0
M  V30 13538 H 1266.9 -1.80178 -3.02041 0
M  V30 13539 H 1266.77 -0.218152 -3.76569 0
M  V30 13540 H 1269.16 0.321413 -2.93344 0
M  V30 13541 H 1269.24 -1.29065 -2.20852 0
M  V30 13542 H 1268.88 -2.32222 -4.51703 0
M  V30 13543 H 1268.81 -0.687179 -5.22097 0
M  V30 13544 H 1271.3 -0.890446 -3.67259 0
M  V30 13545 H 1271.62 -2.42266 -7.33844 0
M  V30 13546 H 1269.96 -2.17216 -6.60183 0
M  V30 13547 H 1273.15 -1.18469 -4.52861 0
M  V30 13548 H 1273.33 -1.88317 -6.20033 0
M  V30 13549 N 1266.73 1.55688 -0.24474 0
M  V30 13550 C 1267.66 2.17317 0.696311 0
M  V30 13551 C 1268.64 1.12456 1.17441 0
M  V30 13552 O 1269.83 1.40832 1.25294 0
M  V30 13553 C 1266.95 2.77211 1.94606 0
M  V30 13554 C 1266 3.95107 1.60602 0
M  V30 13555 S 1266.83 5.30765 0.710525 0
M  V30 13556 C 1267.99 5.94111 1.96933 0
M  V30 13557 H 1268.22 2.96799 0.172566 0
M  V30 13558 H 1265.75 1.54372 -0.0292155 0
M  V30 13559 H 1267.71 3.12355 2.66354 0
M  V30 13560 H 1266.37 1.9768 2.44093 0
M  V30 13561 H 1265.57 4.35598 2.53517 0
M  V30 13562 H 1265.17 3.61229 0.968986 0
M  V30 13563 H 1267.46 6.11496 2.91682 0
M  V30 13564 H 1268.4 6.89602 1.60794 0
M  V30 13565 H 1268.81 5.23161 2.12043 0
M  V30 13566 N 1268.21 -0.0283989 1.57574 0
M  V30 13567 C 1269.16 -1.03669 2.03069 0
M  V30 13568 C 1270.14 -1.31994 0.920129 0
M  V30 13569 O 1271.34 -1.31568 1.18402 0
M  V30 13570 C 1268.46 -2.3376 2.51418 0
M  V30 13571 C 1267.55 -2.08522 3.69296 0
M  V30 13572 N 1267.94 -1.53345 4.81995 0
M  V30 13573 C 1266.24 -2.38803 3.76682 0
M  V30 13574 C 1266.94 -1.43926 5.63613 0
M  V30 13575 N 1265.92 -1.91507 5.0875 0
M  V30 13576 H 1269.72 -0.604097 2.87625 0
M  V30 13577 H 1267.23 -0.234689 1.60695 0
M  V30 13578 H 1269.23 -3.06804 2.82271 0
M  V30 13579 H 1267.89 -2.77698 1.68268 0
M  V30 13580 H 1268.9 -1.21607 5.0342 0
M  V30 13581 H 1265.58 -2.8581 3.04333 0
M  V30 13582 H 1266.97 -1.0175 6.64151 0
M  V30 13583 N 1269.69 -1.54705 -0.300681 0
M  V30 13584 C 1270.93 -1.74259 -1.03738 0
M  V30 13585 C 1271.27 -0.52703 -1.86912 0
M  V30 13586 O 1270.54 0.475862 -1.88589 0
M  V30 13587 C 1270.82 -3.03175 -1.94311 0
M  V30 13588 C 1270.68 -4.35031 -1.14315 0
M  V30 13589 C 1272 -3.27962 -2.93478 0
M  V30 13590 H 1269.12 -0.634031 -0.37573 0
M  V30 13591 H 1271.76 -1.87421 -0.312012 0
M  V30 13592 H 1269.91 -2.92086 -2.5616 0
M  V30 13593 H 1271.58 -4.5804 -0.547489 0
M  V30 13594 H 1269.82 -4.31503 -0.44587 0
M  V30 13595 H 1270.49 -5.21502 -1.80941 0
M  V30 13596 H 1272.97 -3.38663 -2.41757 0
M  V30 13597 H 1271.85 -4.19481 -3.54016 0
M  V30 13598 H 1272.11 -2.46273 -3.67154 0
M  V30 13599 N 1271.17 0.563888 -1.47167 0
M  V30 13600 C 1272.41 1.31875 -1.53145 0
M  V30 13601 C 1272.74 1.94047 -0.192518 0
M  V30 13602 O 1272.01 1.79577 0.782872 0
M  V30 13603 H 1270.59 0.489694 -0.5641 0
M  V30 13604 H 1273.25 0.658976 -1.83422 0
M  V30 13605 H 1272.34 2.11574 -2.2944 0
M  V30 13606 N 1272.64 1.35187 0.810078 0
M  V30 13607 C 1273.92 1.18832 1.55365 0
M  V30 13608 C 1274.3 -0.233956 2.098 0
M  V30 13609 O 1273.65 -1.23701 1.92121 0
M  V30 13610 C 1273.86 2.25351 2.66492 0
M  V30 13611 C 1275.21 2.60981 3.34924 0
M  V30 13612 O 1276.23 2.24238 2.7676 0
M  V30 13613 O 1275.09 3.24147 4.3999 0
M  V30 13614 H 1272.18 0.461446 0.686292 0
M  V30 13615 H 1274.73 1.46858 0.850341 0
M  V30 13616 H 1273.5 3.20762 2.24115 0
M  V30 13617 H 1273.13 1.98575 3.44462 0
M  V30 13618 N 1274.12 -1.03182 1.19127 0
M  V30 13619 C 1275.37 -1.76184 0.990134 0
M  V30 13620 C 1275.69 -1.88986 -0.480546 0
M  V30 13621 O 1274.96 -1.4213 -1.34817 0
M  V30 13622 H 1273.54 -0.652668 0.363364 0
M  V30 13623 H 1276.2 -1.24481 1.49968 0
M  V30 13624 H 1275.3 -2.77119 1.43568 0
M  V30 13625 N 1275.6 -0.99472 -1.22242 0
M  V30 13626 C 1276.55 -0.546504 -2.24236 0
M  V30 13627 C 1277.52 0.422101 -1.60647 0
M  V30 13628 O 1278.7 0.326452 -1.87987 0
M  V30 13629 C 1275.84 0.130909 -3.44852 0
M  V30 13630 C 1274.96 -0.879653 -4.22949 0
M  V30 13631 C 1274.09 -0.175569 -5.3091 0
M  V30 13632 C 1273.13 -1.17438 -6.00729 0
M  V30 13633 N 1272.27 -0.498474 -7.00328 0
M  V30 13634 H 1277.11 -1.42099 -2.61939 0
M  V30 13635 H 1274.64 -0.711755 -1.28734 0
M  V30 13636 H 1276.6 0.540596 -4.13683 0
M  V30 13637 H 1275.23 0.96917 -3.07907 0
M  V30 13638 H 1274.28 -1.40765 -3.53397 0
M  V30 13639 H 1275.6 -1.64017 -4.71062 0
M  V30 13640 H 1274.75 0.290756 -6.06003 0
M  V30 13641 H 1273.49 0.617438 -4.83776 0
M  V30 13642 H 1272.49 -1.65131 -5.24416 0
M  V30 13643 H 1273.72 -1.96829 -6.4995 0
M  V30 13644 H 1271.66 0.275063 -6.55423 0
M  V30 13645 H 1271.58 -1.19741 -7.46457 0
M  V30 13646 H 1272.85 -0.0550119 -7.79481 0
M  V30 13647 N 1277.08 1.37613 -0.768148 0
M  V30 13648 C 1278.01 2.3291 -0.165911 0
M  V30 13649 C 1278.99 1.556 0.687205 0
M  V30 13650 O 1280.17 1.83854 0.625407 0
M  V30 13651 C 1277.3 3.39822 0.7168 0
M  V30 13652 C 1276.26 4.27986 -0.0347264 0
M  V30 13653 C 1275.58 5.2588 0.967192 0
M  V30 13654 C 1276.88 5.08052 -1.21164 0
M  V30 13655 H 1278.58 2.83524 -0.962006 0
M  V30 13656 H 1276.12 1.36318 -0.464051 0
M  V30 13657 H 1278.08 4.05464 1.14789 0
M  V30 13658 H 1276.8 2.87725 1.54538 0
M  V30 13659 H 1275.46 3.6387 -0.446557 0
M  V30 13660 H 1275.11 4.70064 1.79022 0
M  V30 13661 H 1274.81 5.85726 0.468913 0
M  V30 13662 H 1276.33 5.94397 1.3973 0
M  V30 13663 H 1277.75 5.66853 -0.857373 0
M  V30 13664 H 1276.14 5.77206 -1.64176 0
M  V30 13665 H 1277.21 4.40936 -2.0175 0
M  V30 13666 N 1278.56 0.518393 1.4883 0
M  V30 13667 C 1279.97 0.0749773 1.86549 0
M  V30 13668 C 1280.32 -1.34429 1.4291 0
M  V30 13669 O 1279.44 -2.00481 0.814648 0
M  V30 13670 C 1280.04 0.129289 3.38553 0
M  V30 13671 C 1278.6 -0.258871 3.75509 0
M  V30 13672 C 1277.74 0.494185 2.72861 0
M  V30 13673 H 1280.7 0.730266 1.409 0
M  V30 13674 H 1280.72 -0.661844 3.747 0
M  V30 13675 H 1280.23 1.16237 3.70285 0
M  V30 13676 H 1278.33 -1.29453 3.49389 0
M  V30 13677 H 1278.44 0.0726769 4.79045 0
M  V30 13678 H 1276.81 -0.0581428 2.54634 0
M  V30 13679 H 1277.59 1.52767 3.07436 0
M  V30 13680 N 1280.03 -1.55556 0.252993 0
M  V30 13681 C 1281.27 -2.00995 -0.371513 0
M  V30 13682 C 1281.64 -1.13739 -1.54685 0
M  V30 13683 O 1282.84 -1.4866 -2.2395 0
M  V30 13684 C 1281.11 -3.49112 -0.765205 0
M  V30 13685 S 1282.67 -4.16556 -1.37938 0
M  V30 13686 H 1279.49 -0.70137 -0.116625 0
M  V30 13687 H 1282.09 -1.91973 0.369654 0
M  V30 13688 H 1280.79 -4.1028 0.0994153 0
M  V30 13689 H 1280.32 -3.62073 -1.5384 0
M  V30 13690 H 1282.34 -4.18346 -2.66835 0
M  V30 13691 N 1281.51 0.0200419 -1.57587 0
M  V30 13692 C 1282.93 0.375834 -1.55112 0
M  V30 13693 C 1283.13 1.76047 -0.980297 0
M  V30 13694 O 1282.18 2.45138 -0.605297 0
M  V30 13695 C 1283.5 0.269418 -2.99491 0
M  V30 13696 C 1285.05 0.345838 -3.11084 0
M  V30 13697 C 1285.52 0.268771 -4.57211 0
M  V30 13698 N 1287.01 0.32729 -4.62042 0
M  V30 13699 C 1287.75 0.290688 -5.72663 0
M  V30 13700 N 1287.24 0.205851 -6.92494 0
M  V30 13701 N 1289.04 0.341082 -5.61064 0
M  V30 13702 H 1281.19 -0.885979 -1.93039 0
M  V30 13703 H 1283.45 -0.337753 -0.885792 0
M  V30 13704 H 1283.16 -0.682452 -3.45015 0
M  V30 13705 H 1283.03 1.0595 -3.62014 0
M  V30 13706 H 1285.42 1.28814 -2.65501 0
M  V30 13707 H 1285.5 -0.47376 -2.51375 0
M  V30 13708 H 1285.14 -0.669906 -5.03463 0
M  V30 13709 H 1285.07 1.10659 -5.14842 0
M  V30 13710 H 1287.56 0.395004 -3.7583 0
M  V30 13711 H 1287.88 0.18327 -7.72583 0
M  V30 13712 H 1286.22 0.171768 -6.94788 0
M  V30 13713 H 1289.41 0.405415 -4.66341 0
M  V30 13714 H 1289.58 0.309091 -6.47262 0
M  V30 13715 N 1282.99 1.54862 0.292472 0
M  V30 13716 C 1284.22 1.78877 1.04966 0
M  V30 13717 C 1284.64 0.550724 1.79857 0
M  V30 13718 O 1284 -0.499054 1.74296 0
M  V30 13719 C 1284.05 3.00106 1.99922 0
M  V30 13720 O 1283.15 2.73827 3.0837 0
M  V30 13721 H 1282.49 0.591802 0.301108 0
M  V30 13722 H 1285.02 2.01965 0.3273 0
M  V30 13723 H 1285.03 3.28309 2.42233 0
M  V30 13724 H 1283.71 3.89872 1.44821 0
M  V30 13725 H 1282.28 2.56665 2.70513 0
M  V30 13726 N 1284.47 -0.556076 1.47464 0
M  V30 13727 C 1285.42 -1.68406 1.60444 0
M  V30 13728 C 1286.41 -1.627 0.471713 0
M  V30 13729 O 1287.62 -1.67871 0.649551 0
M  V30 13730 H 1283.99 -0.557255 0.504946 0
M  V30 13731 H 1285.96 -1.54595 2.55231 0
M  V30 13732 C 1284.71 -3.06756 1.63695 0
M  V30 13733 H 1284.03 -3.11829 2.50206 0
M  V30 13734 H 1285.47 -3.85368 1.76827 0
M  V30 13735 C 1283.93 -3.34857 0.370485 0
M  V30 13736 O 1284.46 -3.98216 -0.527942 0
M  V30 13737 N 1282.67 -2.89521 0.250163 0
M  V30 13738 H 1282.22 -2.3814 0.982204 0
M  V30 13739 H 1282.17 -3.08694 -0.596268 0
M  V30 13740 N 1285.95 -1.35615 -0.802897 0
M  V30 13741 C 1287.18 -1.32217 -1.59142 0
M  V30 13742 C 1287.59 0.0995496 -1.88537 0
M  V30 13743 O 1286.95 1.05258 -1.49087 0
M  V30 13744 C 1287 -2.13048 -2.92049 0
M  V30 13745 O 1286.72 -3.49677 -2.63927 0
M  V30 13746 C 1288.22 -2.17278 -3.864 0
M  V30 13747 H 1285.44 -0.454054 -0.49404 0
M  V30 13748 H 1287.98 -1.78521 -0.997516 0
M  V30 13749 H 1286.14 -1.70334 -3.47944 0
M  V30 13750 H 1286.55 -3.917 -3.48814 0
M  V30 13751 H 1288.03 -2.7822 -4.76758 0
M  V30 13752 H 1288.5 -1.17253 -4.23259 0
M  V30 13753 H 1289.11 -2.6017 -3.3644 0
M  V30 13754 N 1287.43 1.02549 -1.19673 0
M  V30 13755 C 1288.67 1.76004 -1.00144 0
M  V30 13756 C 1289 1.888 0.467423 0
M  V30 13757 O 1288.26 1.404 1.36331 0
M  V30 13758 C 1288.55 3.18597 -1.61959 0
M  V30 13759 C 1288.22 3.258 -3.11713 0
M  V30 13760 C 1286.88 3.27473 -3.52583 0
M  V30 13761 C 1289.23 3.24675 -4.0772 0
M  V30 13762 C 1286.56 3.25681 -4.88005 0
M  V30 13763 C 1288.91 3.24424 -5.43076 0
M  V30 13764 C 1287.58 3.24396 -5.83372 0
M  V30 13765 H 1286.85 0.644044 -0.366453 0
M  V30 13766 H 1289.5 1.20338 -1.48966 0
M  V30 13767 H 1287.8 3.77364 -1.05375 0
M  V30 13768 H 1289.5 3.74109 -1.44374 0
M  V30 13769 H 1286.09 3.25228 -2.7915 0
M  V30 13770 H 1290.27 3.2256 -3.77185 0
M  V30 13771 H 1285.53 3.23986 -5.18501 0
M  V30 13772 H 1289.7 3.22504 -6.17223 0
M  V30 13773 H 1287.33 3.22762 -6.8828 0
M  V30 13774 N 1288.9 1.00119 1.21713 0
M  V30 13775 C 1289.83 0.578504 2.2622 0
M  V30 13776 C 1290.81 -0.398777 1.6536 0
M  V30 13777 O 1292 -0.287596 1.92059 0
M  V30 13778 C 1289.13 -0.0994508 3.47158 0
M  V30 13779 C 1288.08 0.79722 4.2051 0
M  V30 13780 C 1287.41 -0.0141125 5.34698 0
M  V30 13781 C 1288.71 2.09802 4.7831 0
M  V30 13782 H 1290.4 1.45208 2.6183 0
M  V30 13783 H 1287.95 0.699656 1.2586 0
M  V30 13784 H 1289.9 -0.406605 4.19434 0
M  V30 13785 H 1288.63 -1.00763 3.10667 0
M  V30 13786 H 1287.29 1.08814 3.50079 0
M  V30 13787 H 1286.93 -0.923468 4.9445 0
M  V30 13788 H 1286.63 0.582883 5.84702 0
M  V30 13789 H 1288.16 -0.31517 6.09786 0
M  V30 13790 H 1289.57 1.85427 5.42485 0
M  V30 13791 H 1287.97 2.64455 5.38687 0
M  V30 13792 H 1289.04 2.77132 3.97902 0
M  V30 13793 N 1290.38 -1.37203 0.775435 0
M  V30 13794 C 1291.33 -2.32102 0.152051 0
M  V30 13795 C 1292.32 -1.55117 -0.680806 0
M  V30 13796 O 1293.53 -1.70486 -0.577455 0
M  V30 13797 H 1289.9 -0.751386 0.0303853 0
M  V30 13798 H 1291.88 -2.82259 0.968121 0
M  V30 13799 C 1290.62 -3.40378 -0.709788 0
M  V30 13800 H 1289.95 -3.99723 -0.0782879 0
M  V30 13801 H 1291.39 -4.09134 -1.11288 0
M  V30 13802 C 1289.85 -2.80769 -1.862 0
M  V30 13803 O 1290.38 -2.71813 -2.95771 0
M  V30 13804 N 1288.58 -2.38259 -1.66376 0
M  V30 13805 H 1288.13 -2.45743 -0.772531 0
M  V30 13806 H 1288.09 -1.98721 -2.43634 0
M  V30 13807 N 1291.86 -0.526279 -1.48553 0
M  V30 13808 C 1293.11 0.0111473 -2.01697 0
M  V30 13809 C 1293.42 1.35675 -1.40895 0
M  V30 13810 O 1294.63 1.98233 -1.85515 0
M  V30 13811 C 1293.08 0.0702721 -3.59831 0
M  V30 13812 C 1292.69 -1.27022 -4.29616 0
M  V30 13813 C 1294.44 0.556722 -4.20834 0
M  V30 13814 C 1292.34 -1.17188 -5.79673 0
M  V30 13815 H 1291.27 0.00793697 -0.753958 0
M  V30 13816 H 1293.92 -0.669503 -1.70851 0
M  V30 13817 H 1292.31 0.81592 -3.87503 0
M  V30 13818 H 1293.48 -2.03114 -4.1362 0
M  V30 13819 H 1291.79 -1.69211 -3.80469 0
M  V30 13820 H 1294.39 0.648205 -5.30756 0
M  V30 13821 H 1294.73 1.56163 -3.859 0
M  V30 13822 H 1295.27 -0.133132 -3.97577 0
M  V30 13823 H 1292.01 -2.15182 -6.19174 0
M  V30 13824 H 1291.53 -0.452259 -5.98093 0
M  V30 13825 H 1293.21 -0.861011 -6.41245 0
M  V30 13826 N 1293.34 1.5542 -0.261239 0
M  V30 13827 C 1294.58 1.99284 0.359487 0
M  V30 13828 C 1294.91 1.14954 1.56894 0
M  V30 13829 O 1294.17 0.203796 1.94636 0
M  V30 13830 C 1294.47 3.48354 0.799021 0
M  V30 13831 C 1294.13 4.49872 -0.30426 0
M  V30 13832 C 1292.79 4.77353 -0.607237 0
M  V30 13833 C 1295.15 5.10547 -1.04838 0
M  V30 13834 C 1292.47 5.62781 -1.65816 0
M  V30 13835 C 1294.83 5.97115 -2.08893 0
M  V30 13836 C 1293.49 6.22923 -2.3984 0
M  V30 13837 H 1292.76 0.72923 0.131546 0
M  V30 13838 H 1295.41 1.87851 -0.372058 0
M  V30 13839 H 1293.71 3.57192 1.61001 0
M  V30 13840 H 1295.41 3.7969 1.28981 0
M  V30 13841 H 1292 4.28561 -0.0579863 0
M  V30 13842 H 1296.18 4.89352 -0.827566 0
M  V30 13843 H 1291.44 5.81026 -1.90311 0
M  V30 13844 H 1295.61 6.43168 -2.67035 0
M  V30 13845 H 1293.24 6.88912 -3.2141 0
M  V30 13846 N 1294.82 -0.0116844 1.57596 0
M  V30 13847 C 1296.23 -0.367602 1.55309 0
M  V30 13848 C 1296.43 -1.75524 0.98962 0
M  V30 13849 O 1295.49 -2.44813 0.618289 0
M  V30 13850 C 1296.8 -0.253532 2.99629 0
M  V30 13851 C 1298.35 -0.329335 3.11263 0
M  V30 13852 C 1298.82 -0.24452 4.57347 0
M  V30 13853 N 1300.31 -0.302782 4.62209 0
M  V30 13854 C 1301.05 -0.260315 5.72809 0
M  V30 13855 N 1300.55 -0.169124 6.92594 0
M  V30 13856 N 1302.34 -0.311323 5.61237 0
M  V30 13857 H 1294.49 0.896204 1.92567 0
M  V30 13858 H 1296.75 0.342445 0.883988 0
M  V30 13859 H 1296.46 0.70074 3.44648 0
M  V30 13860 H 1296.33 -1.04029 3.62571 0
M  V30 13861 H 1298.72 -1.27405 2.66181 0
M  V30 13862 H 1298.8 0.487084 2.5112 0
M  V30 13863 H 1298.44 0.696597 5.031 0
M  V30 13864 H 1298.37 -1.07927 5.15421 0
M  V30 13865 H 1300.87 -0.375067 3.76034 0
M  V30 13866 H 1301.18 -0.142296 7.72669 0
M  V30 13867 H 1299.52 -0.134919 6.94869 0
M  V30 13868 H 1302.71 -0.380678 4.6655 0
M  V30 13869 H 1302.89 -0.274761 6.47417 0
M  V30 13870 N 1296.29 -1.55015 -0.284256 0
M  V30 13871 C 1297.71 -1.46603 -0.630845 0
M  V30 13872 C 1297.91 -0.67091 -1.90003 0
M  V30 13873 O 1296.97 -0.185266 -2.51819 0
M  V30 13874 C 1298.28 -2.9072 -0.768268 0
M  V30 13875 C 1299.83 -3.00866 -0.863061 0
M  V30 13876 C 1300.3 -4.46214 -1.03235 0
M  V30 13877 N 1301.79 -4.49994 -1.09815 0
M  V30 13878 C 1302.53 -5.5966 -1.24773 0
M  V30 13879 N 1302.02 -6.79215 -1.36523 0
M  V30 13880 N 1303.82 -5.4738 -1.27795 0
M  V30 13881 H 1295.97 -2.05171 0.549409 0
M  V30 13882 H 1298.23 -0.929915 0.184288 0
M  V30 13883 H 1297.94 -3.51575 0.0936899 0
M  V30 13884 H 1297.81 -3.39096 -1.65209 0
M  V30 13885 H 1300.2 -2.40114 -1.71549 0
M  V30 13886 H 1300.28 -2.5576 0.0451267 0
M  V30 13887 H 1299.92 -5.07564 -0.18462 0
M  V30 13888 H 1299.85 -4.88965 -1.95502 0
M  V30 13889 H 1302.34 -3.63869 -1.0202 0
M  V30 13890 H 1302.66 -7.58547 -1.47739 0
M  V30 13891 H 1301 -6.82048 -1.33548 0
M  V30 13892 H 1304.19 -4.52921 -1.18238 0
M  V30 13893 H 1304.37 -6.32892 -1.39109 0
M  V30 13894 N 1297.77 0.548248 -1.47757 0
M  V30 13895 C 1298.72 1.65453 -1.60916 0
M  V30 13896 C 1299.69 1.59836 -0.451831 0
M  V30 13897 O 1300.87 1.78536 -0.673023 0
M  V30 13898 C 1298.01 3.0376 -1.6378 0
M  V30 13899 C 1297.13 3.19747 -2.90492 0
M  V30 13900 C 1296.26 4.48505 -2.84635 0
M  V30 13901 C 1295.3 4.57956 -4.06132 0
M  V30 13902 N 1294.44 5.78079 -3.98458 0
M  V30 13903 H 1299.28 1.53545 -2.55398 0
M  V30 13904 H 1296.81 0.747826 -1.26673 0
M  V30 13905 H 1298.77 3.8386 -1.63424 0
M  V30 13906 H 1297.4 3.14483 -0.728036 0
M  V30 13907 H 1296.45 2.3302 -3.00676 0
M  V30 13908 H 1297.77 3.22594 -3.8044 0
M  V30 13909 H 1296.92 5.36875 -2.82577 0
M  V30 13910 H 1295.66 4.48151 -1.92385 0
M  V30 13911 H 1294.66 3.67995 -4.08484 0
M  V30 13912 H 1295.89 4.60062 -4.9952 0
M  V30 13913 H 1293.84 5.78657 -3.09017 0
M  V30 13914 H 1293.75 5.82342 -4.82093 0
M  V30 13915 H 1295.02 6.68786 -4.00431 0
M  V30 13916 N 1299.25 1.36039 0.795694 0
M  V30 13917 C 1300.2 1.29853 1.90806 0
M  V30 13918 C 1301.17 0.168387 1.65244 0
M  V30 13919 O 1302.35 0.353879 1.8749 0
M  V30 13920 C 1299.49 1.08737 3.27521 0
M  V30 13921 C 1298.6 2.30771 3.65197 0
M  V30 13922 C 1297.74 2.02718 4.90998 0
M  V30 13923 C 1296.78 3.20746 5.21333 0
M  V30 13924 N 1295.92 2.92399 6.38316 0
M  V30 13925 H 1300.76 2.2497 1.95429 0
M  V30 13926 H 1298.29 1.11819 0.955771 0
M  V30 13927 H 1300.25 0.945236 4.06351 0
M  V30 13928 H 1298.88 0.172781 3.22337 0
M  V30 13929 H 1297.93 2.5581 2.81541 0
M  V30 13930 H 1299.24 3.18869 3.83568 0
M  V30 13931 H 1298.4 1.85398 5.77679 0
M  V30 13932 H 1297.14 1.11921 4.74684 0
M  V30 13933 H 1296.14 3.38632 4.33138 0
M  V30 13934 H 1297.37 4.1236 5.3957 0
M  V30 13935 H 1295.31 2.04207 6.23406 0
M  V30 13936 H 1295.23 3.74034 6.56989 0
M  V30 13937 H 1296.5 2.78643 7.27996 0
M  V30 13938 N 1300.73 -1.01913 1.20215 0
M  V30 13939 C 1301.69 -2.08563 0.950481 0
M  V30 13940 C 1302.69 -1.60634 -0.0729659 0
M  V30 13941 O 1303.88 -1.73437 0.162826 0
M  V30 13942 C 1301.01 -3.38171 0.430453 0
M  V30 13943 H 1302.21 -2.32323 1.89647 0
M  V30 13944 H 1299.76 -1.18674 1.01716 0
M  V30 13945 H 1300.49 -3.20086 -0.521126 0
M  V30 13946 H 1300.28 -3.74284 1.1685 0
M  V30 13947 H 1301.77 -4.16702 0.273781 0
M  V30 13948 N 1302.21 -1.00763 -1.2118 0
M  V30 13949 C 1303.45 -0.690459 -1.8994 0
M  V30 13950 C 1303.78 0.781464 -1.78656 0
M  V30 13951 O 1303.05 1.56135 -1.18316 0
M  V30 13952 H 1301.63 -0.252397 -0.703068 0
M  V30 13953 H 1304.29 -1.2773 -1.47211 0
M  V30 13954 H 1303.38 -0.96594 -2.96776 0
M  V30 13955 N 1303.68 1.3679 -0.7827 0
M  V30 13956 C 1304.65 2.28472 -0.182525 0
M  V30 13957 C 1305.65 1.48524 0.616217 0
M  V30 13958 O 1306.84 1.68599 0.438197 0
M  V30 13959 C 1303.97 3.32588 0.748202 0
M  V30 13960 H 1305.16 2.83059 -0.99085 0
M  V30 13961 H 1302.72 1.46241 -0.551658 0
M  V30 13962 H 1303.45 2.83145 1.58112 0
M  V30 13963 H 1303.24 3.91698 0.177481 0
M  V30 13964 H 1304.73 4.01073 1.16321 0
M  V30 13965 N 1305.16 0.53415 1.48272 0
M  V30 13966 C 1306.41 0.00156948 2.021 0
M  V30 13967 C 1306.73 -1.34371 1.41313 0
M  V30 13968 O 1306 -1.87117 0.579996 0
M  V30 13969 H 1304.58 -0.00240789 0.746996 0
M  V30 13970 H 1307.24 0.698928 1.81937 0
M  V30 13971 H 1306.34 -0.103671 3.11928 0
M  V30 13972 N 1306.64 -1.55279 0.269478 0
M  V30 13973 C 1307.59 -2.23723 -0.636468 0
M  V30 13974 C 1308.58 -1.23234 -1.16232 0
M  V30 13975 O 1309.79 -1.41181 -1.1166 0
M  V30 13976 H 1306.16 -0.71793 -0.223788 0
M  V30 13977 H 1308.13 -2.98378 -0.0363057 0
M  V30 13978 C 1306.88 -2.96755 -1.81195 0
M  V30 13979 H 1306.21 -3.73865 -1.4165 0
M  V30 13980 H 1307.65 -3.47975 -2.42258 0
M  V30 13981 C 1306.11 -2.01905 -2.69696 0
M  V30 13982 O 1306.64 -1.56662 -3.69892 0
M  V30 13983 N 1304.84 -1.68524 -2.36744 0
M  V30 13984 H 1304.39 -2.05512 -1.55314 0
M  V30 13985 H 1304.35 -1.05331 -2.96231 0
M  V30 13986 N 1308.12 0.00332656 -1.576 0
M  V30 13987 C 1309.08 0.980628 -2.07163 0
M  V30 13988 C 1310.08 1.27455 -0.980402 0
M  V30 13989 O 1311.27 1.22029 -1.24317 0
M  V30 13990 C 1308.4 2.30647 -2.51028 0
M  V30 13991 H 1309.6 0.551982 -2.94776 0
M  V30 13992 H 1307.15 0.250728 -1.54276 0
M  V30 13993 H 1307.88 2.78207 -1.66647 0
M  V30 13994 H 1307.67 2.10635 -3.30719 0
M  V30 13995 H 1309.16 3.00761 -2.89711 0
M  V30 13996 N 1309.6 1.55164 0.276031 0
M  V30 13997 C 1310.54 1.88623 1.36104 0
M  V30 13998 C 1311.54 0.762265 1.51281 0
M  V30 13999 O 1312.74 0.946573 1.53101 0
M  V30 14000 H 1309.12 0.59863 0.455133 0
M  V30 14001 H 1311.09 2.79266 1.05134 0
M  V30 14002 C 1309.84 2.17207 2.71508 0
M  V30 14003 H 1309.16 3.03179 2.6062 0
M  V30 14004 H 1310.6 2.44541 3.46375 0
M  V30 14005 C 1309.06 0.978671 3.22372 0
M  V30 14006 O 1309.59 0.211766 4.01141 0
M  V30 14007 N 1307.8 0.777199 2.80014 0
M  V30 14008 H 1307.34 1.40252 2.16072 0
M  V30 14009 H 1307.3 -0.0196754 3.14394 0
M  V30 14010 N 1311.07 -0.540404 1.48045 0
M  V30 14011 C 1312.3 -1.32656 1.59427 0
M  V30 14012 C 1312.72 -1.86419 0.250924 0
M  V30 14013 O 1312.08 -1.63861 -0.775838 0
M  V30 14014 C 1312.13 -2.46062 2.63602 0
M  V30 14015 O 1311.23 -3.48794 2.20038 0
M  V30 14016 H 1310.58 -0.393334 0.534962 0
M  V30 14017 H 1313.11 -0.651363 1.93955 0
M  V30 14018 H 1313.12 -2.92396 2.84549 0
M  V30 14019 H 1311.79 -2.06291 3.61133 0
M  V30 14020 H 1310.37 -3.0865 2.0926 0
M  V30 14021 N 1312.55 -1.36459 -0.788468 0
M  V30 14022 C 1313.5 -1.30924 -1.92254 0
M  V30 14023 C 1314.49 -0.200866 -1.68205 0
M  V30 14024 O 1315.7 -0.367927 -1.762 0
M  V30 14025 H 1312.08 -0.407609 -0.631949 0
M  V30 14026 H 1314.05 -2.26695 -1.94041 0
M  V30 14027 C 1312.8 -1.11635 -3.29292 0
M  V30 14028 H 1312.12 -1.96168 -3.48365 0
M  V30 14029 H 1313.56 -1.11808 -4.08993 0
M  V30 14030 C 1312.02 0.178963 -3.36424 0
M  V30 14031 O 1312.55 1.16846 -3.8433 0
M  V30 14032 N 1310.75 0.223962 -2.89736 0
M  V30 14033 H 1310.3 -0.581888 -2.50942 0
M  V30 14034 H 1310.26 1.0903 -2.94889 0
M  V30 14035 N 1314.03 1.01274 -1.20754 0
M  V30 14036 C 1315.28 1.74586 -1.01804 0
M  V30 14037 C 1315.6 1.89727 0.450419 0
M  V30 14038 O 1314.87 1.44257 1.32539 0
M  V30 14039 H 1313.45 0.646804 -0.373702 0
M  V30 14040 H 1316.11 1.22079 -1.5193 0
M  V30 14041 H 1315.21 2.748 -1.47958 0
M  V30 14042 N 1315.51 1.01404 1.20644 0
M  V30 14043 C 1316.46 0.582109 2.23339 0
M  V30 14044 C 1317.43 -0.39649 1.61298 0
M  V30 14045 O 1318.61 -0.296504 1.88482 0
M  V30 14046 C 1315.75 -0.076029 3.45016 0
M  V30 14047 C 1314.86 0.946829 4.21496 0
M  V30 14048 C 1314 0.26001 5.30563 0
M  V30 14049 C 1313.04 1.2698 5.98784 0
M  V30 14050 N 1312.18 0.609827 6.99447 0
M  V30 14051 H 1317.02 1.46248 2.59645 0
M  V30 14052 H 1314.55 0.732145 1.27585 0
M  V30 14053 H 1316.51 -0.474714 4.1449 0
M  V30 14054 H 1315.14 -0.920062 3.0941 0
M  V30 14055 H 1314.19 1.4637 3.51113 0
M  V30 14056 H 1315.5 1.71491 4.68393 0
M  V30 14057 H 1314.66 -0.19431 6.06389 0
M  V30 14058 H 1313.4 -0.540395 4.84697 0
M  V30 14059 H 1312.4 1.73453 5.21722 0
M  V30 14060 H 1313.63 2.07144 6.46737 0
M  V30 14061 H 1311.57 -0.170756 6.55778 0
M  V30 14062 H 1311.49 1.31601 7.44458 0
M  V30 14063 H 1312.76 0.179014 7.79294 0
M  V30 14064 N 1316.99 -1.36373 0.789944 0
M  V30 14065 C 1318.21 -2.04011 0.373396 0
M  V30 14066 C 1318.64 -1.59171 -1.00231 0
M  V30 14067 O 1318 -0.760431 -1.64582 0
M  V30 14068 C 1318.04 -3.5783 0.446083 0
M  V30 14069 O 1317.15 -4.08759 -0.54678 0
M  V30 14070 H 1316.49 -0.644807 0.158495 0
M  V30 14071 H 1319.02 -1.74317 1.0712 0
M  V30 14072 H 1319.03 -4.06822 0.309877 0
M  V30 14073 H 1317.7 -3.89819 1.44962 0
M  V30 14074 H 1316.28 -3.71038 -0.372192 0
M  V30 14075 N 1318.47 -0.542005 -1.47987 0
M  V30 14076 C 1319.71 -0.0123299 -2.02796 0
M  V30 14077 C 1320.04 1.32789 -1.41707 0
M  V30 14078 O 1319.32 1.86048 -0.567119 0
M  V30 14079 C 1319.6 0.0969277 -3.5997 0
M  V30 14080 C 1319.46 -1.26931 -4.31519 0
M  V30 14081 C 1320.77 0.817854 -4.32434 0
M  V30 14082 H 1317.89 -0.00595479 -0.736976 0
M  V30 14083 H 1320.54 -0.70136 -1.76581 0
M  V30 14084 H 1318.69 0.683755 -3.82436 0
M  V30 14085 H 1320.36 -1.89817 -4.20437 0
M  V30 14086 H 1318.6 -1.84804 -3.92467 0
M  V30 14087 H 1319.27 -1.14573 -5.39979 0
M  V30 14088 H 1321.75 0.319749 -4.1487 0
M  V30 14089 H 1320.62 0.863225 -5.4207 0
M  V30 14090 H 1320.88 1.87075 -4.00569 0
M  V30 14091 N 1319.94 1.55134 -0.277709 0
M  V30 14092 C 1321.17 2.04519 0.344472 0
M  V30 14093 C 1321.59 1.15466 1.4849 0
M  V30 14094 O 1320.95 0.153798 1.80646 0
M  V30 14095 C 1321 3.51602 0.800527 0
M  V30 14096 O 1320.1 3.65632 1.90754 0
M  V30 14097 H 1319.44 0.660212 0.0708226 0
M  V30 14098 H 1321.97 2.00393 -0.412764 0
M  V30 14099 H 1321.98 3.93015 1.09559 0
M  V30 14100 H 1320.66 4.15886 -0.033838 0
M  V30 14101 H 1319.24 3.36122 1.61481 0
M  V30 14102 N 1321.42 0.00503138 1.57599 0
M  V30 14103 C 1322.67 -0.674107 1.91905 0
M  V30 14104 C 1323.02 -1.71101 0.8799 0
M  V30 14105 O 1322.32 -1.913 -0.107261 0
M  V30 14106 C 1322.51 -1.35485 3.30724 0
M  V30 14107 C 1322.34 -0.385403 4.48045 0
M  V30 14108 C 1321.11 0.00602574 5.053 0
M  V30 14109 C 1323.31 0.350442 5.13105 0
M  V30 14110 N 1321.29 0.97316 6.06138 0
M  V30 14111 C 1322.66 1.1721 6.0882 0
M  V30 14112 C 1324.71 0.413738 4.96178 0
M  V30 14113 C 1323.42 2.05129 6.89431 0
M  V30 14114 C 1325.44 1.28018 5.77378 0
M  V30 14115 C 1324.81 2.08967 6.7269 0
M  V30 14116 H 1320.9 -0.219721 0.750498 0
M  V30 14117 H 1323.49 0.0665598 1.94586 0
M  V30 14118 H 1321.66 -2.06578 3.28907 0
M  V30 14119 H 1323.39 -1.98909 3.52445 0
M  V30 14120 H 1320.15 -0.363403 4.72204 0
M  V30 14121 H 1320.57 1.45225 6.6124 0
M  V30 14122 H 1325.21 -0.19783 4.22337 0
M  V30 14123 H 1322.93 2.67351 7.62594 0
M  V30 14124 H 1326.52 1.33313 5.66321 0
M  V30 14125 H 1325.4 2.74926 7.34428 0
M  V30 14126 N 1322.9 -1.55308 -0.267798 0
M  V30 14127 C 1324.12 -1.80524 -1.02107 0
M  V30 14128 C 1324.55 -0.579268 -1.78958 0
M  V30 14129 O 1323.91 0.471262 -1.75068 0
M  V30 14130 C 1323.96 -3.03248 -1.95123 0
M  V30 14131 O 1323.06 -2.78699 -3.03975 0
M  V30 14132 H 1322.4 -0.596518 -0.291655 0
M  V30 14133 H 1324.93 -2.0246 -0.295128 0
M  V30 14134 H 1324.94 -3.32121 -2.3698 0
M  V30 14135 H 1323.62 -3.92126 -1.386 0
M  V30 14136 H 1322.19 -2.60936 -2.66396 0
M  V30 14137 N 1324.38 0.532545 -1.4833 0
M  V30 14138 C 1325.29 1.66433 -1.65339 0
M  V30 14139 C 1326.3 1.65541 -0.535939 0
M  V30 14140 O 1327.48 1.84539 -0.806679 0
M  V30 14141 C 1324.54 3.02901 -1.68676 0
M  V30 14142 C 1323.61 3.14669 -2.92031 0
M  V30 14143 C 1322.84 4.44627 -2.95199 0
M  V30 14144 O 1323.06 5.31572 -2.06851 0
M  V30 14145 O 1322 4.60707 -3.87341 0
M  V30 14146 H 1325.82 1.5502 -2.61156 0
M  V30 14147 H 1323.41 0.705348 -1.31701 0
M  V30 14148 H 1325.29 3.84068 -1.73407 0
M  V30 14149 H 1323.96 3.14644 -0.760327 0
M  V30 14150 H 1322.87 2.32807 -2.92834 0
M  V30 14151 H 1324.2 3.07841 -3.8405 0
M  V30 14152 N 1325.86 1.36875 0.78122 0
M  V30 14153 C 1327.27 1.28236 1.35692 0
M  V30 14154 C 1327.62 -0.0742286 1.9606 0
M  V30 14155 O 1326.74 -0.97588 1.93146 0
M  V30 14156 C 1327.34 2.32215 2.46702 0
M  V30 14157 C 1325.9 2.2724 3.00065 0
M  V30 14158 C 1325.04 2.16553 1.73206 0
M  V30 14159 H 1327.99 1.47634 0.582217 0
M  V30 14160 H 1328.02 1.96333 3.25935 0
M  V30 14161 H 1327.53 3.30938 2.02735 0
M  V30 14162 H 1325.63 1.3201 3.48431 0
M  V30 14163 H 1325.74 3.20267 3.56323 0
M  V30 14164 H 1324.11 1.62941 1.95761 0
M  V30 14165 H 1324.89 3.17176 1.31356 0
M  V30 14166 N 1327.33 -1.00632 1.21289 0
M  V30 14167 C 1328.58 -1.74044 1.02728 0
M  V30 14168 C 1328.9 -1.89963 -0.440351 0
M  V30 14169 O 1328.17 -1.44958 -1.31772 0
M  V30 14170 H 1326.75 -0.644813 0.377127 0
M  V30 14171 H 1329.41 -1.21272 1.52575 0
M  V30 14172 H 1328.51 -2.74011 1.49413 0
M  V30 14173 N 1328.81 -1.02043 -1.20104 0
M  V30 14174 C 1330.06 -0.710566 -1.89197 0
M  V30 14175 C 1330.38 0.762471 -1.79475 0
M  V30 14176 O 1329.65 1.54871 -1.19965 0
M  V30 14177 H 1328.23 -0.259839 -0.700352 0
M  V30 14178 H 1330.89 -1.29285 -1.45848 0
M  V30 14179 H 1329.99 -0.997363 -2.95735 0
M  V30 14180 N 1330.29 1.35952 -0.797165 0
M  V30 14181 C 1331.54 1.98639 -0.372405 0
M  V30 14182 C 1331.86 1.63571 1.06158 0
M  V30 14183 O 1331.13 0.913516 1.73297 0
M  V30 14184 H 1329.71 0.734753 -0.13471 0
M  V30 14185 H 1332.37 1.66022 -1.02092 0
M  V30 14186 H 1331.47 3.08533 -0.47049 0
M  V30 14187 N 1331.77 0.549846 1.47697 0
M  V30 14188 C 1332.7 -0.239345 2.27947 0
M  V30 14189 C 1333.71 -0.886206 1.36566 0
M  V30 14190 O 1334.9 -0.761298 1.61451 0
M  V30 14191 C 1332 -1.35591 3.10593 0
M  V30 14192 C 1331.18 -0.807234 4.29887 0
M  V30 14193 C 1330.23 -1.80738 4.94187 0
M  V30 14194 O 1329.26 -1.35641 5.52802 0
M  V30 14195 N 1330.46 -3.14046 4.88216 0
M  V30 14196 H 1333.23 0.449001 2.96318 0
M  V30 14197 H 1330.79 0.385443 1.57245 0
M  V30 14198 H 1332.78 -2.02356 3.50477 0
M  V30 14199 H 1331.35 -1.94761 2.44514 0
M  V30 14200 H 1330.57 0.0369877 3.94183 0
M  V30 14201 H 1331.86 -0.419877 5.07065 0
M  V30 14202 H 1331.26 -3.53335 4.41781 0
M  V30 14203 H 1329.81 -3.7639 5.32141 0
M  V30 14204 N 1333.25 -1.54984 0.285932 0
M  V30 14205 C 1334.49 -2.00126 -0.328223 0
M  V30 14206 C 1334.83 -1.17409 -1.54689 0
M  V30 14207 O 1334.1 -0.246806 -1.92928 0
M  V30 14208 C 1334.38 -3.53236 -0.699733 0
M  V30 14209 C 1334.24 -4.46702 0.527029 0
M  V30 14210 C 1335.56 -4.12572 -1.53206 0
M  V30 14211 H 1332.67 -0.727521 -0.117825 0
M  V30 14212 H 1335.32 -1.85848 0.395032 0
M  V30 14213 H 1333.47 -3.65534 -1.31594 0
M  V30 14214 H 1335.14 -4.46332 1.16557 0
M  V30 14215 H 1333.38 -4.17917 1.1631 0
M  V30 14216 H 1334.05 -5.51549 0.223165 0
M  V30 14217 H 1336.53 -4.03618 -1.01154 0
M  V30 14218 H 1335.4 -5.19891 -1.7608 0
M  V30 14219 H 1335.67 -3.63487 -2.51654 0
M  V30 14220 N 1334.72 -0.0133892 -1.57594 0
M  V30 14221 C 1336.14 0.527615 -1.7909 0
M  V30 14222 C 1336.49 1.73179 -0.922142 0
M  V30 14223 O 1335.61 2.1602 -0.128233 0
M  V30 14224 C 1336.21 0.963949 -3.24798 0
M  V30 14225 C 1334.77 1.45017 -3.47343 0
M  V30 14226 C 1333.91 0.407548 -2.74289 0
M  V30 14227 H 1336.86 -0.239505 -1.56882 0
M  V30 14228 H 1336.88 1.82924 -3.33645 0
M  V30 14229 H 1336.4 0.0873315 -3.88002 0
M  V30 14230 H 1334.5 2.34724 -2.89371 0
M  V30 14231 H 1334.61 1.4684 -4.56043 0
M  V30 14232 H 1332.97 0.872174 -2.39301 0
M  V30 14233 H 1333.76 -0.460333 -3.402 0
M  V30 14234 N 1336.2 1.55448 0.259558 0
M  V30 14235 C 1337.15 1.89248 1.32113 0
M  V30 14236 C 1338.12 0.745348 1.48438 0
M  V30 14237 O 1339.3 0.997854 1.62627 0
M  V30 14238 C 1336.44 2.18161 2.67394 0
M  V30 14239 C 1335.56 3.45614 2.59182 0
M  V30 14240 C 1334.69 3.6416 3.86731 0
M  V30 14241 C 1333.73 4.85258 3.73084 0
M  V30 14242 N 1332.87 5.00391 4.92497 0
M  V30 14243 H 1337.71 2.79785 1.02589 0
M  V30 14244 H 1335.25 1.38509 0.495338 0
M  V30 14245 H 1337.2 2.32927 3.46122 0
M  V30 14246 H 1335.83 1.30843 2.95093 0
M  V30 14247 H 1334.89 3.39248 1.72091 0
M  V30 14248 H 1336.2 4.34483 2.45002 0
M  V30 14249 H 1335.35 3.78817 4.73902 0
M  V30 14250 H 1334.09 2.73501 4.03793 0
M  V30 14251 H 1333.1 4.70591 2.84296 0
M  V30 14252 H 1334.32 5.77365 3.57528 0
M  V30 14253 H 1332.27 4.12666 5.09944 0
M  V30 14254 H 1332.18 5.83328 4.809 0
M  V30 14255 H 1333.45 5.19446 5.81202 0
M  V30 14256 N 1337.68 -0.524672 1.4861 0
M  V30 14257 C 1338.93 -1.27768 1.56588 0
M  V30 14258 C 1339.25 -1.93469 0.243899 0
M  V30 14259 O 1338.52 -1.8159 -0.734985 0
M  V30 14260 H 1337.1 -0.474566 0.576885 0
M  V30 14261 H 1339.76 -0.610114 1.85104 0
M  V30 14262 H 1338.86 -2.05416 2.34969 0
M  V30 14263 N 1339.16 -1.37287 -0.77395 0
M  V30 14264 C 1340.09 -1.28746 -1.89624 0
M  V30 14265 C 1341.1 -0.203715 -1.6152 0
M  V30 14266 O 1342.29 -0.459684 -1.72479 0
M  V30 14267 C 1339.39 -0.967342 -3.24801 0
M  V30 14268 C 1338.57 -2.1561 -3.80567 0
M  V30 14269 C 1337.62 -1.80661 -4.94215 0
M  V30 14270 O 1336.65 -2.5293 -5.09917 0
M  V30 14271 N 1337.85 -0.749424 -5.75642 0
M  V30 14272 H 1340.62 -2.25447 -1.97468 0
M  V30 14273 H 1338.18 -1.30883 -0.952956 0
M  V30 14274 H 1340.17 -0.714421 -3.98344 0
M  V30 14275 H 1338.74 -0.0889573 -3.12473 0
M  V30 14276 H 1337.96 -2.57091 -2.98828 0
M  V30 14277 H 1339.25 -2.94993 -4.14556 0
M  V30 14278 H 1338.65 -0.149673 -5.65502 0
M  V30 14279 H 1337.2 -0.556358 -6.49421 0
M  V30 14280 N 1340.64 0.999871 -1.21821 0
M  V30 14281 C 1341.59 2.0729 -0.949465 0
M  V30 14282 C 1342.57 1.60606 0.0972572 0
M  V30 14283 O 1343.76 1.76643 -0.11235 0
M  V30 14284 C 1340.89 3.39315 -0.521565 0
M  V30 14285 C 1339.98 3.92653 -1.60264 0
M  V30 14286 N 1340.37 4.19297 -2.82884 0
M  V30 14287 C 1338.67 4.20984 -1.4727 0
M  V30 14288 C 1339.37 4.62547 -3.52739 0
M  V30 14289 N 1338.34 4.65826 -2.80191 0
M  V30 14290 H 1342.15 2.25822 -1.881 0
M  V30 14291 H 1339.66 1.18102 -1.1147 0
M  V30 14292 H 1341.66 4.15743 -0.310376 0
M  V30 14293 H 1340.32 3.22187 0.403152 0
M  V30 14294 H 1341.33 4.07698 -3.19378 0
M  V30 14295 H 1338 4.12966 -0.613654 0
M  V30 14296 H 1339.39 4.91843 -4.57756 0
M  V30 14297 N 1342.11 1.02678 1.19562 0
M  V30 14298 C 1343.05 0.550355 2.21464 0
M  V30 14299 C 1344.03 -0.407674 1.57406 0
M  V30 14300 O 1345.21 -0.325272 1.85672 0
M  V30 14301 C 1342.34 -0.197777 3.38122 0
M  V30 14302 C 1341.38 0.711362 4.20526 0
M  V30 14303 S 1342.22 2.18636 4.88834 0
M  V30 14304 C 1343.37 1.44868 6.08904 0
M  V30 14305 H 1343.6 1.41377 2.61534 0
M  V30 14306 H 1341.14 0.836535 1.29775 0
M  V30 14307 H 1343.1 -0.62329 4.0574 0
M  V30 14308 H 1341.76 -1.03689 2.96492 0
M  V30 14309 H 1340.95 0.133916 5.03822 0
M  V30 14310 H 1340.55 1.0751 3.58214 0
M  V30 14311 H 1342.84 0.734143 6.73511 0
M  V30 14312 H 1343.79 2.25816 6.71128 0
M  V30 14313 H 1344.19 0.947098 5.56498 0
M  V30 14314 N 1343.59 -1.35528 0.804364 0
M  V30 14315 C 1344.84 -1.9956 0.393383 0
M  V30 14316 C 1345.19 -1.62667 -1.02749 0
M  V30 14317 O 1344.49 -0.87869 -1.70263 0
M  V30 14318 C 1344.68 -3.5372 0.511571 0
M  V30 14319 C 1344.51 -4.05588 1.94238 0
M  V30 14320 C 1343.28 -4.35046 2.57027 0
M  V30 14321 C 1345.48 -4.24287 2.90663 0
M  V30 14322 N 1343.46 -4.7283 3.91541 0
M  V30 14323 C 1344.83 -4.65043 4.10043 0
M  V30 14324 C 1346.89 -4.0649 2.87524 0
M  V30 14325 C 1345.59 -4.89864 5.26712 0
M  V30 14326 C 1347.61 -4.32467 4.03394 0
M  V30 14327 C 1346.98 -4.73492 5.21521 0
M  V30 14328 H 1343.08 -0.758146 0.191674 0
M  V30 14329 H 1345.66 -1.64271 1.04513 0
M  V30 14330 H 1343.83 -3.88244 -0.110174 0
M  V30 14331 H 1345.56 -4.0463 0.0753915 0
M  V30 14332 H 1342.32 -4.25285 2.08397 0
M  V30 14333 H 1342.74 -4.95985 4.6079 0
M  V30 14334 H 1347.38 -3.73916 1.97349 0
M  V30 14335 H 1345.1 -5.21313 6.17461 0
M  V30 14336 H 1348.69 -4.20252 4.02343 0
M  V30 14337 H 1347.57 -4.93201 6.09691 0
M  V30 14338 N 1345.07 -0.557671 -1.47404 0
M  V30 14339 C 1346.02 0.210176 -2.27029 0
M  V30 14340 C 1347.01 0.884882 -1.34382 0
M  V30 14341 O 1348.2 0.783112 -1.58734 0
M  V30 14342 C 1345.33 1.23923 -3.20153 0
M  V30 14343 C 1344.41 0.567913 -4.2028 0
M  V30 14344 N 1344.8 -0.362279 -5.04501 0
M  V30 14345 C 1343.1 0.821776 -4.38364 0
M  V30 14346 C 1343.8 -0.752273 -5.76815 0
M  V30 14347 N 1342.78 -0.107008 -5.43495 0
M  V30 14348 H 1346.58 -0.505007 -2.89529 0
M  V30 14349 H 1344.09 -0.377642 -1.57948 0
M  V30 14350 H 1346.09 1.80328 -3.75882 0
M  V30 14351 H 1344.75 1.9555 -2.59211 0
M  V30 14352 H 1345.76 -0.736468 -5.12637 0
M  V30 14353 H 1342.44 1.52652 -3.88592 0
M  V30 14354 H 1343.83 -1.51664 -6.54559 0
M  V30 14355 N 1346.55 1.54831 -0.294147 0
M  V30 14356 C 1347.97 1.59489 0.0594489 0
M  V30 14357 C 1348.17 1.31121 1.53002 0
M  V30 14358 O 1347.22 1.08129 2.28176 0
M  V30 14359 C 1348.53 2.98858 -0.332323 0
M  V30 14360 C 1350.08 3.1174 -0.280518 0
M  V30 14361 C 1350.56 4.53407 -0.64701 0
M  V30 14362 N 1352.05 4.59307 -0.599284 0
M  V30 14363 C 1352.78 5.66983 -0.85542 0
M  V30 14364 N 1352.28 6.82726 -1.17717 0
M  V30 14365 N 1354.07 5.56621 -0.78294 0
M  V30 14366 H 1346.22 1.71532 -1.25262 0
M  V30 14367 H 1348.49 0.800801 -0.507368 0
M  V30 14368 H 1348.19 3.24517 -1.35578 0
M  V30 14369 H 1348.07 3.75862 0.317443 0
M  V30 14370 H 1350.45 2.85834 0.733683 0
M  V30 14371 H 1350.53 2.36907 -0.96481 0
M  V30 14372 H 1350.18 4.80042 -1.65899 0
M  V30 14373 H 1350.11 5.26567 0.0592796 0
M  V30 14374 H 1352.6 3.76169 -0.361259 0
M  V30 14375 H 1352.91 7.60761 -1.35877 0
M  V30 14376 H 1351.26 6.84295 -1.21513 0
M  V30 14377 H 1354.45 4.65075 -0.531282 0
M  V30 14378 H 1354.62 6.40456 -0.985929 0
M  V30 14379 N 1348.03 0.0217466 1.57585 0
M  V30 14380 C 1348.96 -0.961069 2.12804 0
M  V30 14381 C 1349.94 -1.3442 1.04237 0
M  V30 14382 O 1351.12 -1.42412 1.32032 0
M  V30 14383 C 1348.25 -2.24586 2.64912 0
M  V30 14384 C 1347.21 -2.0037 3.78201 0
M  V30 14385 C 1346.53 -3.35051 4.16708 0
M  V30 14386 C 1347.83 -1.34879 5.04584 0
M  V30 14387 H 1349.53 -0.501222 2.95175 0
M  V30 14388 H 1347.07 -0.239649 1.41992 0
M  V30 14389 H 1349.03 -2.93715 3.02175 0
M  V30 14390 H 1347.75 -2.72723 1.79693 0
M  V30 14391 H 1346.41 -1.33662 3.41365 0
M  V30 14392 H 1346.06 -3.80932 3.28481 0
M  V30 14393 H 1345.76 -3.19656 4.93045 0
M  V30 14394 H 1347.28 -4.05459 4.56547 0
M  V30 14395 H 1348.7 -1.93997 5.3948 0
M  V30 14396 H 1347.09 -1.29906 5.85871 0
M  V30 14397 H 1348.16 -0.320774 4.83838 0
M  V30 14398 N 1349.51 -1.55583 -0.251311 0
M  V30 14399 C 1350.73 -1.81597 -1.00186 0
M  V30 14400 C 1351.16 -0.598216 -1.78334 0
M  V30 14401 O 1350.51 0.452667 -1.75558 0
M  V30 14402 C 1350.56 -3.05301 -1.91895 0
M  V30 14403 O 1349.67 -2.81907 -3.01002 0
M  V30 14404 H 1349.01 -0.599578 -0.285311 0
M  V30 14405 H 1351.54 -2.02762 -0.273638 0
M  V30 14406 H 1351.55 -3.34616 -2.33444 0
M  V30 14407 H 1350.22 -3.93574 -1.34433 0
M  V30 14408 H 1348.8 -2.63747 -2.63613 0
M  V30 14409 N 1350.98 0.516783 -1.48886 0
M  V30 14410 C 1352.23 1.27375 -1.57808 0
M  V30 14411 C 1352.56 1.92492 -0.256963 0
M  V30 14412 O 1351.84 1.79947 0.738193 0
M  V30 14413 C 1352.12 2.35295 -2.72595 0
M  V30 14414 C 1351.97 1.74783 -4.14453 0
M  V30 14415 C 1353.29 3.36973 -2.83085 0
M  V30 14416 H 1350.41 0.46175 -0.574418 0
M  V30 14417 H 1353.05 0.57434 -1.81111 0
M  V30 14418 H 1351.2 2.94951 -2.52857 0
M  V30 14419 H 1352.88 1.19076 -4.45666 0
M  V30 14420 H 1351.12 1.05258 -4.20836 0
M  V30 14421 H 1351.79 2.52985 -4.90615 0
M  V30 14422 H 1354.27 2.87289 -3.01005 0
M  V30 14423 H 1353.14 4.09864 -3.65106 0
M  V30 14424 H 1353.4 3.98336 -1.91784 0
M  V30 14425 N 1352.46 1.37696 0.766659 0
M  V30 14426 C 1353.41 1.30383 1.87041 0
M  V30 14427 C 1354.4 0.190643 1.59767 0
M  V30 14428 O 1355.59 0.425485 1.7181 0
M  V30 14429 C 1352.72 1.11817 3.2458 0
M  V30 14430 C 1351.8 2.27701 3.57789 0
M  V30 14431 N 1352.19 3.53108 3.62144 0
M  V30 14432 C 1350.49 2.19967 3.87983 0
M  V30 14433 C 1351.19 4.29555 3.92247 0
M  V30 14434 N 1350.17 3.58754 4.08408 0
M  V30 14435 H 1353.97 2.25348 1.88668 0
M  V30 14436 H 1351.48 1.30741 0.963362 0
M  V30 14437 H 1353.48 1.04663 4.03548 0
M  V30 14438 H 1352.14 0.177731 3.24213 0
M  V30 14439 H 1353.15 3.86949 3.44225 0
M  V30 14440 H 1349.83 1.34009 3.95408 0
M  V30 14441 H 1351.22 5.38112 4.0235 0
M  V30 14442 N 1353.94 -0.993397 1.22349 0
M  V30 14443 C 1355.19 -1.73544 1.04931 0
M  V30 14444 C 1355.52 -1.89721 -0.414661 0
M  V30 14445 O 1354.79 -1.44001 -1.30743 0
M  V30 14446 C 1355.08 -3.14131 1.7605 0
M  V30 14447 C 1354.93 -3.05604 3.30039 0
M  V30 14448 C 1356.25 -4.13294 1.51249 0
M  V30 14449 H 1353.37 -0.629915 0.382591 0
M  V30 14450 H 1356.01 -1.15737 1.50682 0
M  V30 14451 H 1354.16 -3.63483 1.37157 0
M  V30 14452 H 1355.83 -2.63876 3.78374 0
M  V30 14453 H 1354.07 -2.42421 3.59742 0
M  V30 14454 H 1354.75 -4.05086 3.74979 0
M  V30 14455 H 1357.22 -3.72696 1.85033 0
M  V30 14456 H 1356.1 -5.09781 2.03507 0
M  V30 14457 H 1356.36 -4.39855 0.444973 0
M  V30 14458 N 1355.42 -1.03311 -1.19015 0
M  V30 14459 C 1356.36 -0.617567 -2.22384 0
M  V30 14460 C 1357.33 0.370779 -1.61909 0
M  V30 14461 O 1358.52 0.266481 -1.8893 0
M  V30 14462 C 1355.66 0.0211303 -3.45094 0
M  V30 14463 C 1354.77 -1.01377 -4.19937 0
M  V30 14464 C 1353.91 -0.344385 -5.30082 0
M  V30 14465 C 1352.95 -1.3649 -5.96688 0
M  V30 14466 N 1352.08 -0.721026 -6.98388 0
M  V30 14467 H 1356.92 -1.5036 -2.57286 0
M  V30 14468 H 1354.46 -0.75235 -1.26405 0
M  V30 14469 H 1356.42 0.408713 -4.15193 0
M  V30 14470 H 1355.05 0.870721 -3.10835 0
M  V30 14471 H 1354.1 -1.51937 -3.4874 0
M  V30 14472 H 1355.41 -1.78921 -4.65606 0
M  V30 14473 H 1354.57 0.097814 -6.06621 0
M  V30 14474 H 1353.31 0.463216 -4.85495 0
M  V30 14475 H 1352.31 -1.81732 -5.18897 0
M  V30 14476 H 1353.54 -2.17407 -6.43359 0
M  V30 14477 H 1351.48 0.0664057 -6.55966 0
M  V30 14478 H 1351.4 -1.43428 -7.4227 0
M  V30 14479 H 1352.67 -0.30297 -7.78911 0
M  V30 14480 N 1356.9 1.35099 -0.81154 0
M  V30 14481 C 1358.12 2.0286 -0.406855 0
M  V30 14482 C 1358.54 1.61147 0.98372 0
M  V30 14483 O 1357.9 0.811398 1.6347 0
M  V30 14484 C 1357.95 3.58214 -0.486305 0
M  V30 14485 O 1357.67 3.98412 -1.82206 0
M  V30 14486 C 1359.17 4.43236 -0.0750619 0
M  V30 14487 H 1356.39 0.650482 -0.164664 0
M  V30 14488 H 1358.93 1.72616 -1.09654 0
M  V30 14489 H 1357.09 3.87089 0.155177 0
M  V30 14490 H 1357.5 4.93072 -1.78831 0
M  V30 14491 H 1358.98 5.51701 -0.181759 0
M  V30 14492 H 1359.45 4.28123 0.980169 0
M  V30 14493 H 1360.06 4.19667 -0.689894 0
M  V30 14494 N 1358.37 0.56548 1.47106 0
M  V30 14495 C 1359.32 -0.190542 2.31818 0
M  V30 14496 C 1360.32 -0.901279 1.43434 0
M  V30 14497 O 1361.52 -0.821625 1.60154 0
M  V30 14498 H 1357.9 -0.0803183 0.747698 0
M  V30 14499 H 1359.87 0.542999 2.93418 0
M  V30 14500 C 1358.62 -1.20208 3.2626 0
M  V30 14501 H 1357.94 -0.664608 3.94237 0
M  V30 14502 H 1359.38 -1.7018 3.88349 0
M  V30 14503 C 1357.84 -2.25423 2.50372 0
M  V30 14504 O 1358.37 -3.3249 2.25418 0
M  V30 14505 N 1356.57 -1.9957 2.11235 0
M  V30 14506 H 1356.12 -1.12513 2.31729 0
M  V30 14507 H 1356.08 -2.70182 1.60777 0
M  V30 14508 N 1359.85 -1.54672 0.302354 0
M  V30 14509 C 1360.76 -2.27251 -0.582578 0
M  V30 14510 C 1361.78 -1.30819 -1.14727 0
M  V30 14511 O 1362.95 -1.63803 -1.17177 0
M  V30 14512 C 1360.02 -3.00016 -1.73757 0
M  V30 14513 C 1359.08 -4.11988 -1.20682 0
M  V30 14514 C 1358.31 -4.81273 -2.30676 0
M  V30 14515 O 1358.54 -4.49927 -3.50602 0
M  V30 14516 O 1357.47 -5.68647 -1.97291 0
M  V30 14517 H 1361.3 -3.03699 0.00621365 0
M  V30 14518 H 1358.88 -1.49242 0.0687684 0
M  V30 14519 H 1360.76 -3.45652 -2.41045 0
M  V30 14520 H 1359.44 -2.26462 -2.31294 0
M  V30 14521 H 1358.35 -3.70749 -0.499625 0
M  V30 14522 H 1359.68 -4.87524 -0.676858 0
M  V30 14523 N 1361.33 -0.0301034 -1.57571 0
M  V30 14524 C 1362.56 0.658488 -1.96142 0
M  V30 14525 C 1362.97 1.65606 -0.906644 0
M  V30 14526 O 1362.33 1.82159 0.111441 0
M  V30 14527 C 1362.38 1.364 -3.34779 0
M  V30 14528 O 1362.1 0.4064 -4.36211 0
M  V30 14529 C 1363.6 2.14432 -3.87987 0
M  V30 14530 H 1360.82 0.181496 -0.645988 0
M  V30 14531 H 1363.37 -0.09016 -2.04301 0
M  V30 14532 H 1361.52 2.06404 -3.27836 0
M  V30 14533 H 1361.94 0.907503 -5.16589 0
M  V30 14534 H 1363.41 2.59248 -4.87334 0
M  V30 14535 H 1363.89 2.98377 -3.22285 0
M  V30 14536 H 1364.49 1.49383 -3.98202 0
M  V30 14537 N 1362.81 1.55714 0.243056 0
M  V30 14538 C 1363.77 1.89832 1.28438 0
M  V30 14539 C 1364.77 0.775083 1.40887 0
M  V30 14540 O 1365.96 1.04304 1.39521 0
M  V30 14541 C 1363.09 2.13016 2.66153 0
M  V30 14542 H 1364.29 2.82947 0.994022 0
M  V30 14543 H 1361.84 1.48665 0.482521 0
M  V30 14544 H 1362.57 1.22381 3.00322 0
M  V30 14545 H 1362.36 2.94824 2.58498 0
M  V30 14546 H 1363.85 2.40581 3.41336 0
M  V30 14547 N 1364.29 -0.50888 1.49158 0
M  V30 14548 C 1365.53 -1.27375 1.59859 0
M  V30 14549 C 1365.89 -1.90012 0.275547 0
M  V30 14550 O 1367.09 -2.67562 0.257682 0
M  V30 14551 C 1365.36 -2.31821 2.72018 0
M  V30 14552 S 1366.92 -3.17752 3.0262 0
M  V30 14553 H 1363.74 -0.432991 0.56395 0
M  V30 14554 H 1366.34 -0.577341 1.86781 0
M  V30 14555 H 1365.05 -1.84321 3.6668 0
M  V30 14556 H 1364.58 -3.06142 2.47065 0
M  V30 14557 H 1366.59 -4.32324 2.43537 0
M  V30 14558 N 1365.76 -1.381 -0.759346 0
M  V30 14559 C 1366.71 -1.34972 -1.89434 0
M  V30 14560 C 1367.71 -0.236499 -1.67741 0
M  V30 14561 O 1368.91 -0.405218 -1.7538 0
M  V30 14562 H 1365.29 -0.420922 -0.62316 0
M  V30 14563 H 1367.26 -2.3076 -1.89189 0
M  V30 14564 C 1366.01 -1.18594 -3.2685 0
M  V30 14565 H 1365.33 -2.03514 -3.44125 0
M  V30 14566 H 1366.77 -1.20458 -4.06529 0
M  V30 14567 C 1365.23 0.107562 -3.36728 0
M  V30 14568 O 1365.76 1.08668 -3.86722 0
M  V30 14569 N 1363.97 0.162455 -2.90146 0
M  V30 14570 H 1363.51 -0.634985 -2.49651 0
M  V30 14571 H 1363.47 1.02751 -2.97136 0
M  V30 14572 N 1367.24 0.986894 -1.22875 0
M  V30 14573 C 1368.17 2.08035 -0.961971 0
M  V30 14574 C 1369.19 1.62683 0.0616475 0
M  V30 14575 O 1370.38 1.77659 -0.173094 0
M  V30 14576 C 1367.48 3.36208 -0.426302 0
M  V30 14577 C 1366.65 4.10562 -1.50856 0
M  V30 14578 C 1365.71 5.17014 -0.97891 0
M  V30 14579 O 1364.73 5.44259 -1.66645 0
M  V30 14580 N 1365.94 5.80167 0.196613 0
M  V30 14581 H 1368.7 2.315 -1.90336 0
M  V30 14582 H 1366.26 1.1531 -1.13645 0
M  V30 14583 H 1368.25 4.0466 -0.0571577 0
M  V30 14584 H 1366.82 3.09761 0.420345 0
M  V30 14585 H 1366.04 3.36656 -2.05076 0
M  V30 14586 H 1367.33 4.57007 -2.23655 0
M  V30 14587 H 1366.73 5.60409 0.771892 0
M  V30 14588 H 1365.29 6.49825 0.507083 0
M  V30 14589 N 1368.72 1.0394 1.18466 0
M  V30 14590 C 1369.95 0.762014 1.92356 0
M  V30 14591 C 1370.36 -0.680652 1.76104 0
M  V30 14592 O 1369.72 -1.46385 1.08985 0
M  V30 14593 C 1369.77 1.11717 3.43805 0
M  V30 14594 O 1369.49 2.50319 3.59544 0
M  V30 14595 C 1370.99 0.864099 4.34797 0
M  V30 14596 H 1368.21 0.277999 0.610702 0
M  V30 14597 H 1370.76 1.38672 1.503 0
M  V30 14598 H 1368.91 0.537445 3.83654 0
M  V30 14599 H 1369.33 2.63875 4.53288 0
M  V30 14600 H 1370.8 1.16247 5.39621 0
M  V30 14601 H 1371.28 -0.20117 4.38739 0
M  V30 14602 H 1371.88 1.42706 4.00643 0
M  V30 14603 N 1370.2 -1.34667 0.818693 0
M  V30 14604 C 1371.16 -2.27908 0.243037 0
M  V30 14605 C 1372.16 -1.50106 -0.576622 0
M  V30 14606 O 1373.35 -1.69701 -0.393342 0
M  V30 14607 C 1370.48 -3.34455 -0.659759 0
M  V30 14608 H 1371.68 -2.80332 1.06555 0
M  V30 14609 H 1369.23 -1.44727 0.590237 0
M  V30 14610 H 1369.96 -2.87238 -1.50549 0
M  V30 14611 H 1369.75 -3.92031 -0.073567 0
M  V30 14612 H 1371.24 -4.04016 -1.05646 0
M  V30 14613 N 1371.68 -0.573274 -1.46804 0
M  V30 14614 C 1372.92 -0.0553432 -2.02724 0
M  V30 14615 C 1373.26 1.29753 -1.44492 0
M  V30 14616 O 1372.53 1.84804 -0.606455 0
M  V30 14617 C 1372.81 0.0205511 -3.60094 0
M  V30 14618 C 1372.67 -1.36055 -4.2873 0
M  V30 14619 C 1373.99 0.725944 -4.34071 0
M  V30 14620 H 1371.1 -0.0215858 -0.736684 0
M  V30 14621 H 1373.75 -0.738657 -1.75054 0
M  V30 14622 H 1371.9 0.602481 -3.838 0
M  V30 14623 H 1373.57 -1.98692 -4.16316 0
M  V30 14624 H 1371.81 -1.93087 -3.88458 0
M  V30 14625 H 1372.48 -1.26001 -5.37427 0
M  V30 14626 H 1374.96 0.231677 -4.15455 0
M  V30 14627 H 1373.83 0.74805 -5.43779 0
M  V30 14628 H 1374.1 1.78536 -4.04447 0
M  V30 14629 N 1373.15 1.5451 -0.310553 0
M  V30 14630 C 1374.4 1.99505 0.296731 0
M  V30 14631 C 1374.72 1.20257 1.54265 0
M  V30 14632 O 1375.92 1.55566 2.22512 0
M  V30 14633 C 1374.38 3.55208 0.579251 0
M  V30 14634 C 1373.99 4.43276 -0.648874 0
M  V30 14635 C 1375.73 4.08705 1.1472 0
M  V30 14636 C 1373.64 5.90428 -0.338978 0
M  V30 14637 H 1372.57 0.745232 0.114652 0
M  V30 14638 H 1375.22 1.78611 -0.420749 0
M  V30 14639 H 1373.6 3.72039 1.35658 0
M  V30 14640 H 1374.77 4.3822 -1.42478 0
M  V30 14641 H 1373.09 4.00601 -1.13613 0
M  V30 14642 H 1375.69 5.16223 1.39346 0
M  V30 14643 H 1376.03 3.59889 2.09249 0
M  V30 14644 H 1376.56 3.95454 0.431363 0
M  V30 14645 H 1373.3 6.43411 -1.25309 0
M  V30 14646 H 1372.82 5.98468 0.399475 0
M  V30 14647 H 1374.5 6.46976 0.0559696 0
M  V30 14648 N 1374.63 0.0384594 1.57553 0
M  V30 14649 C 1375.58 -0.940256 2.10779 0
M  V30 14650 C 1376.55 -1.31705 1.01208 0
M  V30 14651 O 1377.74 -1.40874 1.28683 0
M  V30 14652 C 1374.88 -2.21419 2.64703 0
M  V30 14653 C 1373.99 -1.89302 3.88315 0
M  V30 14654 C 1373.12 -3.1106 4.30599 0
M  V30 14655 C 1372.16 -2.74805 5.46945 0
M  V30 14656 N 1371.3 -3.89217 5.84341 0
M  V30 14657 H 1376.14 -0.479458 2.94118 0
M  V30 14658 H 1373.68 -0.22505 1.45368 0
M  V30 14659 H 1375.63 -2.95946 2.94061 0
M  V30 14660 H 1374.26 -2.65099 1.84181 0
M  V30 14661 H 1373.32 -1.04977 3.65628 0
M  V30 14662 H 1374.63 -1.58607 4.72912 0
M  V30 14663 H 1373.78 -3.93898 4.61442 0
M  V30 14664 H 1372.52 -3.44924 3.44788 0
M  V30 14665 H 1371.53 -1.9038 5.15786 0
M  V30 14666 H 1372.75 -2.42147 6.34462 0
M  V30 14667 H 1370.7 -4.22905 5.01485 0
M  V30 14668 H 1370.61 -3.62177 6.63599 0
M  V30 14669 H 1371.88 -4.72732 6.19794 0
M  V30 14670 N 1376.11 -1.55841 -0.234795 0
M  V30 14671 C 1377.52 -1.68555 -0.802886 0
M  V30 14672 C 1377.87 -0.638107 -1.85533 0
M  V30 14673 O 1377 0.21333 -2.15346 0
M  V30 14674 C 1377.59 -3.0558 -1.46309 0
M  V30 14675 C 1376.15 -3.20192 -1.97874 0
M  V30 14676 C 1375.3 -2.64457 -0.834136 0
M  V30 14677 H 1378.25 -1.58697 -0.0103759 0
M  V30 14678 H 1378.27 -3.007 -2.33152 0
M  V30 14679 H 1377.78 -3.81792 -0.696868 0
M  V30 14680 H 1375.88 -2.48825 -2.77339 0
M  V30 14681 H 1376 -4.27251 -2.1678 0
M  V30 14682 H 1374.36 -2.22593 -1.23791 0
M  V30 14683 H 1375.14 -3.43205 -0.0807988 0
M  V30 14684 N 1377.59 0.500963 -1.49426 0
M  V30 14685 C 1378.52 1.61114 -1.69011 0
M  V30 14686 C 1379.5 1.61341 -0.538813 0
M  V30 14687 O 1380.69 1.78081 -0.77466 0
M  V30 14688 C 1377.82 2.99598 -1.75666 0
M  V30 14689 C 1376.77 3.14236 -2.90585 0
M  V30 14690 C 1376.1 4.54071 -2.82354 0
M  V30 14691 C 1377.4 2.94258 -4.3152 0
M  V30 14692 H 1379.09 1.44978 -2.61957 0
M  V30 14693 H 1376.64 0.69603 -1.26061 0
M  V30 14694 H 1378.59 3.77163 -1.87953 0
M  V30 14695 H 1377.31 3.16822 -0.793186 0
M  V30 14696 H 1375.97 2.39096 -2.779 0
M  V30 14697 H 1375.62 4.68172 -1.83914 0
M  V30 14698 H 1375.32 4.64806 -3.59485 0
M  V30 14699 H 1376.84 5.33696 -2.96649 0
M  V30 14700 H 1378.26 3.61592 -4.44886 0
M  V30 14701 H 1376.65 3.16464 -5.09873 0
M  V30 14702 H 1377.72 1.90383 -4.45962 0
M  V30 14703 N 1379.07 1.38501 0.752011 0
M  V30 14704 C 1380.3 1.38032 1.54125 0
M  V30 14705 C 1380.71 -0.0295066 1.88777 0
M  V30 14706 O 1380.07 -0.996522 1.52891 0
M  V30 14707 C 1380.12 2.23741 2.83941 0
M  V30 14708 O 1379.84 3.59232 2.50767 0
M  V30 14709 C 1381.34 2.31469 3.7807 0
M  V30 14710 H 1378.56 0.472077 0.476848 0
M  V30 14711 H 1381.1 1.82101 0.930572 0
M  V30 14712 H 1379.26 1.8313 3.41383 0
M  V30 14713 H 1379.67 4.04376 3.34036 0
M  V30 14714 H 1381.15 2.95722 4.66103 0
M  V30 14715 H 1381.62 1.32882 4.18616 0
M  V30 14716 H 1382.23 2.72477 3.26552 0
M  V30 14717 N 1380.55 -0.980364 1.23396 0
M  V30 14718 C 1381.49 -2.07275 1.01516 0
M  V30 14719 C 1382.46 -1.65963 -0.0673729 0
M  V30 14720 O 1383.65 -1.90612 0.0847392 0
M  V30 14721 C 1380.79 -3.39621 0.61249 0
M  V30 14722 C 1379.9 -3.94203 1.76715 0
M  V30 14723 C 1379.04 -5.14761 1.31126 0
M  V30 14724 C 1378.07 -5.61509 2.43667 0
M  V30 14725 N 1377.21 -6.73297 1.99035 0
M  V30 14726 H 1382.05 -2.25325 1.9502 0
M  V30 14727 H 1379.59 -1.10452 0.971532 0
M  V30 14728 H 1381.55 -4.15643 0.360126 0
M  V30 14729 H 1380.18 -3.21535 -0.285539 0
M  V30 14730 H 1379.23 -3.14937 2.13352 0
M  V30 14731 H 1380.54 -4.24867 2.61323 0
M  V30 14732 H 1379.69 -5.98115 1.01702 0
M  V30 14733 H 1378.43 -4.85751 0.435555 0
M  V30 14734 H 1377.44 -4.76737 2.73865 0
M  V30 14735 H 1378.66 -5.92539 3.31774 0
M  V30 14736 H 1376.61 -6.46046 1.13845 0
M  V30 14737 H 1376.53 -7.03345 2.77203 0
M  V30 14738 H 1377.79 -7.60125 1.72716 0
M  V30 14739 N 1382.02 -1.04567 -1.17913 0
M  V30 14740 C 1383.25 -0.772146 -1.92491 0
M  V30 14741 C 1383.67 0.665297 -1.75942 0
M  V30 14742 O 1383.03 1.46144 -1.07292 0
M  V30 14743 C 1383.08 -1.14966 -3.41782 0
M  V30 14744 O 1382.18 -0.278091 -4.11461 0
M  V30 14745 H 1381.52 -0.283715 -0.600335 0
M  V30 14746 H 1384.05 -1.39685 -1.49496 0
M  V30 14747 H 1384.06 -1.11374 -3.92505 0
M  V30 14748 H 1382.74 -2.1968 -3.53148 0
M  V30 14749 H 1381.32 -0.374073 -3.71019 0
M  V30 14750 N 1383.5 1.34231 -0.825823 0
M  V30 14751 C 1384.73 2.02124 -0.427727 0
M  V30 14752 C 1385.14 1.62331 0.971869 0
M  V30 14753 O 1384.48 0.825946 1.64085 0
M  V30 14754 C 1384.54 3.56626 -0.453698 0
M  V30 14755 C 1384.21 4.19752 -1.80713 0
M  V30 14756 C 1385.21 4.40062 -2.76842 0
M  V30 14757 C 1382.89 4.5646 -2.09641 0
M  V30 14758 C 1384.88 4.9621 -4.00069 0
M  V30 14759 C 1382.57 5.12318 -3.33127 0
M  V30 14760 C 1383.57 5.32137 -4.28158 0
M  V30 14761 O 1383.26 5.86811 -5.49462 0
M  V30 14762 H 1382.99 0.654389 -0.169563 0
M  V30 14763 H 1385.54 1.72421 -1.11624 0
M  V30 14764 H 1383.77 3.856 0.291527 0
M  V30 14765 H 1385.46 4.0583 -0.075249 0
M  V30 14766 H 1386.23 4.12064 -2.5579 0
M  V30 14767 H 1382.11 4.40337 -1.36473 0
M  V30 14768 H 1385.65 5.11594 -4.74254 0
M  V30 14769 H 1381.55 5.39746 -3.54041 0
M  V30 14770 H 1382.32 6.05242 -5.51022 0
M  V30 14771 N 1384.98 0.581051 1.46498 0
M  V30 14772 C 1385.91 -0.19094 2.28403 0
M  V30 14773 C 1386.92 -0.857039 1.38415 0
M  V30 14774 O 1388.11 -0.726881 1.6303 0
M  V30 14775 C 1385.21 -1.28972 3.134 0
M  V30 14776 C 1384.39 -0.715867 4.31502 0
M  V30 14777 C 1383.45 -1.70215 4.97909 0
M  V30 14778 O 1382.47 -1.23885 5.55555 0
M  V30 14779 N 1383.67 -3.0362 4.94768 0
M  V30 14780 H 1386.44 0.511754 2.95298 0
M  V30 14781 H 1384 0.41871 1.56392 0
M  V30 14782 H 1385.99 -1.94877 3.5469 0
M  V30 14783 H 1384.56 -1.8953 2.4859 0
M  V30 14784 H 1383.78 0.120591 3.94016 0
M  V30 14785 H 1385.07 -0.312226 5.07841 0
M  V30 14786 H 1384.47 -3.43885 4.49177 0
M  V30 14787 H 1383.02 -3.65018 5.40005 0
M  V30 14788 N 1386.46 -1.54343 0.318742 0
M  V30 14789 C 1387.71 -2.00084 -0.284713 0
M  V30 14790 C 1388.03 -1.20855 -1.53033 0
M  V30 14791 O 1387.3 -0.309104 -1.93446 0
M  V30 14792 H 1385.88 -0.739123 -0.108193 0
M  V30 14793 H 1388.54 -1.90002 0.434174 0
M  V30 14794 H 1387.63 -3.07314 -0.544459 0
M  V30 14795 N 1387.94 -0.0468143 -1.5753 0
M  V30 14796 C 1389.16 0.641161 -1.97241 0
M  V30 14797 C 1389.59 1.6384 -0.92401 0
M  V30 14798 O 1388.94 1.80946 0.113229 0
M  V30 14799 C 1388.99 1.30832 -3.36029 0
M  V30 14800 O 1388.1 2.42394 -3.33645 0
M  V30 14801 H 1387.44 0.167035 -0.642647 0
M  V30 14802 H 1389.97 -0.113921 -2.04283 0
M  V30 14803 H 1389.98 1.66102 -3.72658 0
M  V30 14804 H 1388.65 0.57744 -4.11872 0
M  V30 14805 H 1387.23 2.09104 -3.08756 0
M  V30 14806 N 1389.41 1.55964 0.226527 0
M  V30 14807 C 1390.66 1.78392 0.94977 0
M  V30 14808 C 1390.98 0.614444 1.85066 0
M  V30 14809 O 1390.25 -0.368894 1.92395 0
M  V30 14810 H 1388.83 0.657962 0.353688 0
M  V30 14811 H 1391.5 1.93422 0.239577 0
M  V30 14812 H 1390.59 2.70343 1.55952 0
M  V30 14813 N 1390.89 -0.493031 1.4969 0
M  V30 14814 C 1391.84 -1.59367 1.66945 0
M  V30 14815 C 1392.81 -1.58049 0.510842 0
M  V30 14816 O 1393.99 -1.75915 0.738822 0
M  V30 14817 C 1391.13 -2.97472 1.74941 0
M  V30 14818 C 1390.25 -3.08745 3.02159 0
M  V30 14819 C 1389.38 -4.37632 3.01085 0
M  V30 14820 C 1388.42 -4.42567 4.22849 0
M  V30 14821 N 1387.56 -5.62892 4.19639 0
M  V30 14822 H 1392.4 -1.4396 2.6092 0
M  V30 14823 H 1389.94 -0.700297 1.29361 0
M  V30 14824 H 1391.89 -3.7753 1.77558 0
M  V30 14825 H 1390.52 -3.11564 0.844252 0
M  V30 14826 H 1389.58 -2.217 3.09117 0
M  V30 14827 H 1390.89 -3.08251 3.92151 0
M  V30 14828 H 1390.04 -5.26018 3.02309 0
M  V30 14829 H 1388.78 -4.40702 2.08885 0
M  V30 14830 H 1387.79 -3.52581 4.21861 0
M  V30 14831 H 1389.01 -4.41205 5.1625 0
M  V30 14832 H 1386.96 -5.6679 3.30281 0
M  V30 14833 H 1386.87 -5.64048 5.03374 0
M  V30 14834 H 1388.14 -6.53464 4.24977 0
M  V30 14835 N 1392.37 -1.38898 -0.744656 0
M  V30 14836 C 1393.6 -1.3903 -1.53901 0
M  V30 14837 C 1394.02 0.0156607 -1.88093 0
M  V30 14838 O 1393.38 1.00012 -1.51219 0
M  V30 14839 C 1393.43 -2.2609 -2.80919 0
M  V30 14840 O 1392.53 -1.68414 -3.76444 0
M  V30 14841 H 1391.87 -0.473854 -0.465144 0
M  V30 14842 H 1394.4 -1.82773 -0.919525 0
M  V30 14843 H 1394.41 -2.40264 -3.29754 0
M  V30 14844 H 1393.09 -3.28271 -2.55364 0
M  V30 14845 H 1391.66 -1.63431 -3.35179 0
M  V30 14846 N 1393.85 0.973806 -1.23914 0
M  V30 14847 C 1394.78 2.08526 -1.05068 0
M  V30 14848 C 1395.76 1.70065 0.0344761 0
M  V30 14849 O 1396.94 1.93755 -0.131432 0
M  V30 14850 C 1394.07 3.41198 -0.648165 0
M  V30 14851 C 1393.03 3.9359 -1.6814 0
M  V30 14852 C 1392.35 5.22534 -1.13414 0
M  V30 14853 C 1393.65 4.22116 -3.07597 0
M  V30 14854 H 1395.35 2.24551 -1.98034 0
M  V30 14855 H 1392.89 1.07905 -0.953546 0
M  V30 14856 H 1394.85 4.18383 -0.50334 0
M  V30 14857 H 1393.57 3.25056 0.317182 0
M  V30 14858 H 1392.23 3.18555 -1.81434 0
M  V30 14859 H 1391.88 5.02747 -0.159578 0
M  V30 14860 H 1391.58 5.58555 -1.82456 0
M  V30 14861 H 1393.1 6.02334 -1.0013 0
M  V30 14862 H 1394.52 4.90027 -2.97567 0
M  V30 14863 H 1392.91 4.69352 -3.73937 0
M  V30 14864 H 1393.98 3.29128 -3.56094 0
M  V30 14865 N 1395.33 1.05191 1.17357 0
M  V30 14866 C 1396.55 0.782373 1.91537 0
M  V30 14867 C 1396.97 -0.661935 1.76816 0
M  V30 14868 O 1396.33 -1.45221 1.10531 0
M  V30 14869 C 1396.38 1.15357 3.426 0
M  V30 14870 O 1396.1 2.54119 3.56869 0
M  V30 14871 C 1397.6 0.910167 4.33856 0
M  V30 14872 H 1394.82 0.284461 0.607719 0
M  V30 14873 H 1397.36 1.40259 1.48821 0
M  V30 14874 H 1395.52 0.578107 3.83062 0
M  V30 14875 H 1395.93 2.68668 4.50464 0
M  V30 14876 H 1397.41 1.21964 5.38358 0
M  V30 14877 H 1397.88 -0.154624 4.38928 0
M  V30 14878 H 1398.49 1.46947 3.99107 0
M  V30 14879 N 1396.8 -1.33791 0.83293 0
M  V30 14880 C 1398.05 -1.97973 0.425781 0
M  V30 14881 C 1398.38 -1.66003 -1.01357 0
M  V30 14882 O 1397.63 -0.929016 -1.72243 0
M  V30 14883 C 1397.93 -3.52555 0.586485 0
M  V30 14884 C 1397.6 -4.04461 1.99304 0
M  V30 14885 C 1396.26 -4.18347 2.37779 0
M  V30 14886 C 1398.61 -4.3226 2.91206 0
M  V30 14887 C 1395.94 -4.57364 3.67471 0
M  V30 14888 C 1398.29 -4.72727 4.20371 0
M  V30 14889 C 1396.96 -4.84819 4.5881 0
M  V30 14890 H 1396.23 -0.724435 0.155804 0
M  V30 14891 H 1398.87 -1.59567 1.05881 0
M  V30 14892 H 1397.18 -3.91585 -0.129885 0
M  V30 14893 H 1398.88 -4.00208 0.251835 0
M  V30 14894 H 1395.47 -3.94122 1.68421 0
M  V30 14895 H 1399.65 -4.2106 2.6272 0
M  V30 14896 H 1394.91 -4.64918 3.97065 0
M  V30 14897 H 1399.08 -4.93194 4.91663 0
M  V30 14898 H 1396.71 -5.14809 5.59353 0
M  V30 14899 N 1398.28 -0.588812 -1.46187 0
M  V30 14900 C 1399.51 -0.0806571 -2.07243 0
M  V30 14901 C 1399.93 1.21766 -1.43369 0
M  V30 14902 O 1399.29 1.73694 -0.51964 0
M  V30 14903 C 1399.34 0.065267 -3.60541 0
M  V30 14904 O 1398.44 1.12026 -3.96893 0
M  V30 14905 H 1397.78 -0.0655622 -0.660755 0
M  V30 14906 H 1400.31 -0.813489 -1.87733 0
M  V30 14907 H 1400.32 0.269494 -4.07109 0
M  V30 14908 H 1399 -0.88284 -4.06422 0
M  V30 14909 H 1397.58 0.894 -3.62025 0
M  V30 14910 N 1399.76 1.54172 -0.326923 0
M  V30 14911 C 1401.04 1.92812 0.329078 0
M  V30 14912 C 1401.42 1.25687 1.69605 0
M  V30 14913 O 1400.77 0.401779 2.2494 0
M  V30 14914 C 1400.98 3.46488 0.417949 0
M  V30 14915 C 1402.32 4.19174 0.67665 0
M  V30 14916 O 1403.35 3.52663 0.500735 0
M  V30 14917 O 1402.21 5.36968 1.01625 0
M  V30 14918 H 1399.3 0.805214 0.188573 0
M  V30 14919 H 1401.85 1.65462 -0.376884 0
M  V30 14920 H 1400.62 3.87528 -0.541986 0
M  V30 14921 H 1400.24 3.79954 1.17136 0
M  V30 14922 N 1401.24 0.0551678 1.57503 0
M  V30 14923 C 1402.47 -0.6272 1.97164 0
M  V30 14924 C 1402.88 -1.64143 0.932876 0
M  V30 14925 O 1402.24 -1.82314 -0.0824465 0
M  V30 14926 C 1402.29 -1.31057 3.36907 0
M  V30 14927 O 1402.01 -0.336951 4.36802 0
M  V30 14928 C 1403.51 -2.08232 3.91349 0
M  V30 14929 H 1400.73 -0.171196 0.648793 0
M  V30 14930 H 1403.28 0.122651 2.04132 0
M  V30 14931 H 1401.43 -2.01162 3.31078 0
M  V30 14932 H 1401.84 -0.825204 5.17968 0
M  V30 14933 H 1403.32 -2.51463 4.91397 0
M  V30 14934 H 1403.8 -2.93212 3.26991 0
M  V30 14935 H 1404.4 -1.43029 4.00528 0
M  V30 14936 N 1402.72 -1.56081 -0.218252 0
M  V30 14937 C 1403.94 -1.83681 -0.963119 0
M  V30 14938 C 1404.37 -0.635909 -1.77025 0
M  V30 14939 O 1403.72 0.415327 -1.76479 0
M  V30 14940 C 1403.77 -3.09302 -1.85376 0
M  V30 14941 O 1402.88 -2.88228 -2.94955 0
M  V30 14942 H 1402.22 -0.605495 -0.272529 0
M  V30 14943 H 1404.75 -2.03297 -0.230567 0
M  V30 14944 H 1404.76 -3.39493 -2.26294 0
M  V30 14945 H 1403.43 -3.96337 -1.26054 0
M  V30 14946 H 1402.01 -2.69279 -2.57959 0
M  V30 14947 N 1404.2 0.485086 -1.49949 0
M  V30 14948 C 1405.42 1.26179 -1.63971 0
M  V30 14949 C 1405.84 1.86113 -0.317408 0
M  V30 14950 O 1405.2 1.68581 0.699038 0
M  V30 14951 C 1405.25 2.38062 -2.72046 0
M  V30 14952 O 1404.97 1.80588 -3.99149 0
M  V30 14953 C 1406.47 3.29174 -2.96916 0
M  V30 14954 H 1403.69 0.382122 -0.551565 0
M  V30 14955 H 1406.23 0.580607 -1.96085 0
M  V30 14956 H 1404.39 3.0198 -2.42666 0
M  V30 14957 H 1404.8 2.54159 -4.58807 0
M  V30 14958 H 1406.28 4.03922 -3.76233 0
M  V30 14959 H 1406.75 3.87123 -2.07443 0
M  V30 14960 H 1407.36 2.71006 -3.27774 0
M  V30 14961 N 1405.67 1.39291 0.737279 0
M  V30 14962 C 1406.62 1.37829 1.85127 0
M  V30 14963 C 1407.59 0.238321 1.64381 0
M  V30 14964 O 1408.78 0.433081 1.8582 0
M  V30 14965 C 1405.92 1.22531 3.22615 0
M  V30 14966 C 1405.03 2.46052 3.55081 0
M  V30 14967 C 1404.16 2.2336 4.81958 0
M  V30 14968 C 1403.2 3.42569 5.0726 0
M  V30 14969 N 1402.34 3.19209 6.2534 0
M  V30 14970 H 1407.18 2.33056 1.85712 0
M  V30 14971 H 1404.72 1.15772 0.907484 0
M  V30 14972 H 1406.67 1.11673 4.01976 0
M  V30 14973 H 1405.3 0.30934 3.21314 0
M  V30 14974 H 1404.36 2.67521 2.70438 0
M  V30 14975 H 1405.67 3.3485 3.69698 0
M  V30 14976 H 1404.82 2.09732 5.69295 0
M  V30 14977 H 1403.56 1.31953 4.6951 0
M  V30 14978 H 1402.57 3.56698 4.18386 0
M  V30 14979 H 1403.79 4.34874 5.21595 0
M  V30 14980 H 1401.74 2.30464 6.14184 0
M  V30 14981 H 1401.65 4.01562 6.40534 0
M  V30 14982 H 1402.92 3.09269 7.15523 0
M  V30 14983 N 1407.15 -0.967221 1.24429 0
M  V30 14984 C 1408.38 -1.7452 1.11133 0
M  V30 14985 C 1408.79 -1.85785 -0.336087 0
M  V30 14986 O 1408.15 -1.34652 -1.23188 0
M  V30 14987 C 1408.2 -3.16544 1.74591 0
M  V30 14988 O 1407.92 -3.05845 3.13673 0
M  V30 14989 C 1409.42 -4.10677 1.6691 0
M  V30 14990 H 1406.64 -0.547267 0.388253 0
M  V30 14991 H 1409.19 -1.2143 1.64545 0
M  V30 14992 H 1407.34 -3.66618 1.2518 0
M  V30 14993 H 1407.76 -3.95346 3.44676 0
M  V30 14994 H 1409.23 -5.07987 2.15992 0
M  V30 14995 H 1409.71 -4.34652 0.630411 0
M  V30 14996 H 1410.31 -3.66514 2.15749 0
M  V30 14997 N 1408.63 -1.05812 -1.16797 0
M  V30 14998 C 1409.56 -0.685778 -2.23202 0
M  V30 14999 C 1410.54 0.319428 -1.67074 0
M  V30 15000 O 1411.73 0.195635 -1.93212 0
M  V30 15001 C 1408.86 -0.0662958 -3.47237 0
M  V30 15002 C 1407.81 -0.996943 -4.16227 0
M  V30 15003 C 1407.14 -0.241015 -5.34157 0
M  V30 15004 C 1408.44 -2.32384 -4.67755 0
M  V30 15005 H 1410.13 -1.57535 -2.54604 0
M  V30 15006 H 1407.68 -0.758909 -1.22379 0
M  V30 15007 H 1409.63 0.206024 -4.20896 0
M  V30 15008 H 1408.35 0.858263 -3.15121 0
M  V30 15009 H 1407.01 -1.25393 -3.44488 0
M  V30 15010 H 1406.66 0.686508 -4.98293 0
M  V30 15011 H 1406.36 -0.861188 -5.81255 0
M  V30 15012 H 1407.88 0.0238739 -6.10595 0
M  V30 15013 H 1409.3 -2.11099 -5.3302 0
M  V30 15014 H 1407.69 -2.89855 -5.25456 0
M  V30 15015 H 1408.76 -2.958 -3.84227 0
M  V30 15016 N 1410.11 1.33347 -0.840014 0
M  V30 15017 C 1411.34 2.01659 -0.449141 0
M  V30 15018 C 1411.75 1.63353 0.954597 0
M  V30 15019 O 1411.09 0.843303 1.632 0
M  V30 15020 C 1411.15 3.56124 -0.491497 0
M  V30 15021 C 1410.81 4.17812 -1.85155 0
M  V30 15022 C 1411.81 4.37101 -2.81494 0
M  V30 15023 C 1409.5 4.54211 -2.1447 0
M  V30 15024 C 1411.49 4.91938 -4.05309 0
M  V30 15025 C 1409.18 5.08756 -3.38542 0
M  V30 15026 C 1410.18 5.27566 -4.33778 0
M  V30 15027 O 1409.86 5.8095 -5.55655 0
M  V30 15028 H 1409.6 0.652553 -0.176494 0
M  V30 15029 H 1412.15 1.71228 -1.13447 0
M  V30 15030 H 1410.38 3.85887 0.250613 0
M  V30 15031 H 1412.07 4.05728 -0.118288 0
M  V30 15032 H 1412.83 4.09328 -2.60146 0
M  V30 15033 H 1408.71 4.38864 -1.41135 0
M  V30 15034 H 1412.26 5.06536 -4.79654 0
M  V30 15035 H 1408.15 5.3596 -3.59746 0
M  V30 15036 H 1408.92 5.99363 -5.5741 0
M  V30 15037 N 1411.59 0.596556 1.45873 0
M  V30 15038 C 1412.53 -0.141327 2.3217 0
M  V30 15039 C 1413.53 -0.870652 1.45314 0
M  V30 15040 O 1414.73 -0.787469 1.61861 0
M  V30 15041 H 1411.11 -0.0644404 0.749234 0
M  V30 15042 H 1413.08 0.605115 2.922 0
M  V30 15043 C 1411.83 -1.13261 3.28736 0
M  V30 15044 H 1411.15 -0.580835 3.95558 0
M  V30 15045 H 1412.59 -1.61904 3.91871 0
M  V30 15046 C 1411.05 -2.20062 2.55097 0
M  V30 15047 O 1411.58 -3.27634 2.3242 0
M  V30 15048 N 1409.79 -1.95044 2.15421 0
M  V30 15049 H 1409.33 -1.07573 2.34064 0
M  V30 15050 H 1409.29 -2.66711 1.66472 0
M  V30 15051 N 1413.06 -1.53996 0.335095 0
M  V30 15052 C 1414.31 -2.01069 -0.264388 0
M  V30 15053 C 1414.64 -1.22271 -1.50876 0
M  V30 15054 O 1413.92 -0.30806 -1.92045 0
M  V30 15055 C 1414.2 -3.55283 -0.587 0
M  V30 15056 C 1414.05 -4.44799 0.668877 0
M  V30 15057 C 1415.37 -4.17238 -1.40003 0
M  V30 15058 H 1412.49 -0.730901 -0.0946202 0
M  V30 15059 H 1415.13 -1.84497 0.453958 0
M  V30 15060 H 1413.28 -3.69536 -1.19899 0
M  V30 15061 H 1414.96 -4.42398 1.30698 0
M  V30 15062 H 1413.2 -4.14005 1.29547 0
M  V30 15063 H 1413.87 -5.5056 0.398523 0
M  V30 15064 H 1416.35 -4.06631 -0.88262 0
M  V30 15065 H 1415.22 -5.2523 -1.59451 0
M  V30 15066 H 1415.48 -3.71309 -2.39962 0
M  V30 15067 N 1414.54 -0.0635198 -1.57472 0
M  V30 15068 C 1415.45 0.921531 -2.15743 0
M  V30 15069 C 1416.47 1.33294 -1.11842 0
M  V30 15070 O 1417.64 1.40733 -1.4407 0
M  V30 15071 C 1414.71 2.17378 -2.70088 0
M  V30 15072 C 1413.77 1.81956 -3.88832 0
M  V30 15073 C 1413 3.01211 -4.40577 0
M  V30 15074 O 1413.23 4.14971 -3.9135 0
M  V30 15075 O 1412.16 2.81507 -5.32012 0
M  V30 15076 H 1415.99 0.455899 -3.00259 0
M  V30 15077 H 1413.57 0.159085 -1.48551 0
M  V30 15078 H 1415.45 2.90826 -3.04956 0
M  V30 15079 H 1414.13 2.63055 -1.88637 0
M  V30 15080 H 1413.03 1.05786 -3.58832 0
M  V30 15081 H 1414.37 1.41069 -4.71551 0
M  V30 15082 N 1416.02 1.56195 0.209972 0
M  V30 15083 C 1416.93 1.96539 1.28101 0
M  V30 15084 C 1417.95 0.870858 1.50639 0
M  V30 15085 O 1419.12 1.17539 1.63544 0
M  V30 15086 C 1416.19 2.28392 2.60841 0
M  V30 15087 C 1415.25 3.51474 2.46505 0
M  V30 15088 C 1414.48 3.81798 3.72915 0
M  V30 15089 O 1414.7 3.13627 4.76439 0
M  V30 15090 O 1413.64 4.75264 3.69334 0
M  V30 15091 H 1417.46 2.87838 0.968671 0
M  V30 15092 H 1415.05 1.43556 0.413777 0
M  V30 15093 H 1416.93 2.50022 3.39215 0
M  V30 15094 H 1415.61 1.40264 2.91732 0
M  V30 15095 H 1414.51 3.35109 1.66292 0
M  V30 15096 H 1415.85 4.40021 2.2055 0
M  V30 15097 N 1417.5 -0.477127 1.50204 0
M  V30 15098 C 1418.41 -1.60182 1.71403 0
M  V30 15099 C 1419.42 -1.63437 0.597009 0
M  V30 15100 O 1420.6 -1.81418 0.874614 0
M  V30 15101 C 1417.66 -2.96432 1.79802 0
M  V30 15102 C 1416.73 -3.03614 3.03508 0
M  V30 15103 C 1415.96 -4.33365 3.11497 0
M  V30 15104 O 1416.18 -5.23529 2.26438 0
M  V30 15105 O 1415.12 -4.46013 4.04173 0
M  V30 15106 H 1418.94 -1.45221 2.66729 0
M  V30 15107 H 1416.53 -0.655982 1.34228 0
M  V30 15108 H 1418.41 -3.77367 1.87542 0
M  V30 15109 H 1417.08 -3.11605 0.876581 0
M  V30 15110 H 1415.99 -2.21779 3.01272 0
M  V30 15111 H 1417.32 -2.93376 3.95211 0
M  V30 15112 N 1418.98 -1.3968 -0.729882 0
M  V30 15113 C 1419.89 -1.41094 -1.87429 0
M  V30 15114 C 1420.9 -0.305142 -1.71303 0
M  V30 15115 O 1422.08 -0.54744 -1.93817 0
M  V30 15116 C 1419.14 -1.25786 -3.23077 0
M  V30 15117 C 1418.2 -2.46382 -3.5156 0
M  V30 15118 C 1417.44 -2.31795 -4.80735 0
M  V30 15119 O 1417.66 -1.32415 -5.54818 0
M  V30 15120 O 1416.59 -3.20883 -5.09232 0
M  V30 15121 H 1420.42 -2.37571 -1.89192 0
M  V30 15122 H 1418.01 -1.2085 -0.878389 0
M  V30 15123 H 1419.89 -1.19402 -4.0413 0
M  V30 15124 H 1418.56 -0.324065 -3.22074 0
M  V30 15125 H 1417.47 -2.58343 -2.70573 0
M  V30 15126 H 1418.8 -3.38473 -3.57347 0
M  V30 15127 N 1420.45 0.960609 -1.2494 0
M  V30 15128 C 1421.73 1.68035 -1.00118 0
M  V30 15129 C 1422.11 2.057 0.474399 0
M  V30 15130 O 1421.46 1.76569 1.45036 0
M  V30 15131 C 1421.67 2.90708 -1.93106 0
M  V30 15132 C 1423.02 3.62792 -2.20606 0
M  V30 15133 O 1424.04 3.00778 -1.90816 0
M  V30 15134 O 1422.9 4.74443 -2.71231 0
M  V30 15135 H 1419.99 0.734939 -0.379202 0
M  V30 15136 H 1422.54 1.01407 -1.36069 0
M  V30 15137 H 1421.31 2.59619 -2.92769 0
M  V30 15138 H 1420.94 3.65068 -1.57515 0
M  V30 15139 N 1421.93 1.0643 1.16234 0
M  V30 15140 C 1422.9 0.680383 2.18869 0
M  V30 15141 C 1423.9 -0.274591 1.58438 0
M  V30 15142 O 1425.09 -0.0567907 1.74107 0
M  V30 15143 C 1422.22 0.00134091 3.409 0
M  V30 15144 H 1423.41 1.58894 2.54347 0
M  V30 15145 H 1420.96 0.859688 1.30534 0
M  V30 15146 H 1421.7 -0.919903 3.1098 0
M  V30 15147 H 1421.48 0.688057 3.86016 0
M  V30 15148 H 1422.97 -0.252938 4.16833 0
M  V30 15149 N 1423.41 -1.329 0.847073 0
M  V30 15150 C 1424.34 -2.27903 0.243522 0
M  V30 15151 C 1425.36 -1.52101 -0.58043 0
M  V30 15152 O 1426.54 -1.73818 -0.406158 0
M  V30 15153 C 1423.64 -3.32107 -0.675118 0
M  V30 15154 C 1422.82 -4.37258 0.111305 0
M  V30 15155 C 1421.88 -5.21085 -0.731933 0
M  V30 15156 O 1420.9 -5.68951 -0.168176 0
M  V30 15157 N 1422.1 -5.43175 -2.04794 0
M  V30 15158 H 1424.87 -2.80335 1.05983 0
M  V30 15159 H 1422.43 -1.4568 0.706322 0
M  V30 15160 H 1424.42 -3.85093 -1.2444 0
M  V30 15161 H 1422.99 -2.79891 -1.39212 0
M  V30 15162 H 1422.21 -3.8466 0.861991 0
M  V30 15163 H 1423.5 -5.04608 0.651756 0
M  V30 15164 H 1422.9 -5.06002 -2.5294 0
M  V30 15165 H 1421.46 -5.99186 -2.56552 0
M  V30 15166 N 1424.89 -0.604284 -1.45555 0
M  V30 15167 C 1426.3 -0.183613 -1.85795 0
M  V30 15168 C 1426.65 1.25869 -1.50504 0
M  V30 15169 O 1425.78 1.9539 -0.930148 0
M  V30 15170 C 1426.37 -0.326455 -3.37224 0
M  V30 15171 C 1424.93 0.0394987 -3.76379 0
M  V30 15172 C 1424.08 -0.65243 -2.69516 0
M  V30 15173 H 1427.03 -0.811173 -1.36403 0
M  V30 15174 H 1427.05 0.442258 -3.77921 0
M  V30 15175 H 1426.56 -1.37627 -3.62878 0
M  V30 15176 H 1424.66 1.08862 -3.56342 0
M  V30 15177 H 1424.77 -0.35185 -4.77806 0
M  V30 15178 H 1423.14 -0.0904148 -2.54539 0
M  V30 15179 H 1423.92 -1.70432 -2.98007 0
M  V30 15180 N 1426.37 1.53816 -0.343257 0
M  V30 15181 C 1427.62 2.0009 0.254346 0
M  V30 15182 C 1427.93 1.23502 1.51679 0
M  V30 15183 O 1429.13 1.60251 2.19162 0
M  V30 15184 C 1427.59 3.56357 0.503775 0
M  V30 15185 C 1427.2 4.418 -0.742754 0
M  V30 15186 C 1428.94 4.11046 1.06025 0
M  V30 15187 C 1426.85 5.89576 -0.46414 0
M  V30 15188 H 1425.78 0.747496 0.0988189 0
M  V30 15189 H 1428.43 1.77679 -0.45854 0
M  V30 15190 H 1426.81 3.74833 1.27736 0
M  V30 15191 H 1427.99 4.35099 -1.51742 0
M  V30 15192 H 1426.3 3.98101 -1.22085 0
M  V30 15193 H 1428.9 5.19063 1.28365 0
M  V30 15194 H 1429.24 3.64247 2.01568 0
M  V30 15195 H 1429.77 3.9628 0.347384 0
M  V30 15196 H 1426.51 6.40608 -1.38928 0
M  V30 15197 H 1426.03 5.99181 0.272441 0
M  V30 15198 H 1427.71 6.46949 -0.0812761 0
M  V30 15199 N 1427.84 0.0718701 1.57436 0
M  V30 15200 C 1429.26 -0.28476 1.57039 0
M  V30 15201 C 1429.46 -1.70032 1.08127 0
M  V30 15202 O 1428.52 -2.41191 0.747189 0
M  V30 15203 C 1429.83 -0.0943482 3.00552 0
M  V30 15204 C 1431.38 -0.163879 3.12571 0
M  V30 15205 C 1431.85 -0.00174658 4.58 0
M  V30 15206 N 1433.34 -0.0573489 4.63164 0
M  V30 15207 C 1434.08 0.0436849 5.73383 0
M  V30 15208 N 1433.57 0.198243 6.92516 0
M  V30 15209 N 1435.37 -0.0133856 5.62098 0
M  V30 15210 H 1427.52 0.99702 1.87545 0
M  V30 15211 H 1429.78 0.388822 0.864593 0
M  V30 15212 H 1429.49 0.882445 3.40449 0
M  V30 15213 H 1429.36 -0.846636 3.67576 0
M  V30 15214 H 1431.75 -1.13116 2.7256 0
M  V30 15215 H 1431.83 0.619513 2.48185 0
M  V30 15216 H 1431.47 0.9623 4.98701 0
M  V30 15217 H 1431.4 -0.804543 5.20418 0
M  V30 15218 H 1433.89 -0.175212 3.77494 0
M  V30 15219 H 1434.21 0.267479 7.72337 0
M  V30 15220 H 1432.55 0.233606 6.94607 0
M  V30 15221 H 1435.74 -0.132835 4.67911 0
M  V30 15222 H 1435.92 0.0688076 6.47963 0
M  V30 15223 N 1429.32 -1.56304 -0.201686 0
M  V30 15224 C 1430.57 -1.80237 -0.923093 0
M  V30 15225 C 1430.9 -0.643994 -1.83529 0
M  V30 15226 O 1430.15 0.370613 -1.92159 0
M  V30 15227 C 1430.45 -3.10101 -1.77686 0
M  V30 15228 C 1430.12 -4.393 -1.0162 0
M  V30 15229 C 1428.78 -4.74399 -0.806161 0
M  V30 15230 C 1431.13 -5.1898 -0.480515 0
M  V30 15231 C 1428.46 -5.8668 -0.0488423 0
M  V30 15232 C 1430.81 -6.32051 0.26356 0
M  V30 15233 C 1429.48 -6.65738 0.484679 0
M  V30 15234 H 1428.75 -0.659533 -0.337784 0
M  V30 15235 H 1431.39 -1.90556 -0.189895 0
M  V30 15236 H 1429.7 -2.9499 -2.57853 0
M  V30 15237 H 1431.39 -3.25823 -2.33753 0
M  V30 15238 H 1427.98 -4.11751 -1.18992 0
M  V30 15239 H 1432.17 -4.92283 -0.630208 0
M  V30 15240 H 1427.42 -6.11256 0.13251 0
M  V30 15241 H 1431.6 -6.93012 0.686058 0
M  V30 15242 H 1429.23 -7.52583 1.07341 0
M  V30 15243 N 1430.8 0.469154 -1.50455 0
M  V30 15244 C 1432.03 1.24899 -1.65575 0
M  V30 15245 C 1432.45 1.85009 -0.339581 0
M  V30 15246 O 1431.81 1.67376 0.696774 0
M  V30 15247 C 1431.86 2.33205 -2.75041 0
M  V30 15248 O 1430.96 3.37898 -2.36429 0
M  V30 15249 H 1430.3 0.367362 -0.553119 0
M  V30 15250 H 1432.83 0.558083 -1.96842 0
M  V30 15251 H 1432.84 2.78487 -2.98176 0
M  V30 15252 H 1431.52 1.88826 -3.70564 0
M  V30 15253 H 1430.09 2.98314 -2.23748 0
M  V30 15254 N 1432.28 1.40065 0.722464 0
M  V30 15255 C 1433.69 1.33876 1.30131 0
M  V30 15256 C 1434.04 0.00899369 1.96198 0
M  V30 15257 O 1433.17 -0.893082 1.97112 0
M  V30 15258 C 1433.76 2.42469 2.36631 0
M  V30 15259 C 1432.32 2.39762 2.90157 0
M  V30 15260 C 1431.47 2.23704 1.63865 0
M  V30 15261 H 1434.42 1.49971 0.519077 0
M  V30 15262 H 1434.44 2.0998 3.17315 0
M  V30 15263 H 1433.95 3.39239 1.88517 0
M  V30 15264 H 1432.05 1.46669 3.42519 0
M  V30 15265 H 1432.16 3.35092 3.42419 0
M  V30 15266 H 1430.53 1.71098 1.88674 0
M  V30 15267 H 1431.31 3.22462 1.17785 0
M  V30 15268 N 1433.76 -0.95397 1.25448 0
M  V30 15269 C 1435.17 -1.51337 1.09335 0
M  V30 15270 C 1435.52 -1.93393 -0.330698 0
M  V30 15271 O 1434.64 -1.78681 -1.22074 0
M  V30 15272 C 1435.24 -2.75024 1.97857 0
M  V30 15273 C 1433.8 -3.27274 1.85927 0
M  V30 15274 C 1432.95 -2.00108 1.91969 0
M  V30 15275 H 1435.9 -0.770795 1.38724 0
M  V30 15276 H 1435.92 -3.48867 1.51894 0
M  V30 15277 H 1435.43 -2.44383 3.01494 0
M  V30 15278 H 1433.53 -3.62734 0.851767 0
M  V30 15279 H 1433.64 -3.95245 2.70773 0
M  V30 15280 H 1432.01 -2.15438 1.35862 0
M  V30 15281 H 1432.79 -1.71816 2.97211 0
M  V30 15282 N 1435.24 -1.07045 -1.15668 0
M  V30 15283 C 1436.48 -0.790172 -1.86013 0
M  V30 15284 C 1436.8 0.685663 -1.82548 0
M  V30 15285 O 1436.07 1.49644 -1.26426 0
M  V30 15286 H 1434.65 -0.28931 -0.688701 0
M  V30 15287 H 1437.32 -1.35354 -1.40233 0
M  V30 15288 H 1436.41 -1.1219 -2.91239 0
M  V30 15289 N 1436.71 1.32449 -0.85411 0
M  V30 15290 C 1437.94 2.01997 -0.470307 0
M  V30 15291 C 1438.36 1.63772 0.925225 0
M  V30 15292 O 1437.72 0.838089 1.60766 0
M  V30 15293 C 1437.77 3.55294 -0.616301 0
M  V30 15294 O 1436.87 4.10902 0.351133 0
M  V30 15295 H 1436.21 0.63651 -0.189079 0
M  V30 15296 H 1438.74 1.69008 -1.15315 0
M  V30 15297 H 1438.75 4.0488 -0.503624 0
M  V30 15298 H 1437.43 3.82459 -1.63396 0
M  V30 15299 H 1436.01 3.72391 0.194741 0
M  V30 15300 N 1438.19 0.611994 1.45232 0
M  V30 15301 C 1439.6 0.193464 1.85695 0
M  V30 15302 C 1439.95 -1.25069 1.5117 0
M  V30 15303 O 1439.08 -1.94894 0.940497 0
M  V30 15304 C 1439.67 0.344334 3.37046 0
M  V30 15305 C 1438.23 -0.0195378 3.76395 0
M  V30 15306 C 1437.38 0.666714 2.69166 0
M  V30 15307 H 1440.33 0.818395 1.35971 0
M  V30 15308 H 1440.35 -0.422209 3.7815 0
M  V30 15309 H 1439.86 1.3955 3.62143 0
M  V30 15310 H 1437.96 -1.06971 3.56915 0
M  V30 15311 H 1438.08 0.377184 4.77613 0
M  V30 15312 H 1436.44 0.103912 2.54488 0
M  V30 15313 H 1437.22 1.7201 2.97099 0
M  V30 15314 N 1439.67 -1.53632 0.351409 0
M  V30 15315 C 1440.89 -2.0593 -0.246501 0
M  V30 15316 C 1441.32 -1.22419 -1.42812 0
M  V30 15317 O 1440.68 -0.239811 -1.79707 0
M  V30 15318 C 1440.73 -3.55021 -0.631862 0
M  V30 15319 O 1439.83 -3.74317 -1.73092 0
M  V30 15320 H 1439.17 -0.662839 -0.0392424 0
M  V30 15321 H 1441.7 -1.98196 0.507904 0
M  V30 15322 H 1441.71 -3.97795 -0.906831 0
M  V30 15323 H 1440.39 -4.15251 0.232224 0
M  V30 15324 H 1438.96 -3.43444 -1.4526 0
M  V30 15325 N 1441.15 -0.0802183 -1.57396 0
M  V30 15326 C 1442.08 0.920242 -2.08822 0
M  V30 15327 C 1443.06 1.2858 -0.995281 0
M  V30 15328 O 1444.24 1.39364 -1.26925 0
M  V30 15329 C 1441.37 2.22589 -2.55288 0
M  V30 15330 C 1440.42 2.01128 -3.76098 0
M  V30 15331 S 1441.25 1.2629 -5.20395 0
M  V30 15332 C 1442.4 2.58116 -5.70199 0
M  V30 15333 H 1442.64 0.482685 -2.93355 0
M  V30 15334 H 1440.17 0.13274 -1.53828 0
M  V30 15335 H 1442.13 2.97625 -2.82718 0
M  V30 15336 H 1440.79 2.63468 -1.71008 0
M  V30 15337 H 1439.98 2.97775 -4.06628 0
M  V30 15338 H 1439.58 1.34225 -3.49084 0
M  V30 15339 H 1441.88 3.54166 -5.77558 0
M  V30 15340 H 1442.82 2.32185 -6.68951 0
M  V30 15341 H 1443.23 2.65707 -4.98056 0
M  V30 15342 N 1442.63 1.56409 0.193394 0
M  V30 15343 C 1443.87 1.80991 0.914875 0
M  V30 15344 C 1444.2 0.654538 1.82837 0
M  V30 15345 O 1443.48 -0.344816 1.91419 0
M  V30 15346 C 1443.76 3.15841 1.72964 0
M  V30 15347 C 1443.62 4.41873 0.840748 0
M  V30 15348 C 1444.93 3.474 2.70188 0
M  V30 15349 H 1442.05 0.658408 0.331161 0
M  V30 15350 H 1444.7 1.89125 0.182161 0
M  V30 15351 H 1442.85 3.09038 2.35431 0
M  V30 15352 H 1444.52 4.60723 0.230654 0
M  V30 15353 H 1442.76 4.33549 0.147558 0
M  V30 15354 H 1443.43 5.32728 1.44586 0
M  V30 15355 H 1445.91 3.54513 2.17852 0
M  V30 15356 H 1444.78 4.42872 3.24278 0
M  V30 15357 H 1445.04 2.7098 3.49317 0
M  V30 15358 N 1444.1 -0.461169 1.50702 0
M  V30 15359 C 1445.35 -1.21431 1.62427 0
M  V30 15360 C 1445.68 -1.91406 0.328228 0
M  V30 15361 O 1444.96 -1.82563 -0.670898 0
M  V30 15362 C 1445.24 -2.25016 2.8114 0
M  V30 15363 C 1445.09 -1.5928 4.20654 0
M  V30 15364 C 1446.41 -3.26234 2.95397 0
M  V30 15365 H 1443.53 -0.440113 0.59116 0
M  V30 15366 H 1446.17 -0.506726 1.83118 0
M  V30 15367 H 1444.32 -2.85363 2.63629 0
M  V30 15368 H 1446 -1.02454 4.49779 0
M  V30 15369 H 1444.24 -0.895665 4.24453 0
M  V30 15370 H 1444.91 -2.34602 4.99666 0
M  V30 15371 H 1447.39 -2.7592 3.1146 0
M  V30 15372 H 1446.26 -3.96031 3.80067 0
M  V30 15373 H 1446.52 -3.90943 2.06436 0
M  V30 15374 N 1445.58 -1.40446 -0.715026 0
M  V30 15375 C 1446.53 -1.37235 -1.82073 0
M  V30 15376 C 1447.52 -0.249808 -1.58949 0
M  V30 15377 O 1448.71 -0.488958 -1.70112 0
M  V30 15378 C 1445.84 -1.23786 -3.20206 0
M  V30 15379 C 1444.92 -2.40824 -3.49091 0
M  V30 15380 N 1445.31 -3.66305 -3.4879 0
M  V30 15381 C 1443.61 -2.34215 -3.79551 0
M  V30 15382 C 1444.31 -4.43817 -3.76034 0
M  V30 15383 N 1443.29 -3.73664 -3.94811 0
M  V30 15384 H 1447.09 -2.32195 -1.80174 0
M  V30 15385 H 1444.6 -1.34226 -0.914175 0
M  V30 15386 H 1446.6 -1.19568 -3.99386 0
M  V30 15387 H 1445.26 -0.297938 -3.2333 0
M  V30 15388 H 1446.27 -3.99458 -3.29626 0
M  V30 15389 H 1442.95 -1.48592 -3.90162 0
M  V30 15390 H 1444.34 -5.52674 -3.82101 0
M  V30 15391 N 1447.06 0.947303 -1.25952 0
M  V30 15392 C 1448.48 1.21972 -1.02932 0
M  V30 15393 C 1448.68 1.99951 0.249333 0
M  V30 15394 O 1447.73 2.33534 0.960108 0
M  V30 15395 C 1449.04 1.98695 -2.257 0
M  V30 15396 C 1450.59 2.11711 -2.30538 0
M  V30 15397 C 1451.07 2.91835 -3.52982 0
M  V30 15398 N 1452.56 2.99411 -3.53422 0
M  V30 15399 C 1453.29 3.6182 -4.4483 0
M  V30 15400 N 1452.79 4.25781 -5.46519 0
M  V30 15401 N 1454.58 3.59033 -4.32495 0
M  V30 15402 H 1446.73 0.42583 -2.08088 0
M  V30 15403 H 1449 0.250899 -0.914196 0
M  V30 15404 H 1448.7 1.48801 -3.18671 0
M  V30 15405 H 1448.58 2.9938 -2.29459 0
M  V30 15406 H 1450.96 2.608 -1.38085 0
M  V30 15407 H 1451.04 1.10308 -2.30794 0
M  V30 15408 H 1450.69 2.43435 -4.4576 0
M  V30 15409 H 1450.62 3.9348 -3.49973 0
M  V30 15410 H 1453.11 2.53934 -2.79868 0
M  V30 15411 H 1453.42 4.71281 -6.12466 0
M  V30 15412 H 1451.77 4.24386 -5.50383 0
M  V30 15413 H 1454.96 3.08254 -3.52274 0
M  V30 15414 H 1455.13 4.07384 -5.03927 0
M  V30 15415 N 1448.54 1.07657 1.15099 0
M  V30 15416 C 1449.95 0.802696 1.37945 0
M  V30 15417 C 1450.15 -0.591622 1.92619 0
M  V30 15418 O 1449.21 -1.34979 2.13394 0
M  V30 15419 C 1450.52 1.87907 2.34759 0
M  V30 15420 C 1452.07 1.90418 2.48415 0
M  V30 15421 C 1452.55 2.97148 3.48521 0
M  V30 15422 N 1454.04 2.96271 3.56059 0
M  V30 15423 C 1454.77 3.75498 4.33346 0
M  V30 15424 N 1454.27 4.64583 5.1394 0
M  V30 15425 N 1456.06 3.63831 4.28466 0
M  V30 15426 H 1448.21 1.97578 0.779537 0
M  V30 15427 H 1450.48 0.856978 0.405331 0
M  V30 15428 H 1450.18 2.8811 2.01707 0
M  V30 15429 H 1450.06 1.74183 3.34575 0
M  V30 15430 H 1452.44 0.908655 2.80762 0
M  V30 15431 H 1452.52 2.0822 1.48586 0
M  V30 15432 H 1452.17 3.96903 3.16908 0
M  V30 15433 H 1452.1 2.76593 4.48112 0
M  V30 15434 H 1454.59 2.31697 2.98538 0
M  V30 15435 H 1454.9 5.2166 5.70167 0
M  V30 15436 H 1453.25 4.6863 5.13236 0
M  V30 15437 H 1456.44 2.93609 3.6457 0
M  V30 15438 H 1456.61 4.25818 4.8845 0
M  V30 15439 N 1450.02 -1.31994 0.861122 0
M  V30 15440 C 1451.26 -1.97317 0.468371 0
M  V30 15441 C 1451.6 -1.67954 -0.974941 0
M  V30 15442 O 1450.87 -0.971243 -1.68514 0
M  V30 15443 C 1451.15 -3.52918 0.715607 0
M  V30 15444 C 1451.01 -3.91888 2.20781 0
M  V30 15445 C 1452.33 -4.39747 0.17624 0
M  V30 15446 H 1449.44 -0.716733 0.171646 0
M  V30 15447 H 1452.09 -1.56269 1.08074 0
M  V30 15448 H 1450.24 -3.88013 0.194387 0
M  V30 15449 H 1451.91 -3.66938 2.7956 0
M  V30 15450 H 1450.15 -3.40813 2.68382 0
M  V30 15451 H 1450.82 -5.00346 2.33147 0
M  V30 15452 H 1453.3 -4.11424 0.622043 0
M  V30 15453 H 1452.17 -5.47592 0.378748 0
M  V30 15454 H 1452.44 -4.32393 -0.921358 0
M  V30 15455 N 1451.49 -0.619688 -1.44906 0
M  V30 15456 C 1452.91 -0.203309 -1.8559 0
M  V30 15457 C 1453.26 1.24265 -1.51831 0
M  V30 15458 O 1452.38 1.94392 -0.950819 0
M  V30 15459 C 1452.98 -0.362204 -3.36858 0
M  V30 15460 C 1451.54 -0.000423575 -3.764 0
M  V30 15461 C 1450.68 -0.680979 -2.68808 0
M  V30 15462 H 1453.63 -0.825595 -1.35535 0
M  V30 15463 H 1453.65 0.402149 -3.78369 0
M  V30 15464 H 1453.17 -1.41468 -3.61398 0
M  V30 15465 H 1451.27 1.05077 -3.57477 0
M  V30 15466 H 1451.38 -0.402508 -4.77406 0
M  V30 15467 H 1449.74 -0.117407 -2.54429 0
M  V30 15468 H 1450.53 -1.73583 -2.96182 0
M  V30 15469 N 1452.97 1.53444 -0.359552 0
M  V30 15470 C 1454.2 2.06058 0.235576 0
M  V30 15471 C 1454.62 1.23175 1.42161 0
M  V30 15472 O 1453.98 0.249338 1.79577 0
M  V30 15473 C 1454.03 3.55351 0.613025 0
M  V30 15474 O 1453.13 3.75229 1.71104 0
M  V30 15475 H 1452.47 0.663038 0.0357266 0
M  V30 15476 H 1455 1.97923 -0.518408 0
M  V30 15477 H 1455.01 3.9827 0.885722 0
M  V30 15478 H 1453.69 4.15122 -0.254243 0
M  V30 15479 H 1452.27 3.4421 1.43437 0
M  V30 15480 N 1454.45 0.0885642 1.57351 0
M  V30 15481 C 1455.41 -0.858178 2.12528 0
M  V30 15482 C 1456.41 -1.21522 1.05304 0
M  V30 15483 O 1457.6 -1.14573 1.3122 0
M  V30 15484 C 1454.74 -2.15619 2.64048 0
M  V30 15485 H 1455.93 -0.37918 2.97493 0
M  V30 15486 H 1453.48 -0.160354 1.55475 0
M  V30 15487 H 1454.22 -2.68018 1.82584 0
M  V30 15488 H 1454 -1.90995 3.42437 0
M  V30 15489 H 1455.49 -2.83359 3.06753 0
M  V30 15490 N 1455.93 -1.56509 -0.185096 0
M  V30 15491 C 1456.89 -1.94468 -1.21305 0
M  V30 15492 C 1457.89 -0.826838 -1.37913 0
M  V30 15493 O 1459.08 -1.09411 -1.35554 0
M  V30 15494 C 1456.21 -2.22747 -2.58063 0
M  V30 15495 H 1457.41 -2.86442 -0.888323 0
M  V30 15496 H 1454.96 -1.50354 -0.427012 0
M  V30 15497 H 1455.69 -1.33443 -2.95573 0
M  V30 15498 H 1455.48 -3.04215 -2.47378 0
M  V30 15499 H 1456.97 -2.53084 -3.32172 0
M  V30 15500 N 1457.41 0.45317 -1.50944 0
M  V30 15501 C 1458.63 1.22672 -1.66611 0
M  V30 15502 C 1459.05 1.85398 -0.356814 0
M  V30 15503 O 1458.41 1.70026 0.663122 0
M  V30 15504 C 1458.46 2.32238 -2.77034 0
M  V30 15505 O 1458.18 1.72081 -4.02889 0
M  V30 15506 C 1459.68 3.22802 -3.03832 0
M  V30 15507 H 1456.9 0.370337 -0.559546 0
M  V30 15508 H 1459.44 0.538884 -1.97272 0
M  V30 15509 H 1457.6 2.96765 -2.49017 0
M  V30 15510 H 1458.01 2.4437 -4.64095 0
M  V30 15511 H 1459.49 3.95851 -3.84716 0
M  V30 15512 H 1459.96 3.82636 -2.15608 0
M  V30 15513 H 1460.57 2.63993 -3.33449 0
M  V30 15514 N 1458.88 1.40823 0.707568 0
M  V30 15515 C 1460.11 1.42866 1.49656 0
M  V30 15516 C 1460.53 0.0305663 1.88775 0
M  V30 15517 O 1459.88 -0.947376 1.55984 0
M  V30 15518 C 1459.94 2.32661 2.76679 0
M  V30 15519 O 1459.66 3.67028 2.39211 0
M  V30 15520 C 1461.16 2.4338 3.70514 0
M  V30 15521 H 1458.38 0.487009 0.461588 0
M  V30 15522 H 1460.92 1.84969 0.872167 0
M  V30 15523 H 1459.08 1.93898 3.35384 0
M  V30 15524 H 1459.49 4.14799 3.21002 0
M  V30 15525 H 1460.96 3.10401 4.56459 0
M  V30 15526 H 1461.44 1.46132 4.14176 0
M  V30 15527 H 1462.05 2.82728 3.17718 0
M  V30 15528 N 1460.36 -0.94061 1.26453 0
M  V30 15529 C 1461.77 -1.50169 1.10934 0
M  V30 15530 C 1462.12 -1.93733 -0.310167 0
M  V30 15531 O 1461.25 -1.79966 -1.20172 0
M  V30 15532 C 1461.84 -2.7291 2.00763 0
M  V30 15533 C 1460.4 -3.25283 1.89388 0
M  V30 15534 C 1459.55 -1.98061 1.9408 0
M  V30 15535 H 1462.5 -0.756038 1.39534 0
M  V30 15536 H 1462.52 -3.47237 1.55586 0
M  V30 15537 H 1462.03 -2.41172 3.04069 0
M  V30 15538 H 1460.14 -3.6181 0.890192 0
M  V30 15539 H 1460.25 -3.92351 2.7495 0
M  V30 15540 H 1458.61 -2.13985 1.3814 0
M  V30 15541 H 1459.4 -1.68654 2.99016 0
M  V30 15542 N 1461.84 -1.08266 -1.14527 0
M  V30 15543 C 1463.25 -0.832702 -1.67102 0
M  V30 15544 C 1463.6 0.640776 -1.85441 0
M  V30 15545 O 1462.73 1.49505 -1.56452 0
M  V30 15546 C 1463.32 -1.50502 -3.03537 0
M  V30 15547 C 1461.88 -1.30234 -3.53152 0
M  V30 15548 C 1461.03 -1.56873 -2.28661 0
M  V30 15549 H 1463.98 -1.24344 -0.986118 0
M  V30 15550 H 1464 -0.931426 -3.68924 0
M  V30 15551 H 1463.51 -2.57741 -2.90157 0
M  V30 15552 H 1461.61 -0.250582 -3.71756 0
M  V30 15553 H 1461.73 -2.02898 -4.34015 0
M  V30 15554 H 1460.09 -0.990214 -2.34663 0
M  V30 15555 H 1460.87 -2.65316 -2.17859 0
M  V30 15556 N 1463.32 1.31536 -0.86811 0
M  V30 15557 C 1464.25 2.31037 -0.33822 0
M  V30 15558 C 1465.23 1.60269 0.569892 0
M  V30 15559 O 1466.42 1.87987 0.487305 0
M  V30 15560 C 1463.55 3.44203 0.462753 0
M  V30 15561 C 1462.5 4.26549 -0.3521 0
M  V30 15562 C 1461.83 5.31605 0.574443 0
M  V30 15563 C 1463.13 4.97665 -1.58516 0
M  V30 15564 H 1464.82 2.75607 -1.16967 0
M  V30 15565 H 1462.37 1.325 -0.56389 0
M  V30 15566 H 1464.32 4.12862 0.843967 0
M  V30 15567 H 1463.04 2.98396 1.32769 0
M  V30 15568 H 1461.7 3.59555 -0.715237 0
M  V30 15569 H 1461.35 4.82048 1.43661 0
M  V30 15570 H 1461.05 5.87591 0.0331436 0
M  V30 15571 H 1462.57 6.03124 0.952541 0
M  V30 15572 H 1463.99 5.58931 -1.27549 0
M  V30 15573 H 1462.38 5.63437 -2.06539 0
M  V30 15574 H 1463.45 4.24756 -2.33902 0
M  V30 15575 N 1464.8 0.627364 1.44575 0
M  V30 15576 C 1466.21 0.213149 1.85479 0
M  V30 15577 C 1466.56 -1.23458 1.52488 0
M  V30 15578 O 1465.68 -1.93885 0.961115 0
M  V30 15579 C 1466.28 0.380063 3.36661 0
M  V30 15580 C 1464.84 0.020385 3.76394 0
M  V30 15581 C 1463.99 0.695225 2.68444 0
M  V30 15582 H 1466.94 0.832771 1.35095 0
M  V30 15583 H 1466.96 -0.382078 3.78577 0
M  V30 15584 H 1466.47 1.43383 3.60642 0
M  V30 15585 H 1464.57 -1.03179 3.58029 0
M  V30 15586 H 1464.68 0.42782 4.77186 0
M  V30 15587 H 1463.05 0.130898 2.54363 0
M  V30 15588 H 1463.83 1.75151 2.95257 0
M  V30 15589 N 1466.28 -1.53251 0.367684 0
M  V30 15590 C 1467.5 -2.0618 -0.224645 0
M  V30 15591 C 1467.93 -1.23927 -1.41505 0
M  V30 15592 O 1467.28 -0.258858 -1.79443 0
M  V30 15593 C 1467.33 -3.55671 -0.594171 0
M  V30 15594 O 1466.44 -3.76132 -1.69112 0
M  V30 15595 H 1465.78 -0.663218 -0.0322099 0
M  V30 15596 H 1468.31 -1.97646 0.528897 0
M  V30 15597 H 1468.32 -3.98734 -0.864589 0
M  V30 15598 H 1466.99 -4.14982 0.276254 0
M  V30 15599 H 1465.57 -3.44965 -1.41609 0
M  V30 15600 N 1467.75 -0.0969077 -1.57302 0
M  V30 15601 C 1468.7 0.872039 -2.10664 0
M  V30 15602 C 1469.69 1.24265 -1.02211 0
M  V30 15603 O 1470.88 1.21743 -1.28482 0
M  V30 15604 C 1468.01 2.13042 -2.69199 0
M  V30 15605 C 1467.09 1.78517 -3.84698 0
M  V30 15606 N 1467.49 1.14558 -4.92656 0
M  V30 15607 C 1465.78 2.08115 -3.94467 0
M  V30 15608 C 1466.48 0.986837 -5.73268 0
M  V30 15609 N 1465.46 1.50473 -5.22359 0
M  V30 15610 H 1469.26 0.373625 -2.91515 0
M  V30 15611 H 1466.78 0.10625 -1.62052 0
M  V30 15612 H 1468.77 2.83403 -3.05759 0
M  V30 15613 H 1467.43 2.63448 -1.89803 0
M  V30 15614 H 1468.44 0.812179 -5.11492 0
M  V30 15615 H 1465.12 2.60722 -3.26083 0
M  V30 15616 H 1466.51 0.48651 -6.70136 0
M  V30 15617 N 1469.23 1.56605 0.176793 0
M  V30 15618 C 1470.16 1.99014 1.2213 0
M  V30 15619 C 1471.14 0.86487 1.46472 0
M  V30 15620 O 1472.33 1.13055 1.57899 0
M  V30 15621 C 1469.46 2.34534 2.56146 0
M  V30 15622 C 1468.41 3.4997 2.46384 0
M  V30 15623 C 1467.74 3.71217 3.8484 0
M  V30 15624 C 1469.04 4.83592 1.97323 0
M  V30 15625 H 1470.73 2.86517 0.8688 0
M  V30 15626 H 1468.28 1.37846 0.416481 0
M  V30 15627 H 1470.23 2.62799 3.29416 0
M  V30 15628 H 1468.95 1.43933 2.93174 0
M  V30 15629 H 1467.61 3.21824 1.75569 0
M  V30 15630 H 1467.26 2.77916 4.19251 0
M  V30 15631 H 1466.96 4.48885 3.79178 0
M  V30 15632 H 1468.49 4.01877 4.59704 0
M  V30 15633 H 1469.9 5.10768 2.60363 0
M  V30 15634 H 1468.3 5.64858 2.02622 0
M  V30 15635 H 1469.37 4.75951 0.927275 0
M  V30 15636 N 1470.71 -0.445159 1.51182 0
M  V30 15637 C 1471.94 -1.21787 1.67259 0
M  V30 15638 C 1472.35 -1.85206 0.366641 0
M  V30 15639 O 1471.71 -1.70376 -0.654095 0
M  V30 15640 C 1471.76 -2.30765 2.78262 0
M  V30 15641 O 1471.48 -1.69942 4.03796 0
M  V30 15642 C 1472.98 -3.21186 3.05539 0
M  V30 15643 H 1470.2 -0.367364 0.561502 0
M  V30 15644 H 1472.75 -0.528415 1.97555 0
M  V30 15645 H 1470.9 -2.9544 2.50587 0
M  V30 15646 H 1471.32 -2.41905 4.65384 0
M  V30 15647 H 1472.79 -3.93805 3.8681 0
M  V30 15648 H 1473.27 -3.81487 2.17634 0
M  V30 15649 H 1473.87 -2.62221 3.34844 0
M  V30 15650 N 1472.19 -1.41197 -0.700089 0
M  V30 15651 C 1473.15 -1.42419 -1.79582 0
M  V30 15652 C 1474.15 -0.31551 -1.57674 0
M  V30 15653 O 1475.34 -0.575173 -1.64431 0
M  V30 15654 C 1472.47 -1.23114 -3.17893 0
M  V30 15655 H 1473.67 -2.39956 -1.79892 0
M  V30 15656 H 1471.22 -1.27273 -0.907271 0
M  V30 15657 H 1471.95 -0.263992 -3.23224 0
M  V30 15658 H 1471.74 -2.03437 -3.35195 0
M  V30 15659 H 1473.23 -1.26793 -3.97886 0
M  V30 15660 N 1473.67 0.933891 -1.2695 0
M  V30 15661 C 1474.58 2.06713 -1.10936 0
M  V30 15662 C 1475.59 1.73952 -0.0409734 0
M  V30 15663 O 1476.77 1.9989 -0.246199 0
M  V30 15664 C 1473.83 3.38453 -0.751696 0
M  V30 15665 C 1472.89 3.84951 -1.90029 0
M  V30 15666 C 1472.13 5.10404 -1.55959 0
M  V30 15667 O 1472.35 5.68504 -0.464646 0
M  V30 15668 O 1471.28 5.52123 -2.39675 0
M  V30 15669 H 1475.11 2.23133 -2.06023 0
M  V30 15670 H 1472.69 1.05202 -1.06079 0
M  V30 15671 H 1474.58 4.17591 -0.565285 0
M  V30 15672 H 1473.25 3.23255 0.169703 0
M  V30 15673 H 1472.16 3.06727 -2.14172 0
M  V30 15674 H 1473.49 4.04681 -2.80167 0
M  V30 15675 N 1475.14 1.08871 1.13951 0
M  V30 15676 C 1476.05 0.734869 2.22793 0
M  V30 15677 C 1477.07 -0.260699 1.72036 0
M  V30 15678 O 1478.25 -0.103461 2.01134 0
M  V30 15679 C 1475.31 0.154599 3.46355 0
M  V30 15680 C 1474.37 1.20539 4.1203 0
M  V30 15681 C 1473.6 0.652712 5.29694 0
M  V30 15682 O 1473.83 -0.526264 5.67967 0
M  V30 15683 O 1472.76 1.40503 5.85271 0
M  V30 15684 H 1476.59 1.64297 2.55422 0
M  V30 15685 H 1474.17 0.862716 1.21974 0
M  V30 15686 H 1476.05 -0.165962 4.21073 0
M  V30 15687 H 1474.73 -0.726592 3.1544 0
M  V30 15688 H 1473.64 1.57855 3.39164 0
M  V30 15689 H 1474.97 2.05902 4.47063 0
M  V30 15690 N 1476.62 -1.31073 0.875073 0
M  V30 15691 C 1477.85 -2.00688 0.503179 0
M  V30 15692 C 1478.26 -1.65657 -0.905714 0
M  V30 15693 O 1477.62 -0.888468 -1.59413 0
M  V30 15694 C 1477.67 -3.55486 0.65666 0
M  V30 15695 O 1477.39 -3.89265 2.01007 0
M  V30 15696 C 1478.89 -4.42374 0.28645 0
M  V30 15697 H 1476.11 -0.641885 0.195512 0
M  V30 15698 H 1478.66 -1.67188 1.17765 0
M  V30 15699 H 1476.81 -3.87389 0.0296852 0
M  V30 15700 H 1477.23 -4.83978 2.02153 0
M  V30 15701 H 1478.7 -5.50205 0.444776 0
M  V30 15702 H 1479.18 -4.32312 -0.774789 0
M  V30 15703 H 1479.78 -4.15898 0.889336 0
M  V30 15704 N 1478.1 -0.635022 -1.4424 0
M  V30 15705 C 1479.51 -0.222982 -1.85364 0
M  V30 15706 C 1479.86 1.22648 -1.5314 0
M  V30 15707 O 1478.99 1.93373 -0.971384 0
M  V30 15708 C 1479.58 -0.397912 -3.36455 0
M  V30 15709 C 1478.14 -0.0403458 -3.76378 0
M  V30 15710 C 1477.29 -0.709451 -2.68071 0
M  V30 15711 H 1480.24 -0.839923 -1.34651 0
M  V30 15712 H 1480.26 0.361996 -3.78774 0
M  V30 15713 H 1479.77 -1.45294 -3.59877 0
M  V30 15714 H 1477.87 1.01279 -3.58571 0
M  V30 15715 H 1477.99 -0.453121 -4.76952 0
M  V30 15716 H 1476.35 -0.144386 -2.5429 0
M  V30 15717 H 1477.13 -1.76715 -2.94324 0
M  V30 15718 N 1479.58 1.53054 -0.375806 0
M  V30 15719 C 1480.51 2.28973 0.45754 0
M  V30 15720 C 1481.49 1.31812 1.07516 0
M  V30 15721 O 1482.67 1.60693 1.09048 0
M  V30 15722 C 1479.8 3.08657 1.59212 0
M  V30 15723 C 1478.76 4.1359 1.10123 0
M  V30 15724 C 1478.08 4.81417 2.32684 0
M  V30 15725 C 1479.38 5.21994 0.17872 0
M  V30 15726 H 1481.08 2.98883 -0.175872 0
M  V30 15727 H 1478.62 1.43743 -0.0860253 0
M  V30 15728 H 1480.58 3.6052 2.18182 0
M  V30 15729 H 1479.3 2.36456 2.25291 0
M  V30 15730 H 1477.96 3.62688 0.534151 0
M  V30 15731 H 1477.61 4.05778 2.97243 0
M  V30 15732 H 1477.31 5.52332 2.00506 0
M  V30 15733 H 1478.83 5.36079 2.92322 0
M  V30 15734 H 1480.25 5.69298 0.676204 0
M  V30 15735 H 1478.64 6.00077 -0.0526605 0
M  V30 15736 H 1479.71 4.78646 -0.776246 0
M  V30 15737 N 1481.06 0.105248 1.57248 0
M  V30 15738 C 1482.3 -0.556054 1.94716 0
M  V30 15739 C 1482.63 -1.67557 0.987669 0
M  V30 15740 O 1481.89 -1.95698 0.00905706 0
M  V30 15741 C 1482.19 -1.14178 3.38671 0
M  V30 15742 C 1481.85 -0.145022 4.50667 0
M  V30 15743 C 1480.51 0.129099 4.81027 0
M  V30 15744 C 1482.87 0.535015 5.18447 0
M  V30 15745 C 1480.19 1.08978 5.7649 0
M  V30 15746 C 1482.55 1.48423 6.14942 0
M  V30 15747 C 1481.21 1.76648 6.43702 0
M  V30 15748 H 1480.48 -0.203475 0.712516 0
M  V30 15749 H 1483.13 0.183237 1.90621 0
M  V30 15750 H 1481.43 -1.95754 3.39393 0
M  V30 15751 H 1483.13 -1.66132 3.64967 0
M  V30 15752 H 1479.72 -0.36886 4.2701 0
M  V30 15753 H 1483.9 0.336391 4.95159 0
M  V30 15754 H 1479.16 1.31535 5.97083 0
M  V30 15755 H 1483.33 2.01693 6.66553 0
M  V30 15756 H 1480.96 2.51245 7.17482 0
M  V30 15757 N 1482.53 -1.56697 -0.168486 0
M  V30 15758 C 1483.46 -1.99659 -1.21073 0
M  V30 15759 C 1484.45 -0.872625 -1.46011 0
M  V30 15760 O 1485.63 -1.13891 -1.57297 0
M  V30 15761 C 1482.76 -2.35889 -2.54899 0
M  V30 15762 C 1481.71 -3.51272 -2.44524 0
M  V30 15763 C 1481.04 -3.73253 -3.82866 0
M  V30 15764 C 1482.34 -4.84631 -1.94756 0
M  V30 15765 H 1484.03 -2.86974 -0.853593 0
M  V30 15766 H 1481.58 -1.38065 -0.409165 0
M  V30 15767 H 1483.53 -2.64542 -3.28017 0
M  V30 15768 H 1482.26 -1.45486 -2.92406 0
M  V30 15769 H 1480.92 -3.22751 -1.7386 0
M  V30 15770 H 1480.56 -2.80136 -4.17772 0
M  V30 15771 H 1480.26 -4.5089 -3.76792 0
M  V30 15772 H 1481.79 -4.04309 -4.57566 0
M  V30 15773 H 1483.2 -5.12142 -2.5765 0
M  V30 15774 H 1481.6 -5.65925 -1.99623 0
M  V30 15775 H 1482.67 -4.76436 -0.902021 0
M  V30 15776 N 1484.01 0.437135 -1.51416 0
M  V30 15777 C 1484.98 1.51313 -1.72154 0
M  V30 15778 C 1485.98 1.49523 -0.59157 0
M  V30 15779 O 1487.17 1.51541 -0.859118 0
M  V30 15780 C 1484.3 2.9085 -1.77818 0
M  V30 15781 H 1485.49 1.34229 -2.68184 0
M  V30 15782 H 1483.04 0.665822 -1.41409 0
M  V30 15783 H 1483.78 3.13338 -0.836033 0
M  V30 15784 H 1483.56 2.93554 -2.59939 0
M  V30 15785 H 1485.05 3.68905 -1.957 0
M  V30 15786 N 1485.49 1.41566 0.692592 0
M  V30 15787 C 1486.4 1.46014 1.83622 0
M  V30 15788 C 1487.42 0.350453 1.70434 0
M  V30 15789 O 1488.59 0.598634 1.92298 0
M  V30 15790 C 1485.66 1.34308 3.19628 0
M  V30 15791 C 1484.72 2.55617 3.44904 0
M  V30 15792 C 1483.95 2.4446 4.74421 0
M  V30 15793 O 1484.17 1.47078 5.51112 0
M  V30 15794 O 1483.11 3.34272 5.00546 0
M  V30 15795 H 1486.93 2.42504 1.82826 0
M  V30 15796 H 1484.52 1.23136 0.846039 0
M  V30 15797 H 1486.4 1.30075 4.00822 0
M  V30 15798 H 1485.08 0.409343 3.21101 0
M  V30 15799 H 1483.98 2.65426 2.63628 0
M  V30 15800 H 1485.32 3.47829 3.48247 0
M  V30 15801 N 1486.97 -0.927146 1.27443 0
M  V30 15802 C 1488.38 -1.48984 1.1252 0
M  V30 15803 C 1488.73 -1.94051 -0.289602 0
M  V30 15804 O 1487.86 -1.8123 -1.18257 0
M  V30 15805 C 1488.45 -2.70765 2.03646 0
M  V30 15806 C 1487.01 -3.23256 1.92827 0
M  V30 15807 C 1486.16 -1.95991 1.9617 0
M  V30 15808 H 1489.11 -0.741196 1.40328 0
M  V30 15809 H 1489.13 -3.45567 1.5926 0
M  V30 15810 H 1488.64 -2.37933 3.0661 0
M  V30 15811 H 1486.74 -3.60845 0.928516 0
M  V30 15812 H 1486.85 -3.89413 2.79096 0
M  V30 15813 H 1485.22 -2.12508 1.40402 0
M  V30 15814 H 1486 -1.65473 3.00788 0
M  V30 15815 N 1488.45 -1.09474 -1.13372 0
M  V30 15816 C 1489.41 -0.738173 -2.16988 0
M  V30 15817 C 1490.41 0.232488 -1.5911 0
M  V30 15818 O 1491.6 0.0106093 -1.74197 0
M  V30 15819 C 1488.73 -0.091724 -3.40777 0
M  V30 15820 H 1489.92 -1.65582 -2.50045 0
M  V30 15821 H 1487.48 -0.893994 -1.28209 0
M  V30 15822 H 1488.21 0.837129 -3.13309 0
M  V30 15823 H 1488 -0.790161 -3.84056 0
M  V30 15824 H 1489.49 0.142334 -4.17357 0
M  V30 15825 N 1489.92 1.30607 -0.882012 0
M  V30 15826 C 1490.85 2.30666 -0.362706 0
M  V30 15827 C 1491.84 1.60865 0.552861 0
M  V30 15828 O 1493.02 1.88493 0.467339 0
M  V30 15829 C 1490.15 3.44675 0.42622 0
M  V30 15830 C 1489.1 4.26152 -0.397322 0
M  V30 15831 C 1488.43 5.32185 0.518027 0
M  V30 15832 C 1489.73 4.95955 -1.63785 0
M  V30 15833 H 1491.42 2.74351 -1.19883 0
M  V30 15834 H 1488.97 1.31895 -0.577912 0
M  V30 15835 H 1490.92 4.13734 0.80013 0
M  V30 15836 H 1489.65 2.99787 1.29597 0
M  V30 15837 H 1488.31 3.58776 -0.753332 0
M  V30 15838 H 1487.95 4.83545 1.3854 0
M  V30 15839 H 1487.65 5.87593 -0.0291802 0
M  V30 15840 H 1489.18 6.04101 0.888518 0
M  V30 15841 H 1490.59 5.57547 -1.3347 0
M  V30 15842 H 1488.99 5.61215 -2.12504 0
M  V30 15843 H 1490.06 4.22252 -2.38394 0
M  V30 15844 N 1491.4 0.642663 1.43901 0
M  V30 15845 C 1492.81 0.232809 1.85243 0
M  V30 15846 C 1493.16 -1.21834 1.53789 0
M  V30 15847 O 1492.29 -1.92855 0.981625 0
M  V30 15848 C 1492.88 0.415749 3.36239 0
M  V30 15849 C 1491.44 0.0603055 3.76352 0
M  V30 15850 C 1490.59 0.723658 2.67691 0
M  V30 15851 H 1493.54 0.847052 1.34204 0
M  V30 15852 H 1493.56 -0.341903 3.78961 0
M  V30 15853 H 1493.07 1.472 3.59101 0
M  V30 15854 H 1491.18 -0.993761 3.59103 0
M  V30 15855 H 1491.29 0.478408 4.76705 0
M  V30 15856 H 1489.65 0.15787 2.5421 0
M  V30 15857 H 1490.44 1.78273 2.93383 0
M  V30 15858 N 1492.88 -1.52852 0.383918 0
M  V30 15859 C 1493.83 -2.26294 -0.453826 0
M  V30 15860 C 1494.8 -1.27688 -1.0623 0
M  V30 15861 O 1495.98 -1.56507 -1.09134 0
M  V30 15862 C 1493.12 -3.06907 -1.57803 0
M  V30 15863 C 1492.24 -4.20434 -0.992943 0
M  V30 15864 C 1491.37 -4.88453 -2.08776 0
M  V30 15865 C 1490.41 -5.93981 -1.47828 0
M  V30 15866 N 1489.55 -6.55617 -2.51218 0
M  V30 15867 H 1494.39 -2.97462 0.178927 0
M  V30 15868 H 1491.92 -1.46759 0.100066 0
M  V30 15869 H 1493.88 -3.51933 -2.24052 0
M  V30 15870 H 1492.51 -2.37959 -2.18118 0
M  V30 15871 H 1491.56 -3.79762 -0.22021 0
M  V30 15872 H 1492.88 -4.96211 -0.507504 0
M  V30 15873 H 1492.03 -5.36755 -2.82806 0
M  V30 15874 H 1490.77 -4.12187 -2.60678 0
M  V30 15875 H 1489.77 -5.45023 -0.723202 0
M  V30 15876 H 1491 -6.72176 -0.967278 0
M  V30 15877 H 1488.95 -5.82195 -3.02299 0
M  V30 15878 H 1488.86 -7.26991 -2.07414 0
M  V30 15879 H 1490.13 -7.08564 -3.24895 0
M  V30 15880 N 1494.36 -0.113586 -1.5719 0
M  V30 15881 C 1495.61 0.544642 -1.94623 0
M  V30 15882 C 1495.93 1.6756 -0.997428 0
M  V30 15883 O 1495.2 1.95829 -0.0527521 0
M  V30 15884 H 1493.78 0.204186 -0.718552 0
M  V30 15885 H 1496.44 -0.181258 -1.94055 0
M  V30 15886 H 1495.54 0.942765 -2.9752 0
M  V30 15887 N 1495.84 1.56784 0.160173 0
M  V30 15888 C 1496.77 2.00298 1.20012 0
M  V30 15889 C 1497.75 0.880356 1.45546 0
M  V30 15890 O 1498.93 1.14724 1.56691 0
M  V30 15891 C 1496.06 2.37238 2.53645 0
M  V30 15892 C 1495.02 3.52563 2.42658 0
M  V30 15893 C 1494.34 3.75278 3.80881 0
M  V30 15894 C 1495.64 4.85657 1.92183 0
M  V30 15895 H 1497.34 2.87423 0.838362 0
M  V30 15896 H 1494.88 1.3828 0.401838 0
M  V30 15897 H 1496.84 2.66278 3.2661 0
M  V30 15898 H 1495.56 1.47035 2.9163 0
M  V30 15899 H 1494.22 3.23669 1.72146 0
M  V30 15900 H 1493.87 2.82347 4.1628 0
M  V30 15901 H 1493.57 4.52882 3.74396 0
M  V30 15902 H 1495.09 4.0673 4.55415 0
M  V30 15903 H 1496.51 5.13501 2.54931 0
M  V30 15904 H 1494.9 5.66975 1.96619 0
M  V30 15905 H 1495.97 4.76908 0.876742 0
M  V30 15906 N 1497.32 -0.429099 1.51646 0
M  V30 15907 C 1498.73 -1.00868 1.57107 0
M  V30 15908 C 1499.08 -1.9209 0.399483 0
M  V30 15909 O 1498.2 -2.10948 -0.482709 0
M  V30 15910 C 1498.8 -1.83612 2.84732 0
M  V30 15911 C 1497.36 -2.36605 2.92737 0
M  V30 15912 C 1496.5 -1.1604 2.51853 0
M  V30 15913 H 1499.45 -0.21006 1.57304 0
M  V30 15914 H 1499.48 -2.69149 2.68959 0
M  V30 15915 H 1498.99 -1.17192 3.69983 0
M  V30 15916 H 1497.09 -3.06455 2.11934 0
M  V30 15917 H 1497.2 -2.68838 3.96564 0
M  V30 15918 H 1495.57 -1.50826 2.0524 0
M  V30 15919 H 1496.35 -0.51218 3.39458 0
M  V30 15920 N 1498.79 -1.41931 -0.685074 0
M  V30 15921 C 1500.2 -1.37279 -1.26536 0
M  V30 15922 C 1500.56 -0.0610089 -1.96105 0
M  V30 15923 O 1499.68 0.840508 -1.9941 0
M  V30 15924 C 1500.28 -2.48658 -2.30119 0
M  V30 15925 C 1498.83 -2.47371 -2.83698 0
M  V30 15926 C 1497.98 -2.2797 -1.57876 0
M  V30 15927 H 1500.93 -1.51294 -0.479132 0
M  V30 15928 H 1500.95 -2.18319 -3.11636 0
M  V30 15929 H 1500.47 -3.44118 -1.79456 0
M  V30 15930 H 1498.57 -1.55699 -3.3851 0
M  V30 15931 H 1498.68 -3.44052 -3.33414 0
M  V30 15932 H 1497.04 -1.7604 -1.84071 0
M  V30 15933 H 1497.83 -3.25471 -1.09194 0
M  V30 15934 N 1500.27 0.920374 -1.27933 0
M  V30 15935 C 1501.68 1.48385 -1.13309 0
M  V30 15936 C 1502.03 1.94202 0.279307 0
M  V30 15937 O 1501.16 1.81855 1.17294 0
M  V30 15938 C 1501.75 2.69681 -2.05079 0
M  V30 15939 C 1500.31 3.22229 -1.94539 0
M  V30 15940 C 1499.46 1.94948 -1.97207 0
M  V30 15941 H 1502.41 0.733744 -1.40719 0
M  V30 15942 H 1502.43 3.44717 -1.6109 0
M  V30 15943 H 1501.94 2.36304 -3.07867 0
M  V30 15944 H 1500.04 3.60348 -0.94764 0
M  V30 15945 H 1500.16 3.87927 -2.81157 0
M  V30 15946 H 1498.52 2.1176 -1.41527 0
M  V30 15947 H 1499.3 1.63875 -3.01662 0
M  V30 15948 N 1501.75 1.10074 1.1279 0
M  V30 15949 C 1502.68 0.768146 2.20503 0
M  V30 15950 C 1503.66 -0.257199 1.68144 0
M  V30 15951 O 1504.85 -0.12379 1.93805 0
M  V30 15952 C 1501.98 0.195125 3.46751 0
M  V30 15953 C 1500.93 1.15074 4.1224 0
M  V30 15954 C 1500.26 0.439098 5.32894 0
M  V30 15955 C 1501.56 2.49584 4.58808 0
M  V30 15956 H 1503.25 1.66876 2.48581 0
M  V30 15957 H 1500.8 0.803806 1.19478 0
M  V30 15958 H 1502.75 -0.0496695 4.21371 0
M  V30 15959 H 1501.47 -0.740717 3.1809 0
M  V30 15960 H 1500.13 1.38092 3.39597 0
M  V30 15961 H 1499.78 -0.501096 5.00498 0
M  V30 15962 H 1499.48 1.07632 5.77658 0
M  V30 15963 H 1501 0.202761 6.10263 0
M  V30 15964 H 1502.42 2.30736 5.24818 0
M  V30 15965 H 1500.81 3.09157 5.14336 0
M  V30 15966 H 1501.88 3.09857 3.72984 0
M  V30 15967 N 1503.23 -1.30138 0.888926 0
M  V30 15968 C 1504.16 -2.27013 0.315904 0
M  V30 15969 C 1505.17 -1.53871 -0.531746 0
M  V30 15970 O 1506.36 -1.75022 -0.350654 0
M  V30 15971 C 1503.46 -3.34087 -0.569119 0
M  V30 15972 C 1502.63 -4.36683 0.250359 0
M  V30 15973 C 1501.69 -5.23149 -0.565783 0
M  V30 15974 O 1500.72 -5.69199 0.0129167 0
M  V30 15975 N 1501.92 -5.49416 -1.8741 0
M  V30 15976 H 1504.69 -2.76821 1.14848 0
M  V30 15977 H 1502.25 -1.43359 0.752311 0
M  V30 15978 H 1504.24 -3.88857 -1.12125 0
M  V30 15979 H 1502.81 -2.84178 -1.30237 0
M  V30 15980 H 1502.03 -3.81723 0.983931 0
M  V30 15981 H 1503.32 -5.02279 0.811964 0
M  V30 15982 H 1502.72 -5.13793 -2.36713 0
M  V30 15983 H 1501.27 -6.07045 -2.37359 0
M  V30 15984 N 1504.71 -0.650285 -1.43559 0
M  V30 15985 C 1505.64 0.0817484 -2.29054 0
M  V30 15986 C 1506.65 0.790023 -1.42346 0
M  V30 15987 O 1507.84 0.648269 -1.66312 0
M  V30 15988 C 1504.94 1.13873 -3.19196 0
M  V30 15989 C 1504.11 0.509177 -4.34426 0
M  V30 15990 C 1503.17 1.46265 -5.05463 0
M  V30 15991 O 1502.2 0.972378 -5.60833 0
M  V30 15992 N 1503.4 2.79668 -5.08691 0
M  V30 15993 H 1506.16 -0.652062 -2.92521 0
M  V30 15994 H 1503.73 -0.49285 -1.54216 0
M  V30 15995 H 1505.72 1.77732 -3.63584 0
M  V30 15996 H 1504.29 1.77454 -2.5735 0
M  V30 15997 H 1503.51 -0.308444 -3.92991 0
M  V30 15998 H 1504.8 0.0695732 -5.08752 0
M  V30 15999 H 1504.19 3.22062 -4.65072 0
M  V30 16000 H 1502.75 3.38838 -5.56805 0
M  V30 16001 N 1506.18 1.52647 -0.392018 0
M  V30 16002 C 1507.12 2.24183 0.476934 0
M  V30 16003 C 1508.13 1.26526 1.02446 0
M  V30 16004 O 1509.32 1.52583 0.92632 0
M  V30 16005 C 1506.42 2.94672 1.67397 0
M  V30 16006 C 1505.59 4.19058 1.25335 0
M  V30 16007 C 1504.65 4.72522 2.31537 0
M  V30 16008 O 1503.68 5.35541 1.92833 0
M  V30 16009 N 1504.88 4.52613 3.63486 0
M  V30 16010 H 1507.64 2.99391 -0.135963 0
M  V30 16011 H 1505.2 1.60419 -0.218514 0
M  V30 16012 H 1507.2 3.27338 2.37975 0
M  V30 16013 H 1505.77 2.22755 2.19315 0
M  V30 16014 H 1504.99 3.92399 0.376352 0
M  V30 16015 H 1506.27 4.99871 0.94901 0
M  V30 16016 H 1505.67 4.02316 3.97692 0
M  V30 16017 H 1504.23 4.89761 4.3009 0
M  V30 16018 N 1507.66 0.121921 1.57128 0
M  V30 16019 C 1508.59 -0.857725 2.12546 0
M  V30 16020 C 1509.61 -1.22797 1.06886 0
M  V30 16021 O 1510.8 -1.17641 1.34249 0
M  V30 16022 C 1507.9 -2.15869 2.61254 0
M  V30 16023 C 1507.07 -1.95969 3.91043 0
M  V30 16024 C 1506.13 -3.09822 4.2532 0
M  V30 16025 O 1505.15 -2.82608 4.94087 0
M  V30 16026 N 1506.36 -4.36333 3.82875 0
M  V30 16027 H 1509.12 -0.384239 2.97227 0
M  V30 16028 H 1506.68 -0.062416 1.6178 0
M  V30 16029 H 1508.67 -2.91035 2.81213 0
M  V30 16030 H 1507.24 -2.54557 1.81437 0
M  V30 16031 H 1506.46 -1.04979 3.79965 0
M  V30 16032 H 1507.75 -1.79981 4.75904 0
M  V30 16033 H 1507.15 -4.61318 3.27417 0
M  V30 16034 H 1505.71 -5.08362 4.07936 0
M  V30 16035 N 1509.14 -1.56867 -0.151857 0
M  V30 16036 C 1510.07 -1.94494 -1.21263 0
M  V30 16037 C 1511.09 -0.84021 -1.39443 0
M  V30 16038 O 1512.27 -1.11863 -1.391 0
M  V30 16039 C 1509.37 -2.19952 -2.57826 0
M  V30 16040 C 1508.55 -3.51227 -2.60689 0
M  V30 16041 C 1507.61 -3.65282 -3.78756 0
M  V30 16042 O 1506.63 -4.3772 -3.63854 0
M  V30 16043 N 1507.83 -3.01582 -4.96012 0
M  V30 16044 H 1510.6 -2.86092 -0.892845 0
M  V30 16045 H 1508.16 -1.58258 -0.341463 0
M  V30 16046 H 1510.15 -2.266 -3.35312 0
M  V30 16047 H 1508.72 -1.34643 -2.82117 0
M  V30 16048 H 1507.94 -3.56062 -1.69155 0
M  V30 16049 H 1509.23 -4.37574 -2.59628 0
M  V30 16050 H 1508.63 -2.42637 -5.11022 0
M  V30 16051 H 1507.19 -3.13799 -5.71291 0
M  V30 16052 N 1510.62 0.421051 -1.51871 0
M  V30 16053 C 1512.03 1.00033 -1.5764 0
M  V30 16054 C 1512.38 1.91875 -0.409665 0
M  V30 16055 O 1511.51 2.11201 0.471516 0
M  V30 16056 C 1512.1 1.82099 -2.85701 0
M  V30 16057 C 1510.66 2.35049 -2.93988 0
M  V30 16058 C 1509.81 1.14703 -2.52465 0
M  V30 16059 H 1512.76 0.201715 -1.57413 0
M  V30 16060 H 1512.78 2.67719 -2.70382 0
M  V30 16061 H 1512.29 1.15229 -3.706 0
M  V30 16062 H 1510.39 3.05327 -2.13556 0
M  V30 16063 H 1510.5 2.66731 -3.97984 0
M  V30 16064 H 1508.87 1.49736 -2.06037 0
M  V30 16065 H 1509.65 0.494171 -3.39725 0
M  V30 16066 N 1512.1 1.42293 0.677538 0
M  V30 16067 C 1513.51 1.37948 1.25806 0
M  V30 16068 C 1513.86 0.071408 1.9607 0
M  V30 16069 O 1512.98 -0.829921 1.99853 0
M  V30 16070 C 1513.58 2.49875 2.28797 0
M  V30 16071 C 1512.14 2.48872 2.82382 0
M  V30 16072 C 1511.28 2.28804 1.56665 0
M  V30 16073 H 1514.24 1.51546 0.471102 0
M  V30 16074 H 1514.26 2.19969 3.10474 0
M  V30 16075 H 1513.77 3.45065 1.77629 0
M  V30 16076 H 1511.87 1.57492 3.37679 0
M  V30 16077 H 1511.98 3.45816 3.31585 0
M  V30 16078 H 1510.35 1.77014 1.83135 0
M  V30 16079 H 1511.13 3.26046 1.07467 0
M  V30 16080 N 1513.57 -0.913576 1.28419 0
M  V30 16081 C 1514.99 -1.47782 1.14094 0
M  V30 16082 C 1515.34 -1.94347 -0.269004 0
M  V30 16083 O 1514.46 -1.82474 -1.16328 0
M  V30 16084 C 1515.06 -2.6859 2.06507 0
M  V30 16085 C 1513.62 -3.21193 1.96245 0
M  V30 16086 C 1512.76 -1.939 1.98238 0
M  V30 16087 H 1515.71 -0.726271 1.41106 0
M  V30 16088 H 1515.73 -3.43858 1.62916 0
M  V30 16089 H 1515.25 -2.34668 3.09116 0
M  V30 16090 H 1513.35 -3.5984 0.966737 0
M  V30 16091 H 1513.46 -3.8643 2.83211 0
M  V30 16092 H 1511.82 -2.11006 1.42648 0
M  V30 16093 H 1512.61 -1.62273 3.02527 0
M  V30 16094 N 1515.05 -1.1067 -1.12204 0
M  V30 16095 C 1515.98 -0.715581 -2.17743 0
M  V30 16096 C 1517 0.248892 -1.60886 0
M  V30 16097 O 1518.19 0.0329917 -1.7847 0
M  V30 16098 C 1515.29 -0.0356388 -3.38881 0
M  V30 16099 C 1514.46 -1.0249 -4.25223 0
M  V30 16100 C 1513.52 -0.375998 -5.24855 0
M  V30 16101 O 1512.54 -1.02753 -5.59849 0
M  V30 16102 N 1513.75 0.864525 -5.74026 0
M  V30 16103 H 1516.51 -1.62362 -2.5191 0
M  V30 16104 H 1514.07 -0.995851 -1.2765 0
M  V30 16105 H 1516.06 0.41 -4.02618 0
M  V30 16106 H 1514.63 0.77485 -3.02845 0
M  V30 16107 H 1513.85 -1.64874 -3.58065 0
M  V30 16108 H 1515.14 -1.69446 -4.79756 0
M  V30 16109 H 1514.54 1.41317 -5.47764 0
M  V30 16110 H 1513.1 1.25327 -6.39638 0
M  V30 16111 N 1516.53 1.29665 -0.895815 0
M  V30 16112 C 1517.46 2.26842 -0.327939 0
M  V30 16113 C 1518.48 1.54151 0.523578 0
M  V30 16114 O 1519.66 1.75205 0.341367 0
M  V30 16115 C 1516.76 3.34384 0.551393 0
M  V30 16116 C 1515.94 4.36544 -0.273514 0
M  V30 16117 C 1515 5.23442 0.538031 0
M  V30 16118 O 1514.02 5.69184 -0.0431025 0
M  V30 16119 N 1515.22 5.50402 1.84493 0
M  V30 16120 H 1517.99 2.76208 -1.16315 0
M  V30 16121 H 1515.55 1.42958 -0.759903 0
M  V30 16122 H 1517.54 3.89446 1.10062 0
M  V30 16123 H 1516.11 2.84864 1.28728 0
M  V30 16124 H 1515.33 3.81196 -1.00416 0
M  V30 16125 H 1516.62 5.01842 -0.838589 0
M  V30 16126 H 1516.02 5.15041 2.33985 0
M  V30 16127 H 1514.58 6.08295 2.34137 0
M  V30 16128 N 1518.01 0.657889 1.43212 0
M  V30 16129 C 1518.96 -0.0308596 2.30779 0
M  V30 16130 C 1519.93 -0.809951 1.45014 0
M  V30 16131 O 1521.11 -0.785615 1.73876 0
M  V30 16132 C 1518.25 -0.988048 3.30653 0
M  V30 16133 C 1517.36 -0.204567 4.31515 0
M  V30 16134 C 1516.5 -1.15598 5.1847 0
M  V30 16135 C 1515.54 -0.363197 6.11022 0
M  V30 16136 N 1514.67 -1.26644 6.90584 0
M  V30 16137 H 1519.51 0.721745 2.89128 0
M  V30 16138 H 1517.05 0.367677 1.42431 0
M  V30 16139 H 1519.01 -1.55666 3.87071 0
M  V30 16140 H 1517.64 -1.70747 2.73944 0
M  V30 16141 H 1516.69 0.48041 3.77354 0
M  V30 16142 H 1518 0.411684 4.97098 0
M  V30 16143 H 1517.16 -1.79507 5.79536 0
M  V30 16144 H 1515.9 -1.80613 4.53023 0
M  V30 16145 H 1514.9 0.28922 5.49039 0
M  V30 16146 H 1516.13 0.28262 6.78512 0
M  V30 16147 H 1514.07 -1.90331 6.27782 0
M  V30 16148 H 1513.99 -0.70486 7.52707 0
M  V30 16149 H 1515.26 -1.89353 7.56152 0
M  V30 16150 N 1519.49 -1.52437 0.400108 0
M  V30 16151 C 1520.71 -2.0661 -0.180861 0
M  V30 16152 C 1521.14 -1.269 -1.38845 0
M  V30 16153 O 1520.49 -0.296862 -1.78853 0
M  V30 16154 C 1520.54 -3.56851 -0.518595 0
M  V30 16155 O 1519.65 -3.79634 -1.61095 0
M  V30 16156 H 1518.99 -0.663752 -0.0181348 0
M  V30 16157 H 1521.52 -1.96479 0.570702 0
M  V30 16158 H 1521.53 -4.00478 -0.779817 0
M  V30 16159 H 1520.2 -4.14302 0.364216 0
M  V30 16160 H 1518.78 -3.47892 -1.3426 0
M  V30 16161 N 1520.96 -0.130252 -1.57061 0
M  V30 16162 C 1521.89 0.812189 -2.18919 0
M  V30 16163 C 1522.88 1.2692 -1.13249 0
M  V30 16164 O 1524.06 1.32978 -1.41529 0
M  V30 16165 C 1521.19 2.05803 -2.79754 0
M  V30 16166 C 1520.14 1.73841 -3.91105 0
M  V30 16167 C 1519.47 3.05549 -4.38799 0
M  V30 16168 C 1520.77 0.997991 -5.12677 0
M  V30 16169 H 1522.46 0.296692 -2.97926 0
M  V30 16170 H 1520.01 0.141265 -1.43305 0
M  V30 16171 H 1521.96 2.72201 -3.21691 0
M  V30 16172 H 1520.69 2.59697 -1.98053 0
M  V30 16173 H 1519.35 1.09828 -3.49762 0
M  V30 16174 H 1518.99 3.57399 -3.53942 0
M  V30 16175 H 1518.69 2.84932 -5.13894 0
M  V30 16176 H 1520.22 3.73045 -4.83394 0
M  V30 16177 H 1521.63 1.56372 -5.51562 0
M  V30 16178 H 1520.03 0.892378 -5.93428 0
M  V30 16179 H 1521.1 -0.0132936 -4.84898 0
M  V30 16180 N 1522.44 1.56945 0.143535 0
M  V30 16181 C 1523.38 1.93682 1.20675 0
M  V30 16182 C 1524.35 0.803117 1.41382 0
M  V30 16183 O 1525.54 1.05905 1.55937 0
M  V30 16184 C 1522.67 2.21185 2.56505 0
M  V30 16185 C 1521.71 3.43817 2.52372 0
M  V30 16186 S 1522.54 4.9726 1.98728 0
M  V30 16187 C 1523.7 5.27889 3.3628 0
M  V30 16188 H 1523.93 2.83561 0.893345 0
M  V30 16189 H 1521.47 1.50397 0.349294 0
M  V30 16190 H 1523.42 2.3771 3.3467 0
M  V30 16191 H 1522.09 1.31964 2.85034 0
M  V30 16192 H 1521.28 3.60349 3.5237 0
M  V30 16193 H 1520.88 3.26552 1.82318 0
M  V30 16194 H 1523.17 5.21568 4.32404 0
M  V30 16195 H 1524.12 6.29318 3.24598 0
M  V30 16196 H 1524.52 4.55398 3.33576 0
M  V30 16197 N 1523.92 -0.412991 1.52093 0
M  V30 16198 C 1525.2 -1.17304 1.56522 0
M  V30 16199 C 1525.58 -2.0828 0.343926 0
M  V30 16200 O 1524.93 -2.18473 -0.669475 0
M  V30 16201 C 1525.14 -1.95371 2.89191 0
M  V30 16202 C 1526.48 -2.51571 3.42048 0
M  V30 16203 O 1527.51 -2.05555 2.90905 0
M  V30 16204 O 1526.37 -3.35563 4.31347 0
M  V30 16205 H 1523.46 -0.535386 0.63031 0
M  V30 16206 H 1526.01 -0.420084 1.64418 0
M  V30 16207 H 1524.78 -1.28701 3.69529 0
M  V30 16208 H 1524.4 -2.7768 2.84569 0
M  V30 16209 N 1525.4 -1.4265 -0.669982 0
M  V30 16210 C 1526.33 -1.42457 -1.79551 0
M  V30 16211 C 1527.34 -0.322966 -1.59564 0
M  V30 16212 O 1528.53 -0.586359 -1.68594 0
M  V30 16213 C 1525.63 -1.20561 -3.16731 0
M  V30 16214 C 1524.81 -2.43246 -3.63525 0
M  V30 16215 C 1523.87 -2.16823 -4.79452 0
M  V30 16216 O 1522.89 -2.90058 -4.8975 0
M  V30 16217 N 1524.09 -1.17436 -5.68497 0
M  V30 16218 H 1526.86 -2.39474 -1.80201 0
M  V30 16219 H 1524.42 -1.37591 -0.853244 0
M  V30 16220 H 1526.41 -1.00794 -3.91947 0
M  V30 16221 H 1524.98 -0.320497 -3.10953 0
M  V30 16222 H 1524.2 -2.78549 -2.78934 0
M  V30 16223 H 1525.49 -3.24931 -3.91532 0
M  V30 16224 H 1524.89 -0.568736 -5.62834 0
M  V30 16225 H 1523.44 -1.03655 -6.43505 0
M  V30 16226 N 1526.88 0.906753 -1.28902 0
M  V30 16227 C 1527.81 2.02663 -1.15974 0
M  V30 16228 C 1528.79 1.70009 -0.0557202 0
M  V30 16229 O 1529.97 1.92786 -0.233952 0
M  V30 16230 C 1527.1 3.37283 -0.828115 0
M  V30 16231 C 1526.06 3.84123 -1.88767 0
M  V30 16232 C 1525.38 5.15787 -1.40953 0
M  V30 16233 C 1526.68 4.05217 -3.2954 0
M  V30 16234 H 1528.38 2.13738 -2.09658 0
M  V30 16235 H 1525.92 1.02699 -1.0094 0
M  V30 16236 H 1527.88 4.15127 -0.724408 0
M  V30 16237 H 1526.6 3.2628 0.14443 0
M  V30 16238 H 1525.26 3.0849 -1.98065 0
M  V30 16239 H 1524.91 5.01194 -0.425848 0
M  V30 16240 H 1524.61 5.48098 -2.11807 0
M  V30 16241 H 1526.13 5.9618 -1.31918 0
M  V30 16242 H 1527.55 4.73565 -3.23124 0
M  V30 16243 H 1525.94 4.48871 -3.9829 0
M  V30 16244 H 1527.01 3.0979 -3.73039 0
M  V30 16245 N 1528.36 1.11264 1.11616 0
M  V30 16246 C 1529.29 0.727118 2.17361 0
M  V30 16247 C 1530.3 -0.240356 1.61016 0
M  V30 16248 O 1531.49 -0.0235265 1.78484 0
M  V30 16249 C 1528.59 0.05361 3.38858 0
M  V30 16250 C 1527.76 1.04744 4.24673 0
M  V30 16251 C 1526.82 0.403827 5.24648 0
M  V30 16252 O 1525.85 1.0572 5.59296 0
M  V30 16253 N 1527.05 -0.834071 5.74477 0
M  V30 16254 H 1529.81 1.63696 2.51045 0
M  V30 16255 H 1527.38 1.00261 1.2712 0
M  V30 16256 H 1529.37 -0.388643 4.0283 0
M  V30 16257 H 1527.94 -0.758778 3.03251 0
M  V30 16258 H 1527.16 1.6677 3.57185 0
M  V30 16259 H 1528.45 1.71988 4.7885 0
M  V30 16260 H 1527.84 -1.3841 5.48506 0
M  V30 16261 H 1526.4 -1.21933 6.40293 0
M  V30 16262 N 1529.83 -1.29188 0.902679 0
M  V30 16263 C 1531.08 -1.95052 0.529076 0
M  V30 16264 C 1531.4 -1.7149 -0.92824 0
M  V30 16265 O 1530.67 -1.04834 -1.65489 0
M  V30 16266 H 1529.25 -0.721725 0.192671 0
M  V30 16267 H 1531.91 -1.57384 1.14962 0
M  V30 16268 H 1531.01 -3.03819 0.714179 0
M  V30 16269 N 1531.31 -0.665475 -1.42861 0
M  V30 16270 C 1532.56 -0.184156 -2.01962 0
M  V30 16271 C 1532.89 1.20301 -1.52451 0
M  V30 16272 O 1532.17 1.80573 -0.722756 0
M  V30 16273 C 1532.45 -0.208497 -3.59496 0
M  V30 16274 C 1532.3 -1.63045 -4.19209 0
M  V30 16275 C 1533.62 0.448421 -4.3781 0
M  V30 16276 H 1530.74 -0.0683924 -0.73382 0
M  V30 16277 H 1533.38 -0.84849 -1.70002 0
M  V30 16278 H 1531.53 0.357179 -3.86855 0
M  V30 16279 H 1533.2 -2.24766 -4.02837 0
M  V30 16280 H 1531.45 -2.17401 -3.75392 0
M  V30 16281 H 1532.12 -1.59924 -5.28326 0
M  V30 16282 H 1534.59 -0.0330053 -4.16087 0
M  V30 16283 H 1533.47 0.400713 -5.47435 0
M  V30 16284 H 1533.73 1.52454 -4.14982 0
M  V30 16285 N 1532.79 1.52222 -0.408187 0
M  V30 16286 C 1534.04 2.02102 0.168154 0
M  V30 16287 C 1534.37 1.2933 1.4487 0
M  V30 16288 O 1533.64 0.399336 1.90356 0
M  V30 16289 C 1533.93 3.57679 0.416821 0
M  V30 16290 C 1533.78 4.41101 -0.880335 0
M  V30 16291 C 1535.1 4.23442 1.19936 0
M  V30 16292 H 1532.22 0.734583 0.0596402 0
M  V30 16293 H 1534.86 1.82121 -0.541467 0
M  V30 16294 H 1533.01 3.74835 1.02131 0
M  V30 16295 H 1534.68 4.35658 -1.51656 0
M  V30 16296 H 1532.92 4.07353 -1.49152 0
M  V30 16297 H 1533.6 5.48031 -0.660748 0
M  V30 16298 H 1536.07 4.10379 0.687605 0
M  V30 16299 H 1534.95 5.32239 1.3421 0
M  V30 16300 H 1535.21 3.82335 2.21973 0
M  V30 16301 N 1534.27 0.138579 1.5699 0
M  V30 16302 C 1535.49 -0.525074 2.00643 0
M  V30 16303 C 1535.92 -1.58174 1.01796 0
M  V30 16304 O 1535.28 -1.81298 -0.00754003 0
M  V30 16305 C 1535.32 -1.11019 3.43085 0
M  V30 16306 O 1534.43 -2.22529 3.4721 0
M  V30 16307 H 1533.77 -0.129283 0.651292 0
M  V30 16308 H 1536.3 0.23283 2.03271 0
M  V30 16309 H 1536.31 -1.44093 3.81708 0
M  V30 16310 H 1534.98 -0.336325 4.14538 0
M  V30 16311 H 1533.56 -1.90747 3.20422 0
M  V30 16312 N 1535.75 -1.57019 -0.13521 0
M  V30 16313 C 1536.69 -2.0011 -1.18569 0
M  V30 16314 C 1537.69 -0.895372 -1.43804 0
M  V30 16315 O 1538.89 -1.08057 -1.43957 0
M  V30 16316 H 1535.27 -0.637176 -0.399388 0
M  V30 16317 H 1537.24 -2.87597 -0.795636 0
M  V30 16318 C 1535.99 -2.40769 -2.50849 0
M  V30 16319 H 1535.31 -3.25412 -2.32265 0
M  V30 16320 H 1536.75 -2.74733 -3.22951 0
M  V30 16321 C 1535.21 -1.26494 -3.12251 0
M  V30 16322 O 1535.74 -0.572067 -3.97606 0
M  V30 16323 N 1533.95 -1.02615 -2.7188 0
M  V30 16324 H 1533.49 -1.59136 -2.02567 0
M  V30 16325 H 1533.45 -0.263464 -3.13294 0
M  V30 16326 N 1537.22 0.404919 -1.52309 0
M  V30 16327 C 1538.47 1.15148 -1.66575 0
M  V30 16328 C 1538.8 1.9039 -0.397754 0
M  V30 16329 O 1538.05 1.85639 0.619407 0
M  V30 16330 C 1538.35 2.16817 -2.84121 0
M  V30 16331 C 1538.02 1.58352 -4.22179 0
M  V30 16332 C 1536.68 1.42132 -4.5973 0
M  V30 16333 C 1539.03 1.15695 -5.08197 0
M  V30 16334 C 1536.36 0.817785 -5.80973 0
M  V30 16335 C 1538.71 0.56758 -6.30049 0
M  V30 16336 C 1537.38 0.392547 -6.66345 0
M  V30 16337 H 1536.65 0.421357 -0.60954 0
M  V30 16338 H 1539.29 0.438148 -1.8642 0
M  V30 16339 H 1537.6 2.94311 -2.58628 0
M  V30 16340 H 1539.3 2.74463 -2.92355 0
M  V30 16341 H 1535.89 1.71961 -3.92591 0
M  V30 16342 H 1540.07 1.27034 -4.79767 0
M  V30 16343 H 1535.33 0.670228 -6.07715 0
M  V30 16344 H 1539.5 0.228674 -6.96024 0
M  V30 16345 H 1537.13 -0.0772156 -7.60161 0
M  V30 16346 N 1538.7 1.43003 0.662408 0
M  V30 16347 C 1539.93 1.47766 1.45533 0
M  V30 16348 C 1540.35 0.0940298 1.87865 0
M  V30 16349 O 1539.71 -0.910252 1.56793 0
M  V30 16350 C 1539.76 2.42084 2.6726 0
M  V30 16351 O 1538.86 1.90076 3.65985 0
M  V30 16352 H 1538.2 0.500167 0.436725 0
M  V30 16353 H 1540.73 1.87823 0.811399 0
M  V30 16354 H 1540.74 2.5908 3.15185 0
M  V30 16355 H 1539.42 3.42601 2.3579 0
M  V30 16356 H 1538 1.82695 3.2508 0
M  V30 16357 N 1540.18 -0.899904 1.29381 0
M  V30 16358 C 1541.41 -1.68383 1.20227 0
M  V30 16359 C 1541.82 -1.87305 -0.237135 0
M  V30 16360 O 1541.18 -1.40992 -1.15877 0
M  V30 16361 C 1541.23 -3.06845 1.91124 0
M  V30 16362 O 1540.95 -2.88787 3.29444 0
M  V30 16363 C 1542.45 -4.01253 1.88444 0
M  V30 16364 H 1539.67 -0.525917 0.416717 0
M  V30 16365 H 1542.22 -1.12537 1.7075 0
M  V30 16366 H 1540.37 -3.59467 1.44438 0
M  V30 16367 H 1540.79 -3.7652 3.65148 0
M  V30 16368 H 1542.26 -4.95824 2.42616 0
M  V30 16369 H 1542.74 -4.30699 0.859925 0
M  V30 16370 H 1543.34 -3.54562 2.34874 0
M  V30 16371 N 1541.66 -1.11854 -1.11024 0
M  V30 16372 C 1542.62 -0.784033 -2.15373 0
M  V30 16373 C 1543.62 0.198686 -1.59568 0
M  V30 16374 O 1544.81 -0.0263428 -1.7418 0
M  V30 16375 C 1541.94 -0.163987 -3.40505 0
M  V30 16376 H 1543.14 -1.70849 -2.46477 0
M  V30 16377 H 1540.69 -0.920988 -1.26283 0
M  V30 16378 H 1541.42 0.770483 -3.15014 0
M  V30 16379 H 1541.21 -0.871447 -3.82293 0
M  V30 16380 H 1542.7 0.0537739 -4.17565 0
M  V30 16381 N 1543.14 1.28707 -0.909517 0
M  V30 16382 C 1544.39 1.94437 -0.536401 0
M  V30 16383 C 1544.7 1.72416 0.923685 0
M  V30 16384 O 1545.9 2.32333 1.40477 0
M  V30 16385 C 1544.36 3.48246 -0.908455 0
M  V30 16386 C 1543.97 3.79051 -2.38798 0
M  V30 16387 C 1545.71 4.20156 -0.605721 0
M  V30 16388 C 1543.62 5.2615 -2.70038 0
M  V30 16389 H 1542.55 0.727842 -0.196882 0
M  V30 16390 H 1545.2 1.46283 -1.10786 0
M  V30 16391 H 1543.58 3.95107 -0.265829 0
M  V30 16392 H 1544.76 3.43014 -3.07698 0
M  V30 16393 H 1543.07 3.20303 -2.66074 0
M  V30 16394 H 1545.67 5.28439 -0.815849 0
M  V30 16395 H 1546.01 4.13792 0.456266 0
M  V30 16396 H 1546.54 3.79059 -1.20662 0
M  V30 16397 H 1543.28 5.37587 -3.75073 0
M  V30 16398 H 1542.8 5.63399 -2.05771 0
M  V30 16399 H 1544.48 5.93846 -2.56819 0
M  V30 16400 N 1544.61 0.673042 1.42506 0
M  V30 16401 C 1546.03 0.272049 1.84707 0
M  V30 16402 C 1546.38 -1.18545 1.56338 0
M  V30 16403 O 1545.5 -1.9073 1.02231 0
M  V30 16404 C 1546.1 0.486977 3.35282 0
M  V30 16405 C 1544.66 0.140122 3.76139 0
M  V30 16406 C 1543.8 0.780276 2.66096 0
M  V30 16407 H 1546.75 0.875329 1.32377 0
M  V30 16408 H 1546.77 -0.261443 3.79601 0
M  V30 16409 H 1546.29 1.54784 3.55898 0
M  V30 16410 H 1544.39 -0.917366 3.6113 0
M  V30 16411 H 1544.5 0.579417 4.75583 0
M  V30 16412 H 1542.86 0.211756 2.53818 0
M  V30 16413 H 1543.65 1.84456 2.89536 0
M  V30 16414 N 1546.09 -1.52004 0.416254 0
M  V30 16415 C 1547.37 -1.94403 -0.216103 0
M  V30 16416 C 1547.75 -1.35362 -1.61989 0
M  V30 16417 O 1547.1 -0.532242 -2.22215 0
M  V30 16418 C 1547.31 -3.48336 -0.215225 0
M  V30 16419 C 1548.66 -4.22406 -0.431109 0
M  V30 16420 O 1549.68 -3.54982 -0.294271 0
M  V30 16421 O 1548.54 -5.4198 -0.70145 0
M  V30 16422 H 1545.63 -0.814838 -0.141306 0
M  V30 16423 H 1548.18 -1.62983 0.472712 0
M  V30 16424 H 1546.95 -3.83709 0.767004 0
M  V30 16425 H 1546.57 -3.86137 -0.947841 0
M  V30 16426 N 1547.57 -0.146903 -1.56914 0
M  V30 16427 C 1548.82 0.504234 -1.96122 0
M  V30 16428 C 1549.15 1.64879 -1.03175 0
M  V30 16429 O 1548.4 1.95605 -0.0609397 0
M  V30 16430 C 1548.7 1.05159 -3.41579 0
M  V30 16431 C 1548.37 0.0254845 -4.50893 0
M  V30 16432 C 1547.03 -0.256589 -4.80515 0
M  V30 16433 C 1549.38 -0.672284 -5.16846 0
M  V30 16434 C 1546.71 -1.24224 -5.73398 0
M  V30 16435 C 1549.06 -1.64675 -6.1079 0
M  V30 16436 C 1547.72 -1.93652 -6.38792 0
M  V30 16437 H 1546.99 0.184512 -0.71766 0
M  V30 16438 H 1549.64 -0.233712 -1.90069 0
M  V30 16439 H 1547.95 1.86687 -3.44464 0
M  V30 16440 H 1549.64 1.56398 -3.69244 0
M  V30 16441 H 1546.23 0.255517 -4.27838 0
M  V30 16442 H 1550.42 -0.467555 -4.94093 0
M  V30 16443 H 1545.67 -1.47319 -5.93386 0
M  V30 16444 H 1549.85 -2.19294 -6.60971 0
M  V30 16445 H 1547.47 -2.70179 -7.10568 0
M  V30 16446 N 1549.05 1.57088 0.126881 0
M  V30 16447 C 1550 1.96188 1.16164 0
M  V30 16448 C 1550.98 0.835786 1.3749 0
M  V30 16449 O 1552.17 1.09942 1.38714 0
M  V30 16450 C 1549.3 2.36308 2.49025 0
M  V30 16451 C 1548.39 3.55533 2.31208 0
M  V30 16452 N 1548.78 4.71462 1.83186 0
M  V30 16453 C 1547.08 3.61011 2.61891 0
M  V30 16454 C 1547.78 5.5351 1.7889 0
M  V30 16455 N 1546.76 4.95778 2.22946 0
M  V30 16456 H 1550.56 2.83284 0.782778 0
M  V30 16457 H 1548.07 1.58913 0.334719 0
M  V30 16458 H 1550.07 2.62533 3.23855 0
M  V30 16459 H 1548.73 1.50573 2.87677 0
M  V30 16460 H 1549.74 4.94831 1.5285 0
M  V30 16461 H 1546.42 2.85865 3.04282 0
M  V30 16462 H 1547.81 6.56488 1.43083 0
M  V30 16463 N 1550.53 -0.396836 1.52522 0
M  V30 16464 C 1551.49 -1.46695 1.76106 0
M  V30 16465 C 1552.49 -1.47902 0.631005 0
M  V30 16466 O 1553.68 -1.4921 0.898995 0
M  V30 16467 C 1550.81 -2.86033 1.85467 0
M  V30 16468 H 1552 -1.27071 2.71649 0
M  V30 16469 H 1549.56 -0.628096 1.43125 0
M  V30 16470 H 1550.29 -3.11012 0.918816 0
M  V30 16471 H 1550.08 -2.86559 2.67631 0
M  V30 16472 H 1551.57 -3.63587 2.05412 0
M  V30 16473 N 1552.01 -1.43353 -0.654814 0
M  V30 16474 C 1553.25 -1.451 -1.41682 0
M  V30 16475 C 1553.58 -0.0743864 -1.94057 0
M  V30 16476 O 1552.86 0.904515 -1.72188 0
M  V30 16477 C 1553.14 -2.49204 -2.59941 0
M  V30 16478 C 1553 -3.96134 -2.13069 0
M  V30 16479 C 1554.31 -2.50064 -3.62155 0
M  V30 16480 H 1551.43 -0.528339 -0.513836 0
M  V30 16481 H 1554.08 -1.74892 -0.742489 0
M  V30 16482 H 1552.23 -2.2393 -3.1747 0
M  V30 16483 H 1553.9 -4.32459 -1.60552 0
M  V30 16484 H 1552.14 -4.09042 -1.44455 0
M  V30 16485 H 1552.81 -4.64585 -2.98101 0
M  V30 16486 H 1555.29 -2.72587 -3.14382 0
M  V30 16487 H 1554.16 -3.24849 -4.42452 0
M  V30 16488 H 1554.42 -1.53385 -4.14639 0
M  V30 16489 N 1553.48 0.89303 -1.29857 0
M  V30 16490 C 1554.41 2.01422 -1.18117 0
M  V30 16491 C 1555.39 1.6994 -0.0737487 0
M  V30 16492 O 1556.58 1.92527 -0.254387 0
M  V30 16493 C 1553.71 3.36385 -0.863842 0
M  V30 16494 C 1552.66 3.821 -1.92831 0
M  V30 16495 C 1551.99 5.14263 -1.46415 0
M  V30 16496 C 1553.29 4.01699 -3.33819 0
M  V30 16497 H 1554.98 2.11502 -2.11913 0
M  V30 16498 H 1552.53 1.01622 -1.02024 0
M  V30 16499 H 1554.48 4.14335 -0.768397 0
M  V30 16500 H 1553.21 3.26415 0.109816 0
M  V30 16501 H 1551.87 3.06372 -2.01325 0
M  V30 16502 H 1551.51 5.00714 -0.478983 0
M  V30 16503 H 1551.21 5.45821 -2.17609 0
M  V30 16504 H 1552.74 5.94747 -1.38234 0
M  V30 16505 H 1554.15 4.70111 -3.28129 0
M  V30 16506 H 1552.55 4.44621 -4.03029 0
M  V30 16507 H 1553.62 3.05816 -3.76304 0
M  V30 16508 N 1554.96 1.12442 1.10429 0
M  V30 16509 C 1555.92 0.795443 2.14954 0
M  V30 16510 C 1556.92 -0.19022 1.59671 0
M  V30 16511 O 1558.11 0.0355797 1.74164 0
M  V30 16512 C 1555.25 0.182043 3.40414 0
M  V30 16513 H 1556.44 1.72153 2.45567 0
M  V30 16514 H 1553.99 0.927672 1.25793 0
M  V30 16515 H 1554.73 -0.753766 3.15419 0
M  V30 16516 H 1554.51 0.891708 3.81826 0
M  V30 16517 H 1556 -0.0316286 4.17588 0
M  V30 16518 N 1556.44 -1.28223 0.91633 0
M  V30 16519 C 1557.69 -1.9448 0.549734 0
M  V30 16520 C 1558.01 -1.72465 -0.909999 0
M  V30 16521 O 1557.28 -1.06583 -1.64368 0
M  V30 16522 H 1555.86 -0.719641 0.200315 0
M  V30 16523 H 1558.52 -1.56156 1.16625 0
M  V30 16524 H 1557.62 -3.03044 0.746363 0
M  V30 16525 N 1557.92 -0.68059 -1.42147 0
M  V30 16526 C 1559.33 -0.281841 -1.8456 0
M  V30 16527 C 1559.68 1.17714 -1.56965 0
M  V30 16528 O 1558.8 1.90185 -1.03241 0
M  V30 16529 C 1559.4 -0.504751 -3.35019 0
M  V30 16530 C 1557.96 -0.160067 -3.76059 0
M  V30 16531 C 1557.11 -0.794377 -2.65678 0
M  V30 16532 H 1560.06 -0.882337 -1.31911 0
M  V30 16533 H 1560.08 0.241308 -3.79734 0
M  V30 16534 H 1559.59 -1.56669 -3.55072 0
M  V30 16535 H 1557.69 0.898202 -3.61612 0
M  V30 16536 H 1557.8 -0.60463 -4.75269 0
M  V30 16537 H 1556.17 -0.225213 -2.53702 0
M  V30 16538 H 1556.95 -1.85989 -2.88553 0
M  V30 16539 N 1559.4 1.51781 -0.424309 0
M  V30 16540 C 1560.64 2.0157 0.146203 0
M  V30 16541 C 1560.96 1.3111 1.44344 0
M  V30 16542 O 1560.23 0.441631 1.90857 0
M  V30 16543 H 1558.81 0.744821 0.057019 0
M  V30 16544 H 1561.48 1.8656 -0.564031 0
M  V30 16545 H 1560.57 3.10335 0.331464 0
M  V30 16546 N 1560.87 0.155222 1.56834 0
M  V30 16547 C 1562.12 -0.49285 1.95998 0
M  V30 16548 C 1562.44 -1.64857 1.0415 0
M  V30 16549 O 1561.71 -1.9562 0.104654 0
M  V30 16550 H 1560.29 -0.185063 0.723713 0
M  V30 16551 H 1562.95 0.232644 1.93507 0
M  V30 16552 H 1562.05 -0.863552 2.99915 0
M  V30 16553 N 1562.35 -1.57153 -0.118549 0
M  V30 16554 C 1563.76 -1.74046 -0.675645 0
M  V30 16555 C 1564.11 -0.773974 -1.80289 0
M  V30 16556 O 1563.24 0.0530041 -2.16335 0
M  V30 16557 C 1563.83 -3.15591 -1.23239 0
M  V30 16558 C 1562.39 -3.33988 -1.73577 0
M  V30 16559 C 1561.54 -2.69916 -0.63567 0
M  V30 16560 H 1564.49 -1.58336 0.10737 0
M  V30 16561 H 1564.51 -3.17166 -2.10205 0
M  V30 16562 H 1564.02 -3.8591 -0.411744 0
M  V30 16563 H 1562.12 -2.68712 -2.58118 0
M  V30 16564 H 1562.24 -4.42154 -1.84491 0
M  V30 16565 H 1560.6 -2.31163 -1.06939 0
M  V30 16566 H 1561.38 -3.42859 0.174005 0
M  V30 16567 N 1563.83 0.388742 -1.5273 0
M  V30 16568 C 1565.08 1.13151 -1.67455 0
M  V30 16569 C 1565.4 1.90487 -0.417095 0
M  V30 16570 O 1564.67 1.87469 0.568509 0
M  V30 16571 H 1563.25 0.4207 -0.617269 0
M  V30 16572 H 1565.91 0.44098 -1.89846 0
M  V30 16573 H 1565.01 1.83427 -2.52509 0
M  V30 16574 N 1565.31 1.43698 0.647203 0
M  V30 16575 C 1566.26 1.49599 1.78109 0
M  V30 16576 C 1567.25 0.369047 1.65331 0
M  V30 16577 O 1568.46 0.543303 1.71605 0
M  V30 16578 H 1564.83 0.46911 0.587741 0
M  V30 16579 H 1566.8 2.45064 1.70253 0
M  V30 16580 C 1565.55 1.44192 3.16392 0
M  V30 16581 H 1564.87 2.30216 3.26865 0
M  V30 16582 H 1566.31 1.52382 3.95671 0
M  V30 16583 C 1564.77 0.16036 3.36518 0
M  V30 16584 O 1565.3 -0.77593 3.94135 0
M  V30 16585 N 1563.51 0.0686236 2.90519 0
M  V30 16586 H 1563.06 0.831363 2.43816 0
M  V30 16587 H 1563.01 -0.78814 3.04361 0
M  V30 16588 N 1566.79 -0.886131 1.30328 0
M  V30 16589 C 1568.03 -1.6346 1.18849 0
M  V30 16590 C 1568.36 -1.93295 -0.257285 0
M  V30 16591 O 1567.63 -1.56858 -1.17356 0
M  V30 16592 H 1566.21 -0.605932 0.43687 0
M  V30 16593 H 1568.87 -1.06177 1.63439 0
M  V30 16594 H 1567.96 -2.58522 1.7485 0
M  V30 16595 N 1568.26 -1.13026 -1.09832 0
M  V30 16596 C 1569.19 -0.826338 -2.18389 0
M  V30 16597 C 1570.18 0.212529 -1.68767 0
M  V30 16598 O 1571.36 0.072363 -1.94065 0
M  V30 16599 C 1568.49 -0.286991 -3.46112 0
M  V30 16600 C 1567.44 -1.25963 -4.09044 0
M  V30 16601 C 1566.77 -0.580231 -5.31542 0
M  V30 16602 C 1568.07 -2.61661 -4.5203 0
M  V30 16603 H 1569.76 -1.73408 -2.4407 0
M  V30 16604 H 1567.31 -0.835201 -1.17305 0
M  V30 16605 H 1569.26 -0.062067 -4.21354 0
M  V30 16606 H 1567.99 0.656121 -3.19942 0
M  V30 16607 H 1566.65 -1.47047 -3.35816 0
M  V30 16608 H 1566.29 0.368222 -5.0165 0
M  V30 16609 H 1565.99 -1.2291 -5.74601 0
M  V30 16610 H 1567.52 -0.36449 -6.09511 0
M  V30 16611 H 1568.93 -2.44569 -5.18516 0
M  V30 16612 H 1567.33 -3.22685 -5.05959 0
M  V30 16613 H 1568.4 -3.19637 -3.64637 0
M  V30 16614 N 1569.74 1.27735 -0.923117 0
M  V30 16615 C 1571.16 1.46952 -0.622666 0
M  V30 16616 C 1571.36 1.8364 0.829384 0
M  V30 16617 O 1570.41 1.94705 1.60767 0
M  V30 16618 C 1571.73 2.56545 -1.56861 0
M  V30 16619 C 1573.28 2.70408 -1.57634 0
M  V30 16620 C 1573.75 3.83154 -2.50913 0
M  V30 16621 N 1575.24 3.90521 -2.49093 0
M  V30 16622 C 1575.98 4.77167 -3.17962 0
M  V30 16623 N 1575.47 5.68334 -3.96193 0
M  V30 16624 N 1577.27 4.70857 -3.07002 0
M  V30 16625 H 1569.42 1.02205 -1.86193 0
M  V30 16626 H 1571.68 0.509982 -0.799138 0
M  V30 16627 H 1571.39 2.3637 -2.60427 0
M  V30 16628 H 1571.26 3.53839 -1.30681 0
M  V30 16629 H 1573.65 2.89967 -0.548005 0
M  V30 16630 H 1573.73 1.73615 -1.8786 0
M  V30 16631 H 1573.37 3.64349 -3.53853 0
M  V30 16632 H 1573.3 4.79365 -2.17984 0
M  V30 16633 H 1575.79 3.25329 -1.92274 0
M  V30 16634 H 1576.11 6.31298 -4.45738 0
M  V30 16635 H 1574.45 5.68144 -4.00297 0
M  V30 16636 H 1577.64 3.98629 -2.45382 0
M  V30 16637 H 1577.81 5.38166 -3.60945 0
M  V30 16638 N 1571.22 0.688118 1.41784 0
M  V30 16639 C 1572.45 0.223231 2.06195 0
M  V30 16640 C 1572.87 -1.11601 1.51416 0
M  V30 16641 O 1572.23 -1.69701 0.638059 0
M  V30 16642 C 1572.28 0.183257 3.60134 0
M  V30 16643 O 1571.38 -0.844186 4.03667 0
M  V30 16644 H 1570.72 0.110925 0.654669 0
M  V30 16645 H 1573.25 0.940882 1.81683 0
M  V30 16646 H 1573.26 0.0115951 4.07998 0
M  V30 16647 H 1571.94 1.16072 3.99375 0
M  V30 16648 H 1570.51 -0.642484 3.67323 0
M  V30 16649 N 1572.7 -1.51554 0.432352 0
M  V30 16650 C 1573.63 -2.30514 -0.372243 0
M  V30 16651 C 1574.61 -1.35712 -1.02549 0
M  V30 16652 O 1575.79 -1.6463 -1.03009 0
M  V30 16653 C 1572.92 -3.14353 -1.47646 0
M  V30 16654 C 1571.88 -4.17392 -0.946974 0
M  V30 16655 C 1571.2 -4.89721 -2.14656 0
M  V30 16656 C 1572.5 -5.22298 0.0151377 0
M  V30 16657 H 1574.2 -2.98024 0.28668 0
M  V30 16658 H 1571.74 -1.43325 0.139315 0
M  V30 16659 H 1573.7 -3.68369 -2.04651 0
M  V30 16660 H 1572.42 -2.44654 -2.1636 0
M  V30 16661 H 1571.08 -3.6442 -0.399174 0
M  V30 16662 H 1570.73 -4.1653 -2.81978 0
M  V30 16663 H 1570.43 -5.59393 -1.79869 0
M  V30 16664 H 1571.95 -5.46559 -2.72224 0
M  V30 16665 H 1573.37 -5.71416 -0.464447 0
M  V30 16666 H 1571.76 -5.99468 0.275339 0
M  V30 16667 H 1572.83 -4.75436 0.953357 0
M  V30 16668 N 1574.18 -0.163538 -1.56749 0
M  V30 16669 C 1575.41 0.489178 -2.00725 0
M  V30 16670 C 1575.81 1.57869 -1.04279 0
M  V30 16671 O 1575.16 1.83668 -0.0344434 0
M  V30 16672 C 1575.22 1.13443 -3.41132 0
M  V30 16673 C 1574.88 0.187525 -4.56615 0
M  V30 16674 C 1575.88 -0.591169 -5.16528 0
M  V30 16675 C 1573.57 0.0856149 -5.02227 0
M  V30 16676 C 1575.56 -1.45905 -6.20476 0
M  V30 16677 C 1573.25 -0.785859 -6.06026 0
M  V30 16678 C 1574.24 -1.55678 -6.65021 0
M  V30 16679 O 1573.93 -2.41371 -7.66809 0
M  V30 16680 H 1573.66 0.130353 -0.663313 0
M  V30 16681 H 1576.22 -0.260065 -2.03747 0
M  V30 16682 H 1574.45 1.93165 -3.34999 0
M  V30 16683 H 1576.14 1.68856 -3.69111 0
M  V30 16684 H 1576.9 -0.522563 -4.82177 0
M  V30 16685 H 1572.78 0.675439 -4.56025 0
M  V30 16686 H 1576.33 -2.06125 -6.66452 0
M  V30 16687 H 1572.22 -0.855696 -6.39803 0
M  V30 16688 H 1572.99 -2.34801 -7.84099 0
M  V30 16689 N 1575.65 1.57214 0.110213 0
M  V30 16690 C 1577.07 1.74402 0.666405 0
M  V30 16691 C 1577.42 0.783524 1.79876 0
M  V30 16692 O 1576.54 -0.0415306 2.1636 0
M  V30 16693 C 1577.14 3.1624 1.21564 0
M  V30 16694 C 1575.7 3.34904 1.71804 0
M  V30 16695 C 1574.84 2.70249 0.621347 0
M  V30 16696 H 1577.79 1.58277 -0.115765 0
M  V30 16697 H 1577.81 3.18276 2.0852 0
M  V30 16698 H 1577.33 3.86123 0.391273 0
M  V30 16699 H 1575.43 2.70077 2.56689 0
M  V30 16700 H 1575.54 4.43126 1.82143 0
M  V30 16701 H 1573.9 2.31727 1.05711 0
M  V30 16702 H 1574.69 3.42762 -0.192185 0
M  V30 16703 N 1577.13 -0.380637 1.52934 0
M  V30 16704 C 1578.54 -0.958182 1.60237 0
M  V30 16705 C 1578.89 -1.90722 0.460393 0
M  V30 16706 O 1578.02 -2.12376 -0.415354 0
M  V30 16707 C 1578.61 -1.7446 2.90429 0
M  V30 16708 C 1577.17 -2.27172 3.00116 0
M  V30 16709 C 1576.32 -1.07969 2.55417 0
M  V30 16710 H 1579.27 -0.159908 1.57892 0
M  V30 16711 H 1579.29 -2.60456 2.77385 0
M  V30 16712 H 1578.8 -1.05362 3.73524 0
M  V30 16713 H 1576.91 -2.99557 2.21577 0
M  V30 16714 H 1577.02 -2.56086 4.04916 0
M  V30 16715 H 1575.38 -1.4422 2.09935 0
M  V30 16716 H 1576.17 -0.403925 3.40915 0
M  V30 16717 N 1578.61 -1.44039 -0.639573 0
M  V30 16718 C 1580.02 -1.41236 -1.22104 0
M  V30 16719 C 1580.37 -0.123367 -1.95812 0
M  V30 16720 O 1579.5 0.776641 -2.01983 0
M  V30 16721 C 1580.09 -2.55853 -2.22092 0
M  V30 16722 C 1578.65 -2.56271 -2.75685 0
M  V30 16723 C 1577.8 -2.32877 -1.50544 0
M  V30 16724 H 1580.75 -1.52742 -0.430756 0
M  V30 16725 H 1580.77 -2.28123 -3.04533 0
M  V30 16726 H 1580.28 -3.49653 -1.68417 0
M  V30 16727 H 1578.38 -1.66389 -3.33385 0
M  V30 16728 H 1578.5 -3.54486 -3.22299 0
M  V30 16729 H 1576.86 -1.81807 -1.78377 0
M  V30 16730 H 1577.64 -3.2878 -0.987845 0
M  V30 16731 N 1580.09 0.879207 -1.30796 0
M  V30 16732 C 1581.5 1.44705 -1.17972 0
M  V30 16733 C 1581.85 1.94992 0.217381 0
M  V30 16734 O 1580.98 1.85494 1.11449 0
M  V30 16735 C 1581.57 2.6302 -2.13555 0
M  V30 16736 C 1580.13 3.15877 -2.04692 0
M  V30 16737 C 1579.28 1.88576 -2.03309 0
M  V30 16738 H 1582.23 0.688604 -1.42982 0
M  V30 16739 H 1582.25 3.39418 -1.71976 0
M  V30 16740 H 1581.76 2.2639 -3.15229 0
M  V30 16741 H 1579.86 3.57151 -1.0618 0
M  V30 16742 H 1579.97 3.78786 -2.93357 0
M  V30 16743 H 1578.34 2.0715 -1.48192 0
M  V30 16744 H 1579.12 1.54195 -3.06723 0
M  V30 16745 N 1581.57 1.13606 1.09231 0
M  V30 16746 C 1582.98 0.91148 1.62938 0
M  V30 16747 C 1583.33 -0.55157 1.88287 0
M  V30 16748 O 1582.45 -1.4187 1.63407 0
M  V30 16749 C 1583.05 1.64812 2.96011 0
M  V30 16750 C 1581.61 1.46935 3.46536 0
M  V30 16751 C 1580.76 1.67605 2.20916 0
M  V30 16752 H 1583.71 1.28907 0.925669 0
M  V30 16753 H 1583.73 1.10638 3.6406 0
M  V30 16754 H 1583.24 2.71291 2.77529 0
M  V30 16755 H 1581.34 0.427667 3.70138 0
M  V30 16756 H 1581.45 2.23374 4.2384 0
M  V30 16757 H 1579.82 1.10105 2.29672 0
M  V30 16758 H 1580.6 2.75408 2.04952 0
M  V30 16759 N 1583.05 -1.27244 0.929878 0
M  V30 16760 C 1584.46 -1.76254 0.615732 0
M  V30 16761 C 1584.81 -1.759 -0.869111 0
M  V30 16762 O 1583.93 -1.36388 -1.6801 0
M  V30 16763 C 1584.53 -3.20068 1.11095 0
M  V30 16764 C 1583.09 -3.66736 0.847435 0
M  V30 16765 C 1582.23 -2.4659 1.26842 0
M  V30 16766 H 1585.18 -1.1348 1.10942 0
M  V30 16767 H 1585.21 -3.77714 0.459618 0
M  V30 16768 H 1584.72 -3.20293 2.19166 0
M  V30 16769 H 1582.82 -3.71954 -0.219376 0
M  V30 16770 H 1582.93 -4.56104 1.4665 0
M  V30 16771 H 1581.3 -2.45261 0.686944 0
M  V30 16772 H 1582.08 -2.49524 2.35781 0
M  V30 16773 N 1584.52 -0.695628 -1.41417 0
M  V30 16774 C 1585.46 0.00883515 -2.29198 0
M  V30 16775 C 1586.47 0.744337 -1.44788 0
M  V30 16776 O 1587.66 0.59503 -1.6829 0
M  V30 16777 C 1584.76 1.0366 -3.22657 0
M  V30 16778 C 1583.93 0.37071 -4.35826 0
M  V30 16779 C 1582.99 1.3011 -5.09861 0
M  V30 16780 O 1582.02 0.793461 -5.63642 0
M  V30 16781 N 1583.22 2.63343 -5.1733 0
M  V30 16782 H 1585.98 -0.744795 -2.90298 0
M  V30 16783 H 1583.54 -0.541663 -1.5257 0
M  V30 16784 H 1585.54 1.66075 -3.69054 0
M  V30 16785 H 1584.11 1.69177 -2.62865 0
M  V30 16786 H 1583.33 -0.433315 -3.91811 0
M  V30 16787 H 1584.61 -0.0923178 -5.08716 0
M  V30 16788 H 1584.01 3.07103 -4.75083 0
M  V30 16789 H 1582.57 3.20952 -5.67303 0
M  V30 16790 N 1586 1.51322 -0.440383 0
M  V30 16791 C 1586.95 2.24682 0.38753 0
M  V30 16792 C 1587.94 1.27031 0.98752 0
M  V30 16793 O 1589.13 1.52105 0.905156 0
M  V30 16794 C 1586.26 3.09451 1.48643 0
M  V30 16795 C 1585.34 4.14534 0.895682 0
M  V30 16796 N 1585.73 5.05788 0.0343863 0
M  V30 16797 C 1584.03 4.30571 1.16294 0
M  V30 16798 C 1584.73 5.80938 -0.297709 0
M  V30 16799 N 1583.71 5.42661 0.319444 0
M  V30 16800 H 1587.51 2.92597 -0.276449 0
M  V30 16801 H 1585.02 1.60423 -0.252641 0
M  V30 16802 H 1587.02 3.60587 2.09244 0
M  V30 16803 H 1585.68 2.43081 2.15271 0
M  V30 16804 H 1586.69 5.16833 -0.332271 0
M  V30 16805 H 1583.37 3.75427 1.82649 0
M  V30 16806 H 1584.76 6.64435 -0.99877 0
M  V30 16807 N 1587.48 0.171848 1.5666 0
M  V30 16808 C 1588.41 -0.753861 2.20996 0
M  V30 16809 C 1589.39 -1.23873 1.16574 0
M  V30 16810 O 1590.58 -1.29179 1.45005 0
M  V30 16811 C 1587.71 -1.98314 2.85112 0
M  V30 16812 C 1586.66 -1.6341 3.95577 0
M  V30 16813 C 1585.99 -2.93807 4.46745 0
M  V30 16814 C 1587.29 -0.861713 5.15142 0
M  V30 16815 H 1588.98 -0.217598 2.98608 0
M  V30 16816 H 1586.53 -0.10322 1.4363 0
M  V30 16817 H 1588.48 -2.63576 3.28794 0
M  V30 16818 H 1587.2 -2.54354 2.04869 0
M  V30 16819 H 1585.86 -1.00516 3.52551 0
M  V30 16820 H 1585.51 -3.47889 3.63293 0
M  V30 16821 H 1585.21 -2.71207 5.21268 0
M  V30 16822 H 1586.73 -3.60098 4.93114 0
M  V30 16823 H 1588.15 -1.41693 5.55514 0
M  V30 16824 H 1586.54 -0.734727 5.95585 0
M  V30 16825 H 1587.61 0.141851 4.84692 0
M  V30 16826 N 1588.96 -1.5727 -0.101874 0
M  V30 16827 C 1589.89 -1.98253 -1.15014 0
M  V30 16828 C 1590.9 -0.884147 -1.36699 0
M  V30 16829 O 1592.09 -1.16232 -1.35471 0
M  V30 16830 C 1589.19 -2.28043 -2.50698 0
M  V30 16831 C 1588.36 -3.59343 -2.49383 0
M  V30 16832 C 1587.42 -3.77147 -3.66943 0
M  V30 16833 O 1586.45 -4.49075 -3.49744 0
M  V30 16834 N 1587.65 -3.1721 -4.86167 0
M  V30 16835 H 1590.42 -2.88787 -0.801375 0
M  V30 16836 H 1587.98 -1.59264 -0.290941 0
M  V30 16837 H 1589.97 -2.37153 -3.27934 0
M  V30 16838 H 1588.54 -1.4355 -2.77691 0
M  V30 16839 H 1587.76 -3.61264 -1.57741 0
M  V30 16840 H 1589.05 -4.45612 -2.45576 0
M  V30 16841 H 1588.45 -2.58772 -5.03044 0
M  V30 16842 H 1587 -3.31816 -5.61018 0
M  V30 16843 N 1590.44 0.372521 -1.53134 0
M  V30 16844 C 1591.37 1.47817 -1.73855 0
M  V30 16845 C 1592.35 1.51645 -0.586723 0
M  V30 16846 O 1593.53 1.69803 -0.818496 0
M  V30 16847 C 1590.66 2.86213 -1.81107 0
M  V30 16848 C 1589.7 3.00139 -3.03016 0
M  V30 16849 S 1590.54 2.69617 -4.62674 0
M  V30 16850 C 1591.69 4.10176 -4.72765 0
M  V30 16851 H 1591.93 1.30019 -2.67362 0
M  V30 16852 H 1589.46 0.566429 -1.43635 0
M  V30 16853 H 1591.42 3.65958 -1.85971 0
M  V30 16854 H 1590.08 3.01326 -0.886632 0
M  V30 16855 H 1589.27 4.0148 -3.0468 0
M  V30 16856 H 1588.87 2.28309 -2.96228 0
M  V30 16857 H 1591.16 5.04328 -4.52393 0
M  V30 16858 H 1592.11 4.1352 -5.7481 0
M  V30 16859 H 1592.52 3.96853 -4.01458 0
M  V30 16860 N 1591.91 1.44376 0.631925 0
M  V30 16861 C 1592.84 1.54005 1.75512 0
M  V30 16862 C 1593.82 0.393126 1.65495 0
M  V30 16863 O 1595.01 0.613143 1.84267 0
M  V30 16864 C 1592.14 1.48313 3.14039 0
M  V30 16865 C 1591.09 2.61474 3.38844 0
M  V30 16866 C 1590.42 2.40834 4.77392 0
M  V30 16867 C 1591.72 4.03627 3.31485 0
M  V30 16868 H 1593.41 2.48019 1.6771 0
M  V30 16869 H 1590.96 1.19368 0.80543 0
M  V30 16870 H 1592.91 1.5365 3.9239 0
M  V30 16871 H 1591.64 0.508152 3.22623 0
M  V30 16872 H 1590.3 2.55525 2.62874 0
M  V30 16873 H 1589.94 1.4153 4.82678 0
M  V30 16874 H 1589.64 3.16703 4.94947 0
M  V30 16875 H 1591.17 2.47988 5.57974 0
M  V30 16876 H 1592.58 4.1095 3.99741 0
M  V30 16877 H 1590.98 4.79694 3.60574 0
M  V30 16878 H 1592.05 4.27255 2.29307 0
M  V30 16879 N 1593.39 -0.872258 1.31261 0
M  V30 16880 C 1594.8 -1.44077 1.18738 0
M  V30 16881 C 1595.15 -1.95105 -0.207037 0
M  V30 16882 O 1594.28 -1.86083 -1.10464 0
M  V30 16883 C 1594.87 -2.61884 2.14947 0
M  V30 16884 C 1593.43 -3.14787 2.06364 0
M  V30 16885 C 1592.58 -1.87495 2.04306 0
M  V30 16886 H 1595.53 -0.681011 1.43345 0
M  V30 16887 H 1595.55 -3.38501 1.73773 0
M  V30 16888 H 1595.06 -2.24715 3.16425 0
M  V30 16889 H 1593.16 -3.56582 1.08073 0
M  V30 16890 H 1593.28 -3.77225 2.95361 0
M  V30 16891 H 1591.64 -2.06361 1.49288 0
M  V30 16892 H 1592.42 -1.52566 3.07536 0
M  V30 16893 N 1594.87 -1.14184 -1.08627 0
M  V30 16894 C 1595.8 -0.849455 -2.17501 0
M  V30 16895 C 1596.78 0.194617 -1.68983 0
M  V30 16896 O 1597.97 0.0517757 -1.94131 0
M  V30 16897 C 1595.1 -0.323685 -3.45788 0
M  V30 16898 C 1594.05 -1.30294 -4.07685 0
M  V30 16899 C 1593.38 -0.636575 -5.30897 0
M  V30 16900 C 1594.68 -2.66441 -4.49229 0
M  V30 16901 H 1596.37 -1.75987 -2.42217 0
M  V30 16902 H 1593.92 -0.847595 -1.16412 0
M  V30 16903 H 1595.87 -0.106754 -4.21265 0
M  V30 16904 H 1594.59 0.62215 -3.20619 0
M  V30 16905 H 1593.25 -1.50601 -3.34238 0
M  V30 16906 H 1592.9 0.314995 -5.02013 0
M  V30 16907 H 1592.6 -1.28998 -5.73266 0
M  V30 16908 H 1594.12 -0.429117 -6.0909 0
M  V30 16909 H 1595.54 -2.50055 -5.15893 0
M  V30 16910 H 1593.93 -3.28033 -5.02508 0
M  V30 16911 H 1595 -3.23486 -3.61226 0
M  V30 16912 N 1596.35 1.26749 -0.936613 0
M  V30 16913 C 1597.28 2.25684 -0.399941 0
M  V30 16914 C 1598.29 1.55739 0.474271 0
M  V30 16915 O 1599.48 1.76203 0.285454 0
M  V30 16916 C 1596.58 3.35969 0.444733 0
M  V30 16917 C 1595.76 4.35453 -0.412258 0
M  V30 16918 C 1594.81 5.24889 0.37123 0
M  V30 16919 O 1593.84 5.68758 -0.224162 0
M  V30 16920 N 1595.04 5.55993 1.66889 0
M  V30 16921 H 1597.81 2.72368 -1.25043 0
M  V30 16922 H 1595.37 1.40468 -0.805 0
M  V30 16923 H 1597.36 3.92751 0.976159 0
M  V30 16924 H 1595.93 2.88816 1.196 0
M  V30 16925 H 1595.15 3.77808 -1.12493 0
M  V30 16926 H 1596.44 4.9892 -0.997822 0
M  V30 16927 H 1595.84 5.22224 2.17481 0
M  V30 16928 H 1594.39 6.15436 2.14666 0
M  V30 16929 N 1597.83 0.703118 1.41046 0
M  V30 16930 C 1598.76 0.0570815 2.3343 0
M  V30 16931 C 1599.74 -0.759042 1.52225 0
M  V30 16932 O 1600.92 -0.710491 1.80736 0
M  V30 16933 C 1598.05 -0.874541 3.36109 0
M  V30 16934 C 1597.01 -0.16496 4.27682 0
M  V30 16935 C 1596.33 -1.21145 5.20795 0
M  V30 16936 C 1597.63 0.97332 5.13151 0
M  V30 16937 H 1599.33 0.828699 2.87703 0
M  V30 16938 H 1596.87 0.399956 1.38334 0
M  V30 16939 H 1598.83 -1.33579 3.99668 0
M  V30 16940 H 1597.55 -1.67791 2.80203 0
M  V30 16941 H 1596.21 0.276332 3.65557 0
M  V30 16942 H 1595.86 -2.00755 4.61201 0
M  V30 16943 H 1595.56 -0.741633 5.82901 0
M  V30 16944 H 1597.08 -1.67305 5.87232 0
M  V30 16945 H 1598.49 0.592013 5.70235 0
M  V30 16946 H 1596.89 1.37071 5.84236 0
M  V30 16947 H 1597.96 1.80961 4.49868 0
M  V30 16948 N 1599.3 -1.51086 0.448402 0
M  V30 16949 C 1600.53 -2.07081 -0.115038 0
M  V30 16950 C 1600.95 -1.31253 -1.34737 0
M  V30 16951 O 1600.31 -0.353613 -1.77818 0
M  V30 16952 C 1600.36 -3.58321 -0.404803 0
M  V30 16953 O 1599.46 -3.84567 -1.48936 0
M  V30 16954 H 1598.81 -0.663993 0.00299118 0
M  V30 16955 H 1601.34 -1.94564 0.632921 0
M  V30 16956 H 1601.35 -4.02756 -0.652013 0
M  V30 16957 H 1600.02 -4.12934 0.495838 0
M  V30 16958 H 1598.6 -3.51987 -1.23124 0
M  V30 16959 N 1600.78 -0.180154 -1.56567 0
M  V30 16960 C 1602.01 0.46854 -2.01525 0
M  V30 16961 C 1602.43 1.56211 -1.06036 0
M  V30 16962 O 1601.78 1.82392 -0.06269 0
M  V30 16963 C 1601.83 1.0387 -3.46256 0
M  V30 16964 O 1601.55 -0.0112203 -4.38099 0
M  V30 16965 C 1603.06 1.76475 -4.06659 0
M  V30 16966 H 1600.28 0.119098 -0.660346 0
M  V30 16967 H 1602.82 -0.284477 -2.02512 0
M  V30 16968 H 1600.97 1.74217 -3.46016 0
M  V30 16969 H 1601.39 0.41099 -5.22887 0
M  V30 16970 H 1602.86 2.11618 -5.09825 0
M  V30 16971 H 1603.34 2.66301 -3.49257 0
M  V30 16972 H 1603.95 1.10749 -4.10627 0
M  V30 16973 N 1602.26 1.57322 0.0935319 0
M  V30 16974 C 1603.51 1.86167 0.796739 0
M  V30 16975 C 1603.84 0.768893 1.78657 0
M  V30 16976 O 1603.09 -0.237358 1.94255 0
M  V30 16977 C 1603.39 3.21605 1.55901 0
M  V30 16978 C 1603.06 4.45256 0.711165 0
M  V30 16979 C 1601.72 4.78826 0.477442 0
M  V30 16980 C 1604.07 5.21058 0.121859 0
M  V30 16981 C 1601.4 5.85622 -0.355425 0
M  V30 16982 C 1603.75 6.28734 -0.69834 0
M  V30 16983 C 1602.41 6.60818 -0.94214 0
M  V30 16984 H 1601.68 0.681235 0.291547 0
M  V30 16985 H 1604.33 1.91412 0.0581736 0
M  V30 16986 H 1602.64 3.12052 2.36919 0
M  V30 16987 H 1604.33 3.41151 2.10753 0
M  V30 16988 H 1600.92 4.1897 0.903444 0
M  V30 16989 H 1605.11 4.95454 0.289588 0
M  V30 16990 H 1600.36 6.08891 -0.553277 0
M  V30 16991 H 1604.54 6.8664 -1.16183 0
M  V30 16992 H 1602.16 7.43401 -1.5893 0
M  V30 16993 N 1603.74 -0.364395 1.53329 0
M  V30 16994 C 1604.99 -1.10473 1.69234 0
M  V30 16995 C 1605.31 -1.89799 0.447347 0
M  V30 16996 O 1604.58 -1.8835 -0.538612 0
M  V30 16997 H 1603.16 -0.410826 0.623884 0
M  V30 16998 H 1605.82 -0.410721 1.90523 0
M  V30 16999 H 1604.92 -1.79387 2.55396 0
M  V30 17000 N 1605.22 -1.44709 -0.62426 0
M  V30 17001 C 1606.13 -1.54608 -1.76447 0
M  V30 17002 C 1607.14 -0.43137 -1.68568 0
M  V30 17003 O 1608.32 -0.6897 -1.89222 0
M  V30 17004 C 1605.38 -1.49404 -3.12857 0
M  V30 17005 C 1604.44 -2.71782 -3.32315 0
M  V30 17006 C 1603.68 -2.66817 -4.62217 0
M  V30 17007 O 1603.9 -1.73205 -5.43467 0
M  V30 17008 O 1602.83 -3.57773 -4.84027 0
M  V30 17009 H 1606.66 -2.50951 -1.71048 0
M  V30 17010 H 1604.25 -1.27033 -0.786326 0
M  V30 17011 H 1606.13 -1.4905 -3.9416 0
M  V30 17012 H 1604.8 -0.562078 -3.18783 0
M  V30 17013 H 1603.71 -2.77702 -2.50664 0
M  V30 17014 H 1605.04 -3.64048 -3.31255 0
M  V30 17015 N 1606.69 0.865285 -1.31722 0
M  V30 17016 C 1607.6 2.00542 -1.21738 0
M  V30 17017 C 1608.62 1.7349 -0.133124 0
M  V30 17018 O 1609.8 1.98303 -0.351809 0
M  V30 17019 C 1606.86 3.33993 -0.930045 0
M  V30 17020 C 1605.92 3.74337 -2.10167 0
M  V30 17021 C 1605.16 5.0142 -1.82795 0
M  V30 17022 O 1605.38 5.65242 -0.765345 0
M  V30 17023 O 1604.31 5.38642 -2.68604 0
M  V30 17024 H 1608.14 2.11898 -2.17561 0
M  V30 17025 H 1605.72 0.994313 -1.11507 0
M  V30 17026 H 1607.61 4.14008 -0.785846 0
M  V30 17027 H 1606.28 3.237 -0.00188642 0
M  V30 17028 H 1605.19 2.94943 -2.3013 0
M  V30 17029 H 1606.52 3.89261 -3.01225 0
M  V30 17030 N 1608.17 1.14759 1.0802 0
M  V30 17031 C 1609.1 0.860977 2.17047 0
M  V30 17032 C 1610.08 -0.185652 1.69084 0
M  V30 17033 O 1611.27 -0.0414797 1.94156 0
M  V30 17034 C 1608.4 0.342018 3.45612 0
M  V30 17035 C 1607.35 1.32455 4.06989 0
M  V30 17036 C 1606.68 0.664721 5.30552 0
M  V30 17037 C 1607.98 2.68819 4.4781 0
M  V30 17038 H 1609.67 1.77269 2.4128 0
M  V30 17039 H 1607.22 0.853757 1.15961 0
M  V30 17040 H 1609.17 0.129093 4.21202 0
M  V30 17041 H 1607.9 -0.605138 3.20945 0
M  V30 17042 H 1606.55 1.52371 3.33435 0
M  V30 17043 H 1606.2 -0.288367 5.02173 0
M  V30 17044 H 1605.9 1.32036 5.72573 0
M  V30 17045 H 1607.43 0.461412 6.08854 0
M  V30 17046 H 1608.84 2.52787 5.14559 0
M  V30 17047 H 1607.24 3.30694 5.00761 0
M  V30 17048 H 1608.31 3.25398 3.59506 0
M  V30 17049 N 1609.65 -1.26251 0.943322 0
M  V30 17050 C 1610.9 -1.93939 0.592909 0
M  V30 17051 C 1611.23 -1.73814 -0.866155 0
M  V30 17052 O 1610.5 -1.07645 -1.61997 0
M  V30 17053 C 1610.79 -3.47653 0.938601 0
M  V30 17054 C 1610.64 -3.77053 2.45257 0
M  V30 17055 C 1611.96 -4.37736 0.455546 0
M  V30 17056 H 1609.08 -0.704367 0.21688 0
M  V30 17057 H 1611.72 -1.4908 1.17793 0
M  V30 17058 H 1609.87 -3.85992 0.440756 0
M  V30 17059 H 1611.54 -3.48417 3.0233 0
M  V30 17060 H 1609.79 -3.23055 2.89513 0
M  V30 17061 H 1610.46 -4.84506 2.64495 0
M  V30 17062 H 1612.93 -4.06635 0.882435 0
M  V30 17063 H 1611.81 -5.44075 0.72623 0
M  V30 17064 H 1612.07 -4.37377 -0.644508 0
M  V30 17065 N 1611.13 -0.710588 -1.40671 0
M  V30 17066 C 1612.35 -0.256007 -2.05814 0
M  V30 17067 C 1612.78 1.09178 -1.53173 0
M  V30 17068 O 1612.14 1.68665 -0.664977 0
M  V30 17069 C 1612.19 -0.240528 -3.59797 0
M  V30 17070 O 1611.29 0.779859 -4.04959 0
M  V30 17071 H 1610.63 -0.121326 -0.652822 0
M  V30 17072 H 1613.16 -0.969667 -1.80163 0
M  V30 17073 H 1613.17 -0.0765027 -4.07928 0
M  V30 17074 H 1611.85 -1.22411 -3.97478 0
M  V30 17075 H 1610.42 0.583965 -3.68299 0
M  V30 17076 N 1612.61 1.50847 -0.456408 0
M  V30 17077 C 1614.02 1.867 0.00222532 0
M  V30 17078 C 1614.37 1.37229 1.40224 0
M  V30 17079 O 1613.49 0.731052 2.03678 0
M  V30 17080 C 1614.09 3.38798 0.0108142 0
M  V30 17081 C 1612.65 3.74117 0.413924 0
M  V30 17082 C 1611.8 2.74671 -0.380933 0
M  V30 17083 H 1614.75 1.43799 -0.671379 0
M  V30 17084 H 1614.77 3.71642 0.816217 0
M  V30 17085 H 1614.28 3.74774 -1.00826 0
M  V30 17086 H 1612.38 3.43737 1.43789 0
M  V30 17087 H 1612.49 4.78936 0.125471 0
M  V30 17088 H 1610.86 2.54175 0.163385 0
M  V30 17089 H 1611.64 3.1349 -1.39924 0
M  V30 17090 N 1614.09 0.188454 1.56469 0
M  V30 17091 C 1615.5 -0.325309 1.83844 0
M  V30 17092 C 1615.85 -1.61858 1.1089 0
M  V30 17093 O 1614.97 -2.13256 0.36752 0
M  V30 17094 C 1615.57 -0.597002 3.33499 0
M  V30 17095 C 1614.13 -1.05515 3.61308 0
M  V30 17096 C 1613.27 -0.100182 2.77119 0
M  V30 17097 H 1616.22 0.412378 1.53249 0
M  V30 17098 H 1616.25 -1.44709 3.51908 0
M  V30 17099 H 1615.76 0.344429 3.86569 0
M  V30 17100 H 1613.86 -2.01109 3.13665 0
M  V30 17101 H 1613.97 -0.952461 4.69537 0
M  V30 17102 H 1612.34 -0.600815 2.47512 0
M  V30 17103 H 1613.12 0.835574 3.32976 0
M  V30 17104 N 1615.56 -1.5737 -0.0851874 0
M  V30 17105 C 1616.53 -2.01789 -1.08692 0
M  V30 17106 C 1617.53 -0.912872 -1.32376 0
M  V30 17107 O 1618.72 -1.1781 -1.28322 0
M  V30 17108 C 1615.85 -2.38708 -2.43375 0
M  V30 17109 H 1617.04 -2.91511 -0.704359 0
M  V30 17110 H 1614.59 -1.52765 -0.330528 0
M  V30 17111 H 1615.33 -1.5197 -2.86488 0
M  V30 17112 H 1615.11 -3.19331 -2.2753 0
M  V30 17113 H 1616.6 -2.73697 -3.15404 0
M  V30 17114 N 1617.04 0.356258 -1.53521 0
M  V30 17115 C 1618.32 1.11414 -1.60768 0
M  V30 17116 C 1618.7 2.0686 -0.420991 0
M  V30 17117 O 1618.05 2.20807 0.587929 0
M  V30 17118 C 1618.26 1.84503 -2.96243 0
M  V30 17119 C 1619.6 2.38703 -3.5115 0
M  V30 17120 O 1620.63 1.94617 -2.98333 0
M  V30 17121 O 1619.49 3.19322 -4.43504 0
M  V30 17122 H 1616.58 0.511623 -0.649747 0
M  V30 17123 H 1619.13 0.358772 -1.65864 0
M  V30 17124 H 1617.9 1.14898 -3.74051 0
M  V30 17125 H 1617.52 2.66927 -2.94679 0
M  V30 17126 N 1618.52 1.45038 0.616577 0
M  V30 17127 C 1619.8 1.39059 1.37557 0
M  V30 17128 C 1620.18 0.0566307 2.11024 0
M  V30 17129 O 1619.52 -0.961203 2.073 0
M  V30 17130 C 1619.73 2.59841 2.32989 0
M  V30 17131 C 1621.08 3.04539 2.95874 0
M  V30 17132 O 1622.11 2.6015 2.43312 0
M  V30 17133 O 1620.97 3.81547 3.9126 0
M  V30 17134 H 1618.06 0.551396 0.616353 0
M  V30 17135 H 1620.61 1.57152 0.640416 0
M  V30 17136 H 1619.38 3.48521 1.779 0
M  V30 17137 H 1619 2.44036 3.13899 0
M  V30 17138 N 1620 -0.858287 1.32179 0
M  V30 17139 C 1621.27 -1.59548 1.13154 0
M  V30 17140 C 1621.65 -2.0882 -0.309439 0
M  V30 17141 O 1621 -1.87536 -1.30547 0
M  V30 17142 C 1621.21 -2.74443 2.15597 0
M  V30 17143 C 1622.56 -3.44115 2.48737 0
M  V30 17144 O 1623.58 -2.84664 2.14114 0
M  V30 17145 O 1622.44 -4.51389 3.08074 0
M  V30 17146 H 1619.54 -0.702481 0.436405 0
M  V30 17147 H 1622.08 -0.902731 1.43697 0
M  V30 17148 H 1620.86 -2.35533 3.12473 0
M  V30 17149 H 1620.48 -3.51397 1.86028 0
M  V30 17150 N 1621.48 -1.1533 -1.07409 0
M  V30 17151 C 1622.75 -0.838341 -1.76724 0
M  V30 17152 C 1623.13 0.666169 -2.00313 0
M  V30 17153 O 1622.48 1.61033 -1.62113 0
M  V30 17154 C 1622.69 -1.64846 -3.07615 0
M  V30 17155 C 1624.04 -1.85429 -3.8197 0
M  V30 17156 O 1625.06 -1.61617 -3.17424 0
M  V30 17157 O 1623.92 -2.25305 -4.97896 0
M  V30 17158 H 1621.02 -0.308242 -0.767408 0
M  V30 17159 H 1623.56 -1.25905 -1.1378 0
M  V30 17160 H 1622.33 -2.66995 -2.86058 0
M  V30 17161 H 1621.96 -1.22405 -3.78289 0
M  V30 17162 N 1622.95 1.25748 -0.950004 0
M  V30 17163 C 1624.23 1.88566 -0.519839 0
M  V30 17164 C 1624.61 1.85761 1.00279 0
M  V30 17165 O 1623.96 1.31797 1.8666 0
M  V30 17166 C 1624.17 3.31502 -1.09121 0
M  V30 17167 C 1625.52 4.08298 -1.16524 0
M  V30 17168 O 1626.54 3.40605 -1.04243 0
M  V30 17169 O 1625.4 5.29375 -1.35735 0
M  V30 17170 H 1622.49 0.809175 -0.170777 0
M  V30 17171 H 1625.04 1.33853 -1.04314 0
M  V30 17172 H 1623.81 3.2795 -2.13458 0
M  V30 17173 H 1623.43 3.93765 -0.550881 0
M  V30 17174 N 1624.43 0.718038 1.40292 0
M  V30 17175 C 1625.66 0.266918 2.05675 0
M  V30 17176 C 1626.08 -1.08364 1.53749 0
M  V30 17177 O 1625.44 -1.6831 0.673912 0
M  V30 17178 C 1625.49 0.259606 3.59664 0
M  V30 17179 O 1624.59 -0.758372 4.05367 0
M  V30 17180 H 1623.93 0.124786 0.652169 0
M  V30 17181 H 1626.46 0.979207 1.79646 0
M  V30 17182 H 1626.47 0.098135 4.07882 0
M  V30 17183 H 1625.15 1.24517 3.96823 0
M  V30 17184 H 1623.72 -0.564425 3.68604 0
M  V30 17185 N 1625.91 -1.50602 0.464402 0
M  V30 17186 C 1626.82 -2.32142 -0.338721 0
M  V30 17187 C 1627.84 -1.4223 -1.00233 0
M  V30 17188 O 1629.01 -1.75288 -0.99177 0
M  V30 17189 C 1626.08 -3.16725 -1.41019 0
M  V30 17190 C 1625.14 -4.22449 -0.76388 0
M  V30 17191 C 1624.37 -5.0299 -1.78429 0
M  V30 17192 O 1624.59 -4.84516 -3.00999 0
M  V30 17193 O 1623.53 -5.86338 -1.35982 0
M  V30 17194 H 1627.35 -3.01927 0.327695 0
M  V30 17195 H 1624.94 -1.47675 0.226379 0
M  V30 17196 H 1626.82 -3.69228 -2.03097 0
M  V30 17197 H 1625.5 -2.49675 -2.06019 0
M  V30 17198 H 1624.4 -3.73955 -0.104318 0
M  V30 17199 H 1625.74 -4.9195 -0.156929 0
M  V30 17200 N 1627.39 -0.19675 -1.56367 0
M  V30 17201 C 1628.8 0.159068 -1.58805 0
M  V30 17202 C 1629 1.60902 -1.21297 0
M  V30 17203 O 1628.06 2.34491 -0.93649 0
M  V30 17204 C 1629.37 -0.144784 -3.00351 0
M  V30 17205 C 1630.92 -0.0850243 -3.12884 0
M  V30 17206 C 1631.4 -0.362209 -4.56565 0
M  V30 17207 N 1632.89 -0.310887 -4.62156 0
M  V30 17208 C 1633.62 -0.499187 -5.71223 0
M  V30 17209 N 1633.12 -0.747925 -6.88751 0
M  V30 17210 N 1634.91 -0.433329 -5.60427 0
M  V30 17211 H 1627.06 -1.1429 -1.79029 0
M  V30 17212 H 1629.33 -0.456298 -0.830961 0
M  V30 17213 H 1629.03 -1.15019 -3.3236 0
M  V30 17214 H 1628.91 0.551864 -3.73141 0
M  V30 17215 H 1631.29 0.910992 -2.80687 0
M  V30 17216 H 1631.37 -0.814774 -2.42477 0
M  V30 17217 H 1631.02 -1.35555 -4.89477 0
M  V30 17218 H 1630.95 0.388448 -5.25165 0
M  V30 17219 H 1633.44 -0.125318 -3.77692 0
M  V30 17220 H 1633.75 -0.880372 -7.67769 0
M  V30 17221 H 1632.1 -0.784838 -6.90554 0
M  V30 17222 H 1635.29 -0.239411 -4.67487 0
M  V30 17223 H 1635.46 -0.583495 -6.45368 0
M  V30 17224 N 1628.87 1.57413 0.0768405 0
M  V30 17225 C 1630.11 1.87002 0.776948 0
M  V30 17226 C 1630.44 0.787799 1.77831 0
M  V30 17227 O 1629.7 -0.216742 1.94496 0
M  V30 17228 C 1630 3.2324 1.52482 0
M  V30 17229 C 1629.66 4.45986 0.663899 0
M  V30 17230 C 1628.32 4.79305 0.426629 0
M  V30 17231 C 1630.68 5.21157 0.0665867 0
M  V30 17232 C 1628 5.85213 -0.417518 0
M  V30 17233 C 1630.36 6.27958 -0.764986 0
M  V30 17234 C 1629.02 6.59781 -1.01218 0
M  V30 17235 H 1628.29 0.684289 0.284306 0
M  V30 17236 H 1630.94 1.91463 0.0378686 0
M  V30 17237 H 1629.24 3.14547 2.33596 0
M  V30 17238 H 1630.94 3.43368 2.07123 0
M  V30 17239 H 1627.53 4.19905 0.858956 0
M  V30 17240 H 1631.71 4.95734 0.237022 0
M  V30 17241 H 1626.97 6.0827 -0.617827 0
M  V30 17242 H 1631.14 6.85369 -1.23459 0
M  V30 17243 H 1628.77 7.41674 -1.66806 0
M  V30 17244 N 1630.34 -0.348112 1.53707 0
M  V30 17245 C 1631.29 -1.42729 1.81375 0
M  V30 17246 C 1632.26 -1.52461 0.659159 0
M  V30 17247 O 1633.45 -1.68072 0.903129 0
M  V30 17248 C 1630.59 -2.79443 2.02498 0
M  V30 17249 C 1629.7 -2.7854 3.30211 0
M  V30 17250 C 1628.83 -4.06942 3.41426 0
M  V30 17251 C 1627.87 -4.00248 4.63106 0
M  V30 17252 N 1627.01 -5.20332 4.7138 0
M  V30 17253 H 1631.85 -1.18436 2.73454 0
M  V30 17254 H 1629.39 -0.573809 1.35447 0
M  V30 17255 H 1631.35 -3.58888 2.12733 0
M  V30 17256 H 1629.98 -3.02099 1.13737 0
M  V30 17257 H 1629.03 -1.91227 3.28841 0
M  V30 17258 H 1630.34 -2.69471 4.19746 0
M  V30 17259 H 1629.49 -4.94808 3.51069 0
M  V30 17260 H 1628.23 -4.18786 2.49939 0
M  V30 17261 H 1627.24 -3.10767 4.53546 0
M  V30 17262 H 1628.46 -3.89991 5.55953 0
M  V30 17263 H 1626.41 -5.32729 3.828 0
M  V30 17264 H 1626.33 -5.13502 5.54844 0
M  V30 17265 H 1627.59 -6.09982 4.85326 0
M  V30 17266 N 1631.82 -1.45363 -0.608876 0
M  V30 17267 C 1632.75 -1.56778 -1.7304 0
M  V30 17268 C 1633.73 -0.419405 -1.64848 0
M  V30 17269 O 1634.92 -0.64238 -1.83268 0
M  V30 17270 C 1632.05 -1.5329 -3.1164 0
M  V30 17271 C 1631 -2.66832 -3.34641 0
M  V30 17272 C 1630.33 -2.48398 -4.735 0
M  V30 17273 C 1631.63 -4.0885 -3.25021 0
M  V30 17274 H 1633.32 -2.50656 -1.63743 0
M  V30 17275 H 1630.87 -1.20635 -0.786338 0
M  V30 17276 H 1632.82 -1.59873 -3.89895 0
M  V30 17277 H 1631.55 -0.559414 -3.21773 0
M  V30 17278 H 1630.2 -2.59675 -2.58775 0
M  V30 17279 H 1629.85 -1.49191 -4.80366 0
M  V30 17280 H 1629.55 -3.24537 -4.89846 0
M  V30 17281 H 1631.08 -2.56833 -5.53958 0
M  V30 17282 H 1632.49 -4.17257 -3.93153 0
M  V30 17283 H 1630.89 -4.85369 -3.52897 0
M  V30 17284 H 1631.96 -4.30849 -2.2248 0
M  V30 17285 N 1633.3 0.851265 -1.32632 0
M  V30 17286 C 1634.23 1.97562 -1.24465 0
M  V30 17287 C 1635.21 1.69619 -0.127777 0
M  V30 17288 O 1636.4 1.9162 -0.315509 0
M  V30 17289 C 1633.53 3.33467 -0.970423 0
M  V30 17290 C 1632.48 3.75772 -2.0489 0
M  V30 17291 C 1631.81 5.09345 -1.62702 0
M  V30 17292 C 1633.11 3.90876 -3.4643 0
M  V30 17293 H 1634.8 2.04653 -2.18535 0
M  V30 17294 H 1632.35 0.983252 -1.05205 0
M  V30 17295 H 1634.3 4.11681 -0.899825 0
M  V30 17296 H 1633.02 3.26599 0.00591373 0
M  V30 17297 H 1631.68 2.99812 -2.1097 0
M  V30 17298 H 1631.33 4.98937 -0.638039 0
M  V30 17299 H 1631.03 5.38621 -2.34864 0
M  V30 17300 H 1632.55 5.90048 -1.57085 0
M  V30 17301 H 1633.97 4.59434 -3.42919 0
M  V30 17302 H 1632.37 4.31574 -4.1697 0
M  V30 17303 H 1633.44 2.93689 -3.85843 0
M  V30 17304 N 1634.78 1.15898 1.06796 0
M  V30 17305 C 1635.71 0.818654 2.14081 0
M  V30 17306 C 1636.72 -0.171847 1.6189 0
M  V30 17307 O 1637.91 0.052196 1.78424 0
M  V30 17308 C 1635.01 0.197283 3.38325 0
M  V30 17309 C 1634.19 1.22662 4.19849 0
M  V30 17310 C 1633.24 0.625985 5.22463 0
M  V30 17311 O 1632.27 1.29347 5.54309 0
M  V30 17312 N 1633.47 -0.589665 5.77497 0
M  V30 17313 H 1636.24 1.74196 2.43877 0
M  V30 17314 H 1633.8 1.05562 1.22753 0
M  V30 17315 H 1635.79 -0.217439 4.04115 0
M  V30 17316 H 1634.36 -0.629476 3.06197 0
M  V30 17317 H 1633.58 1.8177 3.49791 0
M  V30 17318 H 1634.87 1.92143 4.71125 0
M  V30 17319 H 1634.27 -1.15022 5.53883 0
M  V30 17320 H 1632.82 -0.946667 6.44889 0
M  V30 17321 N 1636.26 -1.25243 0.956659 0
M  V30 17322 C 1637.17 -2.29529 0.48515 0
M  V30 17323 C 1638.18 -1.68121 -0.448494 0
M  V30 17324 O 1639.36 -1.98773 -0.324243 0
M  V30 17325 C 1636.42 -3.45952 -0.227611 0
M  V30 17326 C 1635.48 -4.22795 0.744495 0
M  V30 17327 C 1634.72 -5.3366 0.0656539 0
M  V30 17328 O 1634.94 -5.58722 -1.14829 0
M  V30 17329 O 1633.87 -5.97181 0.75222 0
M  V30 17330 H 1637.7 -2.71955 1.35181 0
M  V30 17331 H 1635.29 -1.30729 0.723203 0
M  V30 17332 H 1637.17 -4.16687 -0.628474 0
M  V30 17333 H 1635.84 -3.05524 -1.06942 0
M  V30 17334 H 1634.75 -3.5448 1.1956 0
M  V30 17335 H 1636.08 -4.67012 1.55438 0
M  V30 17336 N 1637.73 -0.725468 -1.3991 0
M  V30 17337 C 1638.96 -0.278797 -2.0471 0
M  V30 17338 C 1639.37 1.08796 -1.54791 0
M  V30 17339 O 1638.72 1.69685 -0.703763 0
M  V30 17340 C 1638.78 -0.191732 -3.58988 0
M  V30 17341 C 1638.44 -1.49539 -4.31842 0
M  V30 17342 C 1639.44 -2.43925 -4.59126 0
M  V30 17343 C 1637.12 -1.75705 -4.70567 0
M  V30 17344 C 1639.12 -3.62717 -5.24133 0
M  V30 17345 C 1636.8 -2.94776 -5.35304 0
M  V30 17346 C 1637.8 -3.88104 -5.62018 0
M  V30 17347 O 1637.49 -5.05085 -6.25415 0
M  V30 17348 H 1637.22 -0.121262 -0.665035 0
M  V30 17349 H 1639.78 -0.987188 -1.80122 0
M  V30 17350 H 1638.01 0.572683 -3.82436 0
M  V30 17351 H 1639.7 0.22168 -4.05294 0
M  V30 17352 H 1640.46 -2.24977 -4.29663 0
M  V30 17353 H 1636.34 -1.03912 -4.49136 0
M  V30 17354 H 1639.88 -4.35579 -5.44901 0
M  V30 17355 H 1635.78 -3.13629 -5.64187 0
M  V30 17356 H 1636.55 -5.05294 -6.4391 0
M  V30 17357 N 1639.21 1.50354 -0.472382 0
M  V30 17358 C 1640.46 2.02633 0.0822846 0
M  V30 17359 C 1640.79 1.35358 1.39254 0
M  V30 17360 O 1640.07 0.479714 1.88491 0
M  V30 17361 C 1640.35 3.59126 0.264742 0
M  V30 17362 C 1640.2 4.3697 -1.06663 0
M  V30 17363 C 1641.52 4.28148 1.01869 0
M  V30 17364 H 1638.64 0.736451 0.0284304 0
M  V30 17365 H 1641.28 1.79661 -0.618224 0
M  V30 17366 H 1639.43 3.7883 0.86141 0
M  V30 17367 H 1641.1 4.28834 -1.69997 0
M  V30 17368 H 1639.35 4.0066 -1.66295 0
M  V30 17369 H 1640.02 5.44736 -0.892592 0
M  V30 17370 H 1642.49 4.12926 0.512931 0
M  V30 17371 H 1641.37 5.37453 1.11515 0
M  V30 17372 H 1641.63 3.91406 2.05557 0
M  V30 17373 N 1640.69 0.205039 1.56261 0
M  V30 17374 C 1641.92 -0.435787 2.01952 0
M  V30 17375 C 1642.33 -1.55048 1.08428 0
M  V30 17376 O 1641.67 -1.83512 0.0831276 0
M  V30 17377 C 1641.73 -1.04359 3.4402 0
M  V30 17378 C 1641.4 -0.0663955 4.56952 0
M  V30 17379 C 1642.4 0.727909 5.14779 0
M  V30 17380 C 1640.08 0.0475718 5.02277 0
M  V30 17381 C 1642.07 1.62305 6.16389 0
M  V30 17382 C 1639.76 0.94626 6.03729 0
M  V30 17383 C 1640.76 1.73256 6.6066 0
M  V30 17384 O 1640.45 2.61617 7.60139 0
M  V30 17385 H 1640.18 -0.112721 0.666536 0
M  V30 17386 H 1642.73 0.313993 2.02986 0
M  V30 17387 H 1640.96 -1.84215 3.40003 0
M  V30 17388 H 1642.65 -1.5901 3.73458 0
M  V30 17389 H 1643.42 0.65022 4.80622 0
M  V30 17390 H 1639.3 -0.554295 4.57656 0
M  V30 17391 H 1642.84 2.23722 6.60753 0
M  V30 17392 H 1638.74 1.02503 6.3731 0
M  V30 17393 H 1639.51 2.55507 7.77598 0
M  V30 17394 N 1642.17 -1.57451 -0.0684915 0
M  V30 17395 C 1643.08 -2.07274 -1.09885 0
M  V30 17396 C 1644.1 -1.00295 -1.42186 0
M  V30 17397 O 1645.27 -1.31786 -1.52297 0
M  V30 17398 C 1642.34 -2.50949 -2.39219 0
M  V30 17399 C 1641.4 -3.7224 -2.13859 0
M  V30 17400 C 1640.63 -4.13823 -3.37026 0
M  V30 17401 O 1640.85 -3.55248 -4.46268 0
M  V30 17402 O 1639.79 -5.06587 -3.25044 0
M  V30 17403 H 1643.61 -2.9539 -0.705587 0
M  V30 17404 H 1641.2 -1.46698 -0.282849 0
M  V30 17405 H 1643.08 -2.79547 -3.15327 0
M  V30 17406 H 1641.76 -1.6596 -2.77919 0
M  V30 17407 H 1640.66 -3.4872 -1.35445 0
M  V30 17408 H 1642 -4.58091 -1.80038 0
M  V30 17409 N 1643.65 0.339955 -1.5389 0
M  V30 17410 C 1644.6 1.41838 -1.78511 0
M  V30 17411 C 1645.58 1.47604 -0.640447 0
M  V30 17412 O 1646.77 1.52414 -0.899951 0
M  V30 17413 C 1643.9 2.78929 -2.00134 0
M  V30 17414 C 1642.99 2.7754 -3.20675 0
M  V30 17415 N 1643.38 2.45779 -4.42071 0
M  V30 17416 C 1641.68 3.08684 -3.21917 0
M  V30 17417 C 1642.38 2.52714 -5.23938 0
M  V30 17418 N 1641.35 2.88484 -4.60736 0
M  V30 17419 H 1645.16 1.16185 -2.6996 0
M  V30 17420 H 1642.67 0.548339 -1.52863 0
M  V30 17421 H 1644.67 3.56637 -2.15907 0
M  V30 17422 H 1643.33 3.05525 -1.09929 0
M  V30 17423 H 1644.34 2.18913 -4.69358 0
M  V30 17424 H 1641.02 3.40429 -2.41691 0
M  V30 17425 H 1642.41 2.31287 -6.30838 0
M  V30 17426 N 1645.13 1.45684 0.601159 0
M  V30 17427 C 1646.04 1.57396 1.73965 0
M  V30 17428 C 1647.05 0.458133 1.6786 0
M  V30 17429 O 1648.23 0.719717 1.88101 0
M  V30 17430 C 1645.29 1.54363 3.1044 0
M  V30 17431 C 1644.35 2.77034 3.27949 0
M  V30 17432 C 1643.59 2.74136 4.57914 0
M  V30 17433 O 1643.81 1.81829 5.40643 0
M  V30 17434 O 1642.74 3.65428 4.78274 0
M  V30 17435 H 1646.57 2.5364 1.67034 0
M  V30 17436 H 1644.15 1.28267 0.766017 0
M  V30 17437 H 1646.04 1.55302 3.91739 0
M  V30 17438 H 1644.71 0.612723 3.17848 0
M  V30 17439 H 1643.62 2.81655 2.46214 0
M  V30 17440 H 1644.95 3.69272 3.25422 0
M  V30 17441 N 1646.6 -0.84422 1.33082 0
M  V30 17442 C 1648.02 -1.13406 1.12299 0
M  V30 17443 C 1648.22 -2.013 -0.0896529 0
M  V30 17444 O 1647.28 -2.40425 -0.771493 0
M  V30 17445 C 1648.59 -1.80132 2.40776 0
M  V30 17446 C 1650.14 -1.92721 2.46632 0
M  V30 17447 C 1650.61 -2.62863 3.75056 0
M  V30 17448 N 1652.1 -2.70379 3.76097 0
M  V30 17449 C 1652.84 -3.25328 4.72175 0
M  V30 17450 N 1652.33 -3.81005 5.78625 0
M  V30 17451 N 1654.13 -3.23529 4.59658 0
M  V30 17452 H 1646.28 -0.259126 2.10813 0
M  V30 17453 H 1648.54 -0.177459 0.931242 0
M  V30 17454 H 1648.25 -1.23007 3.29488 0
M  V30 17455 H 1648.12 -2.802 2.52523 0
M  V30 17456 H 1650.51 -2.49002 1.58373 0
M  V30 17457 H 1650.59 -0.916191 2.3883 0
M  V30 17458 H 1650.23 -2.07242 4.63695 0
M  V30 17459 H 1650.16 -3.64425 3.80134 0
M  V30 17460 H 1652.65 -2.30891 2.99162 0
M  V30 17461 H 1652.97 -4.21121 6.47979 0
M  V30 17462 H 1651.31 -3.79308 5.82366 0
M  V30 17463 H 1654.5 -2.79286 3.75656 0
M  V30 17464 H 1654.68 -3.66051 5.34706 0
M  V30 17465 N 1648.08 -1.16463 -1.0618 0
M  V30 17466 C 1648.99 -0.886601 -2.17202 0
M  V30 17467 C 1650.01 0.141568 -1.73423 0
M  V30 17468 O 1651.18 -0.0353417 -2.01369 0
M  V30 17469 C 1648.25 -0.392829 -3.44467 0
M  V30 17470 C 1647.31 -1.48636 -4.02748 0
M  V30 17471 C 1646.54 -1.01606 -5.23939 0
M  V30 17472 O 1646.77 0.133753 -5.70243 0
M  V30 17473 O 1645.7 -1.80487 -5.74202 0
M  V30 17474 H 1649.53 -1.81502 -2.43497 0
M  V30 17475 H 1647.11 -0.944691 -1.15741 0
M  V30 17476 H 1648.99 -0.124501 -4.21216 0
M  V30 17477 H 1647.67 0.507566 -3.19696 0
M  V30 17478 H 1646.57 -1.80845 -3.27484 0
M  V30 17479 H 1647.91 -2.3621 -4.31817 0
M  V30 17480 N 1649.56 1.24734 -0.963288 0
M  V30 17481 C 1650.81 1.92305 -0.621536 0
M  V30 17482 C 1651.13 1.75723 0.845363 0
M  V30 17483 O 1650.4 1.1261 1.60299 0
M  V30 17484 H 1648.98 0.71171 -0.226886 0
M  V30 17485 H 1651.64 1.5172 -1.2234 0
M  V30 17486 H 1650.74 3.00065 -0.858322 0
M  V30 17487 N 1651.04 0.732878 1.39523 0
M  V30 17488 C 1651.99 0.0806066 2.3246 0
M  V30 17489 C 1652.98 -0.728184 1.5295 0
M  V30 17490 O 1654.19 -0.629608 1.6863 0
M  V30 17491 H 1650.56 0.00726537 0.751965 0
M  V30 17492 H 1652.53 0.880867 2.85102 0
M  V30 17493 C 1651.28 -0.81412 3.38035 0
M  V30 17494 H 1650.6 -0.201168 3.99294 0
M  V30 17495 H 1652.04 -1.23817 4.05519 0
M  V30 17496 C 1650.5 -1.94745 2.74911 0
M  V30 17497 O 1651.03 -3.03989 2.6259 0
M  V30 17498 N 1649.24 -1.73624 2.3303 0
M  V30 17499 H 1648.79 -0.847733 2.43251 0
M  V30 17500 H 1648.74 -2.49629 1.91135 0
M  V30 17501 N 1652.52 -1.50101 0.480349 0
M  V30 17502 C 1653.74 -2.06785 -0.068848 0
M  V30 17503 C 1654.16 -1.34316 -1.32683 0
M  V30 17504 O 1653.52 -0.415196 -1.77714 0
M  V30 17505 C 1653.57 -3.59826 -0.347522 0
M  V30 17506 O 1653.29 -4.29565 0.860569 0
M  V30 17507 C 1654.79 -4.33161 -0.94266 0
M  V30 17508 H 1652.01 -0.670906 0.0112172 0
M  V30 17509 H 1654.55 -1.93151 0.671788 0
M  V30 17510 H 1652.71 -3.73232 -1.0381 0
M  V30 17511 H 1653.12 -5.20931 0.610796 0
M  V30 17512 H 1654.6 -5.41184 -1.08736 0
M  V30 17513 H 1655.07 -3.94268 -1.93518 0
M  V30 17514 H 1655.68 -4.24309 -0.290178 0
M  V30 17515 N 1653.99 -0.213323 -1.5615 0
M  V30 17516 C 1654.9 0.711703 -2.23544 0
M  V30 17517 C 1655.92 1.22027 -1.24038 0
M  V30 17518 O 1657.1 1.26361 -1.56828 0
M  V30 17519 C 1654.16 1.90645 -2.89578 0
M  V30 17520 C 1653.22 1.44066 -4.04405 0
M  V30 17521 C 1652.45 2.57846 -4.6728 0
M  V30 17522 O 1652.68 3.75781 -4.29121 0
M  V30 17523 O 1651.61 2.29518 -5.56422 0
M  V30 17524 H 1655.44 0.167635 -3.03237 0
M  V30 17525 H 1653.02 0.016771 -1.49391 0
M  V30 17526 H 1654.9 2.60435 -3.31288 0
M  V30 17527 H 1653.58 2.43877 -2.12851 0
M  V30 17528 H 1652.49 0.711024 -3.67281 0
M  V30 17529 H 1653.82 0.954809 -4.8285 0
M  V30 17530 N 1655.47 1.57485 0.0601405 0
M  V30 17531 C 1656.38 2.07853 1.08785 0
M  V30 17532 C 1657.4 1.01047 1.41653 0
M  V30 17533 O 1658.57 1.32592 1.51596 0
M  V30 17534 C 1655.64 2.52214 2.37885 0
M  V30 17535 C 1654.7 3.73369 2.11882 0
M  V30 17536 C 1653.93 4.15604 3.34827 0
M  V30 17537 O 1654.16 3.5761 4.44377 0
M  V30 17538 O 1653.09 5.08303 3.22353 0
M  V30 17539 H 1656.92 2.9576 0.689912 0
M  V30 17540 H 1654.5 1.46846 0.275065 0
M  V30 17541 H 1656.38 2.81216 3.1384 0
M  V30 17542 H 1655.06 1.67432 2.77035 0
M  V30 17543 H 1653.97 3.49433 1.33594 0
M  V30 17544 H 1655.3 4.59039 1.77606 0
M  V30 17545 N 1656.95 -0.331789 1.54068 0
M  V30 17546 C 1658.23 -1.08843 1.6252 0
M  V30 17547 C 1658.61 -2.06164 0.453847 0
M  V30 17548 O 1657.96 -2.21714 -0.552727 0
M  V30 17549 C 1658.17 -1.79767 2.9914 0
M  V30 17550 C 1659.51 -2.33086 3.54903 0
M  V30 17551 O 1660.54 -1.89846 3.01392 0
M  V30 17552 O 1659.4 -3.12226 4.48528 0
M  V30 17553 H 1656.49 -0.501222 0.657804 0
M  V30 17554 H 1659.04 -0.332339 1.66414 0
M  V30 17555 H 1657.81 -1.08932 3.75832 0
M  V30 17556 H 1657.43 -2.62205 2.98888 0
M  V30 17557 N 1658.43 -1.46001 -0.593424 0
M  V30 17558 C 1659.34 -1.58316 -1.73128 0
M  V30 17559 C 1660.35 -0.467029 -1.67615 0
M  V30 17560 O 1661.53 -0.729682 -1.87717 0
M  V30 17561 C 1658.6 -1.56007 -3.09617 0
M  V30 17562 C 1657.66 -2.78769 -3.26475 0
M  V30 17563 C 1656.89 -2.76561 -4.56453 0
M  V30 17564 O 1657.11 -1.84694 -5.39671 0
M  V30 17565 O 1656.05 -3.67959 -4.76329 0
M  V30 17566 H 1659.87 -2.54522 -1.65686 0
M  V30 17567 H 1657.46 -1.28672 -0.759204 0
M  V30 17568 H 1659.34 -1.57377 -3.9091 0
M  V30 17569 H 1658.01 -0.629571 -3.17519 0
M  V30 17570 H 1656.92 -2.82956 -2.44717 0
M  V30 17571 H 1658.25 -3.70992 -3.23459 0
M  V30 17572 N 1659.91 0.83715 -1.33527 0
M  V30 17573 C 1660.84 1.96231 -1.26553 0
M  V30 17574 C 1661.82 1.69474 -0.14576 0
M  V30 17575 O 1663 1.91274 -0.335815 0
M  V30 17576 C 1660.13 3.32419 -1.00574 0
M  V30 17577 C 1659.09 3.73577 -2.08864 0
M  V30 17578 C 1658.41 5.07591 -1.68095 0
M  V30 17579 C 1659.71 3.87179 -3.50556 0
M  V30 17580 H 1661.41 2.02324 -2.20693 0
M  V30 17581 H 1658.95 0.972038 -1.06242 0
M  V30 17582 H 1660.91 4.10703 -0.943439 0
M  V30 17583 H 1659.63 3.26587 -0.0287268 0
M  V30 17584 H 1658.29 2.97557 -2.14139 0
M  V30 17585 H 1657.94 4.98232 -0.690922 0
M  V30 17586 H 1657.64 5.361 -2.40563 0
M  V30 17587 H 1659.16 5.88349 -1.63334 0
M  V30 17588 H 1660.57 4.55771 -3.47772 0
M  V30 17589 H 1658.97 4.27127 -4.21524 0
M  V30 17590 H 1660.04 2.8958 -3.88936 0
M  V30 17591 N 1661.38 1.17024 1.05561 0
M  V30 17592 C 1662.29 0.898107 2.16728 0
M  V30 17593 C 1663.31 -0.132369 1.73496 0
M  V30 17594 O 1664.49 0.0460203 2.01347 0
M  V30 17595 C 1661.55 0.411091 3.44254 0
M  V30 17596 C 1660.61 1.5077 4.01954 0
M  V30 17597 C 1659.85 1.04383 5.23393 0
M  V30 17598 O 1660.07 -0.10351 5.70306 0
M  V30 17599 O 1659 1.8353 5.73237 0
M  V30 17600 H 1662.83 1.82791 2.42531 0
M  V30 17601 H 1660.41 0.950816 1.15238 0
M  V30 17602 H 1662.3 0.146837 4.21144 0
M  V30 17603 H 1660.97 -0.490605 3.19961 0
M  V30 17604 H 1659.88 1.82579 3.26521 0
M  V30 17605 H 1661.21 2.38497 4.30558 0
M  V30 17606 N 1662.86 -1.24221 0.969889 0
M  V30 17607 C 1663.77 -2.29001 0.509467 0
M  V30 17608 C 1664.79 -1.68587 -0.430637 0
M  V30 17609 O 1665.96 -1.99106 -0.303142 0
M  V30 17610 C 1663.03 -3.46174 -0.190906 0
M  V30 17611 C 1662.09 -4.21982 0.789296 0
M  V30 17612 C 1661.32 -5.3356 0.122252 0
M  V30 17613 O 1661.55 -5.59909 -1.08896 0
M  V30 17614 O 1660.48 -5.9635 0.815517 0
M  V30 17615 H 1664.31 -2.70506 1.38058 0
M  V30 17616 H 1661.89 -1.29955 0.737028 0
M  V30 17617 H 1663.77 -4.1733 -0.584244 0
M  V30 17618 H 1662.45 -3.06642 -1.03695 0
M  V30 17619 H 1661.36 -3.53192 1.23313 0
M  V30 17620 H 1662.69 -4.65337 1.60382 0
M  V30 17621 N 1664.34 -0.740267 -1.39132 0
M  V30 17622 C 1665.25 -0.105452 -2.34363 0
M  V30 17623 C 1666.27 0.715908 -1.5859 0
M  V30 17624 O 1667.44 0.643155 -1.90855 0
M  V30 17625 C 1664.51 0.787141 -3.37646 0
M  V30 17626 C 1663.57 -0.047071 -4.29274 0
M  V30 17627 C 1662.8 0.803014 -5.27624 0
M  V30 17628 O 1663.02 2.04155 -5.32613 0
M  V30 17629 O 1661.96 0.228879 -6.01465 0
M  V30 17630 H 1665.78 -0.891588 -2.90318 0
M  V30 17631 H 1663.37 -0.500996 -1.40749 0
M  V30 17632 H 1665.25 1.29769 -4.00921 0
M  V30 17633 H 1663.93 1.552 -2.84068 0
M  V30 17634 H 1662.83 -0.603265 -3.69204 0
M  V30 17635 H 1664.17 -0.774273 -4.86072 0
M  V30 17636 N 1665.82 1.49844 -0.488302 0
M  V30 17637 C 1666.73 2.32651 0.301746 0
M  V30 17638 C 1667.74 1.43807 0.979573 0
M  V30 17639 O 1668.92 1.76844 0.963758 0
M  V30 17640 C 1665.99 3.18928 1.35962 0
M  V30 17641 C 1665.05 4.23611 0.696575 0
M  V30 17642 C 1664.28 5.05765 1.70404 0
M  V30 17643 O 1664.5 4.89243 2.93253 0
M  V30 17644 O 1663.44 5.88427 1.26637 0
M  V30 17645 H 1667.26 3.01367 -0.375687 0
M  V30 17646 H 1664.85 1.47296 -0.249844 0
M  V30 17647 H 1666.73 3.72413 1.97198 0
M  V30 17648 H 1665.4 2.52921 2.02021 0
M  V30 17649 H 1664.31 3.74073 0.0448118 0
M  V30 17650 H 1665.64 4.92137 0.0786446 0
M  V30 17651 N 1667.3 0.221601 1.56034 0
M  V30 17652 C 1668.21 -0.699837 2.23918 0
M  V30 17653 C 1669.22 -1.21367 1.24683 0
M  V30 17654 O 1670.4 -1.25527 1.57495 0
M  V30 17655 C 1667.46 -1.89107 2.90585 0
M  V30 17656 C 1666.52 -1.4192 4.05163 0
M  V30 17657 C 1665.76 -2.55365 4.68641 0
M  V30 17658 O 1665.98 -3.735 4.31108 0
M  V30 17659 O 1664.91 -2.26564 5.57631 0
M  V30 17660 H 1668.74 -0.151552 3.03322 0
M  V30 17661 H 1666.33 -0.0088482 1.49397 0
M  V30 17662 H 1668.21 -2.58674 3.32664 0
M  V30 17663 H 1666.88 -2.42745 2.14141 0
M  V30 17664 H 1665.79 -0.691536 3.67653 0
M  V30 17665 H 1667.12 -0.929189 4.8335 0
M  V30 17666 N 1668.77 -1.57515 -0.0517878 0
M  V30 17667 C 1670.05 -1.79321 -0.781233 0
M  V30 17668 C 1670.43 -0.814142 -1.94769 0
M  V30 17669 O 1669.78 0.14858 -2.28016 0
M  V30 17670 C 1669.99 -3.26398 -1.23553 0
M  V30 17671 C 1671.34 -3.90773 -1.66077 0
M  V30 17672 O 1672.36 -3.3041 -1.33069 0
M  V30 17673 O 1671.22 -4.97008 -2.27257 0
M  V30 17674 H 1668.31 -0.736627 -0.375912 0
M  V30 17675 H 1670.86 -1.69673 -0.0303173 0
M  V30 17676 H 1669.63 -3.89232 -0.401806 0
M  V30 17677 H 1669.26 -3.40848 -2.04716 0
M  V30 17678 N 1670.25 0.323614 -1.54242 0
M  V30 17679 C 1671.18 1.40344 -1.86616 0
M  V30 17680 C 1672.16 1.53972 -0.722963 0
M  V30 17681 O 1673.35 1.67852 -0.976692 0
M  V30 17682 C 1670.48 2.77112 -2.09347 0
M  V30 17683 C 1669.43 2.78273 -3.25189 0
M  V30 17684 C 1668.76 4.18116 -3.33291 0
M  V30 17685 C 1670.06 2.42025 -4.6284 0
M  V30 17686 H 1671.75 1.13499 -2.77053 0
M  V30 17687 H 1669.3 0.544553 -1.33306 0
M  V30 17688 H 1671.25 3.52719 -2.3058 0
M  V30 17689 H 1669.98 3.05435 -1.1566 0
M  V30 17690 H 1668.64 2.05121 -3.03844 0
M  V30 17691 H 1668.28 4.4358 -2.37163 0
M  V30 17692 H 1667.98 4.19799 -4.11147 0
M  V30 17693 H 1669.51 4.95536 -3.56758 0
M  V30 17694 H 1670.92 3.07346 -4.83954 0
M  V30 17695 H 1669.32 2.5496 -5.43245 0
M  V30 17696 H 1670.39 1.37175 -4.65092 0
M  V30 17697 N 1671.73 1.46313 0.585673 0
M  V30 17698 C 1672.66 1.52683 1.7094 0
M  V30 17699 C 1673.68 0.415447 1.5741 0
M  V30 17700 O 1674.87 0.683657 1.64889 0
M  V30 17701 C 1671.97 1.38822 3.09163 0
M  V30 17702 C 1671.14 2.64027 3.48724 0
M  V30 17703 C 1670.2 2.44407 4.65995 0
M  V30 17704 O 1669.22 3.18118 4.72006 0
M  V30 17705 N 1670.43 1.50381 5.60683 0
M  V30 17706 H 1673.19 2.49573 1.65932 0
M  V30 17707 H 1670.75 1.42332 0.771573 0
M  V30 17708 H 1672.74 1.23474 3.85404 0
M  V30 17709 H 1671.31 0.501247 3.08555 0
M  V30 17710 H 1670.53 2.94338 2.62219 0
M  V30 17711 H 1671.82 3.47206 3.71921 0
M  V30 17712 H 1671.22 0.895917 5.5856 0
M  V30 17713 H 1669.78 1.40997 6.36367 0
M  V30 17714 N 1673.21 -0.830057 1.33969 0
M  V30 17715 C 1674.17 -1.92206 1.24858 0
M  V30 17716 C 1675.17 -1.59946 0.16549 0
M  V30 17717 O 1676.36 -1.6912 0.417629 0
M  V30 17718 C 1673.49 -3.28082 0.926029 0
M  V30 17719 H 1674.69 -2.01708 2.21932 0
M  V30 17720 H 1672.24 -1.02319 1.18154 0
M  V30 17721 H 1672.98 -3.24273 -0.0418364 0
M  V30 17722 H 1672.76 -3.52878 1.70938 0
M  V30 17723 H 1674.25 -4.08065 0.887263 0
M  V30 17724 N 1674.69 -1.17582 -1.04939 0
M  V30 17725 C 1675.65 -0.897095 -2.10914 0
M  V30 17726 C 1676.65 0.113823 -1.60397 0
M  V30 17727 O 1677.84 -0.118635 -1.73796 0
M  V30 17728 C 1674.97 -0.344251 -3.39157 0
M  V30 17729 H 1676.17 -1.83674 -2.37074 0
M  V30 17730 H 1673.72 -0.986634 -1.21224 0
M  V30 17731 H 1674.45 0.602417 -3.18656 0
M  V30 17732 H 1674.24 -1.07287 -3.77137 0
M  V30 17733 H 1675.73 -0.167644 -4.17263 0
M  V30 17734 N 1676.17 1.23705 -0.976463 0
M  V30 17735 C 1677.39 1.96595 -0.660697 0
M  V30 17736 C 1677.82 1.71845 0.764916 0
M  V30 17737 O 1677.17 0.987506 1.52046 0
M  V30 17738 C 1677.22 3.47803 -0.95214 0
M  V30 17739 O 1676.33 4.12378 -0.0421126 0
M  V30 17740 H 1675.67 0.615591 -0.248886 0
M  V30 17741 H 1678.2 1.57247 -1.30899 0
M  V30 17742 H 1678.21 3.98236 -0.887238 0
M  V30 17743 H 1676.88 3.65144 -1.99105 0
M  V30 17744 H 1675.46 3.72552 -0.161087 0
M  V30 17745 N 1677.64 0.747635 1.38738 0
M  V30 17746 C 1678.59 0.11597 2.30508 0
M  V30 17747 C 1679.56 -0.716088 1.49871 0
M  V30 17748 O 1680.75 -0.673446 1.7852 0
M  V30 17749 C 1677.89 -0.775765 3.36268 0
M  V30 17750 C 1677 0.070275 4.31943 0
M  V30 17751 C 1676.13 -0.823908 5.24772 0
M  V30 17752 C 1675.17 0.0261249 6.12094 0
M  V30 17753 N 1674.31 -0.824688 6.9724 0
M  V30 17754 H 1679.15 0.904158 2.83952 0
M  V30 17755 H 1676.69 0.457513 1.39804 0
M  V30 17756 H 1678.64 -1.30735 3.96187 0
M  V30 17757 H 1677.27 -1.5298 2.84248 0
M  V30 17758 H 1676.33 0.719421 3.73535 0
M  V30 17759 H 1677.64 0.726987 4.93474 0
M  V30 17760 H 1676.79 -1.42287 5.89779 0
M  V30 17761 H 1675.53 -1.51437 4.63593 0
M  V30 17762 H 1674.54 0.637803 5.46088 0
M  V30 17763 H 1675.76 0.713556 6.75341 0
M  V30 17764 H 1673.71 -1.50021 6.38616 0
M  V30 17765 H 1673.62 -0.22474 7.55666 0
M  V30 17766 H 1674.89 -1.40882 7.66663 0
M  V30 17767 N 1679.12 -1.49583 0.496242 0
M  V30 17768 C 1680.05 -2.31885 -0.274139 0
M  V30 17769 C 1681.03 -1.39939 -0.96701 0
M  V30 17770 O 1682.22 -1.6885 -0.959333 0
M  V30 17771 C 1679.35 -3.20332 -1.34181 0
M  V30 17772 C 1678.3 -4.21033 -0.769091 0
M  V30 17773 C 1677.63 -4.98385 -1.93693 0
M  V30 17774 C 1678.93 -5.21764 0.236648 0
M  V30 17775 H 1680.62 -2.9654 0.412824 0
M  V30 17776 H 1678.17 -1.42605 0.199979 0
M  V30 17777 H 1680.12 -3.76718 -1.88843 0
M  V30 17778 H 1678.84 -2.53611 -2.05789 0
M  V30 17779 H 1677.5 -3.65785 -0.244252 0
M  V30 17780 H 1677.15 -4.28115 -2.64058 0
M  V30 17781 H 1676.85 -5.66519 -1.55981 0
M  V30 17782 H 1678.38 -5.57613 -2.48798 0
M  V30 17783 H 1679.79 -5.72871 -0.221672 0
M  V30 17784 H 1678.19 -5.97761 0.529346 0
M  V30 17785 H 1679.26 -4.70964 1.15415 0
M  V30 17786 N 1680.6 -0.229873 -1.55915 0
M  V30 17787 C 1681.83 0.404189 -2.02914 0
M  V30 17788 C 1682.24 1.52758 -1.10952 0
M  V30 17789 O 1681.6 1.82101 -0.120685 0
M  V30 17790 C 1681.65 0.928016 -3.49385 0
M  V30 17791 O 1681.37 -0.150592 -4.37841 0
M  V30 17792 C 1682.87 1.63448 -4.12067 0
M  V30 17793 H 1680.09 0.0980294 -0.663801 0
M  V30 17794 H 1682.64 -0.34876 -2.01504 0
M  V30 17795 H 1680.79 1.63121 -3.51384 0
M  V30 17796 H 1681.21 0.244429 -5.2393 0
M  V30 17797 H 1682.68 1.95292 -5.16299 0
M  V30 17798 H 1683.16 2.55055 -3.57553 0
M  V30 17799 H 1683.76 0.976292 -4.13943 0
M  V30 17800 N 1682.08 1.5754 0.0434337 0
M  V30 17801 C 1683.49 1.77071 0.591836 0
M  V30 17802 C 1683.84 0.85911 1.76391 0
M  V30 17803 O 1682.96 0.0502725 2.16342 0
M  V30 17804 C 1683.56 3.21111 1.08041 0
M  V30 17805 C 1682.12 3.41889 1.57445 0
M  V30 17806 C 1681.27 2.72641 0.506166 0
M  V30 17807 H 1684.22 1.57644 -0.182792 0
M  V30 17808 H 1684.24 3.26834 1.94833 0
M  V30 17809 H 1683.75 3.87435 0.227153 0
M  V30 17810 H 1681.85 2.80721 2.45003 0
M  V30 17811 H 1681.96 4.50452 1.63185 0
M  V30 17812 H 1680.33 2.36002 0.957878 0
M  V30 17813 H 1681.11 3.41638 -0.337389 0
M  V30 17814 N 1683.56 -0.31543 1.54411 0
M  V30 17815 C 1684.83 -1.07113 1.63665 0
M  V30 17816 C 1685.21 -2.05671 0.475688 0
M  V30 17817 O 1684.56 -2.22288 -0.52918 0
M  V30 17818 C 1684.77 -1.76584 3.0103 0
M  V30 17819 C 1686.12 -2.29309 3.57355 0
M  V30 17820 O 1687.14 -1.86638 3.03388 0
M  V30 17821 O 1686 -3.07452 4.51814 0
M  V30 17822 H 1683.1 -0.494217 0.663083 0
M  V30 17823 H 1685.64 -0.31467 1.66757 0
M  V30 17824 H 1684.41 -1.0494 3.76966 0
M  V30 17825 H 1684.04 -2.5902 3.01653 0
M  V30 17826 N 1685.03 -1.46622 -0.577906 0
M  V30 17827 C 1686.31 -1.42657 -1.33822 0
M  V30 17828 C 1686.69 -0.11256 -2.108 0
M  V30 17829 O 1686.04 0.905903 -2.09775 0
M  V30 17830 C 1686.25 -2.65927 -2.26018 0
M  V30 17831 C 1687.6 -3.12277 -2.87695 0
M  V30 17832 O 1688.62 -2.66509 -2.36329 0
M  V30 17833 O 1687.48 -3.91786 -3.81007 0
M  V30 17834 H 1684.57 -0.567544 -0.601517 0
M  V30 17835 H 1687.12 -1.58795 -0.598524 0
M  V30 17836 H 1685.89 -3.53116 -1.68597 0
M  V30 17837 H 1685.52 -2.52272 -3.07318 0
M  V30 17838 N 1686.51 0.822941 -1.34408 0
M  V30 17839 C 1687.74 1.61607 -1.29992 0
M  V30 17840 C 1688.16 1.87695 0.123301 0
M  V30 17841 O 1687.52 1.45247 1.08504 0
M  V30 17842 C 1687.57 2.934 -2.09639 0
M  V30 17843 O 1686.67 3.85467 -1.4659 0
M  V30 17844 H 1686.01 0.491504 -0.446452 0
M  V30 17845 H 1688.54 1.02264 -1.7721 0
M  V30 17846 H 1688.55 3.42966 -2.20994 0
M  V30 17847 H 1687.23 2.73736 -3.13116 0
M  V30 17848 H 1685.81 3.43984 -1.43978 0
M  V30 17849 N 1687.99 1.18137 1.04314 0
M  V30 17850 C 1689.4 0.979768 1.58926 0
M  V30 17851 C 1689.75 -0.471214 1.90457 0
M  V30 17852 O 1688.88 -1.34812 1.69277 0
M  V30 17853 C 1689.47 1.77219 2.88754 0
M  V30 17854 C 1688.03 1.61501 3.39992 0
M  V30 17855 C 1687.18 1.76824 2.13609 0
M  V30 17856 H 1690.13 1.32717 0.870162 0
M  V30 17857 H 1690.15 1.2598 3.59039 0
M  V30 17858 H 1689.66 2.82818 2.65773 0
M  V30 17859 H 1687.76 0.58427 3.67991 0
M  V30 17860 H 1687.88 2.4115 4.13985 0
M  V30 17861 H 1686.24 1.19747 2.24795 0
M  V30 17862 H 1687.02 2.83853 1.93087 0
M  V30 17863 N 1689.47 -1.23186 0.98301 0
M  V30 17864 C 1690.43 -2.22979 0.530366 0
M  V30 17865 C 1691.43 -1.56211 -0.381421 0
M  V30 17866 O 1692.62 -1.73321 -0.17475 0
M  V30 17867 C 1689.75 -3.40124 -0.229882 0
M  V30 17868 H 1690.95 -2.64539 1.41277 0
M  V30 17869 H 1688.5 -1.36064 0.769172 0
M  V30 17870 H 1689.23 -3.04024 -1.12871 0
M  V30 17871 H 1689.02 -3.89794 0.424653 0
M  V30 17872 H 1690.51 -4.14158 -0.535078 0
M  V30 17873 N 1690.95 -0.754982 -1.38339 0
M  V30 17874 C 1691.88 -0.143678 -2.33058 0
M  V30 17875 C 1692.86 0.702022 -1.54938 0
M  V30 17876 O 1694.04 0.642922 -1.83249 0
M  V30 17877 C 1691.17 0.749194 -3.39123 0
M  V30 17878 C 1690.13 0.00611459 -4.28 0
M  V30 17879 C 1689.45 1.01733 -5.24933 0
M  V30 17880 C 1690.75 -1.1631 -5.09185 0
M  V30 17881 H 1692.45 -0.934907 -2.84429 0
M  V30 17882 H 1689.99 -0.451023 -1.36754 0
M  V30 17883 H 1691.95 1.18653 -4.04351 0
M  V30 17884 H 1690.67 1.57276 -2.86237 0
M  V30 17885 H 1689.33 -0.411816 -3.6428 0
M  V30 17886 H 1688.98 1.83499 -4.68334 0
M  V30 17887 H 1688.68 0.524783 -5.85252 0
M  V30 17888 H 1690.2 1.45395 -5.93037 0
M  V30 17889 H 1691.61 -0.803244 -5.67645 0
M  V30 17890 H 1690.01 -1.5866 -5.78746 0
M  V30 17891 H 1691.08 -1.97533 -4.42842 0
M  V30 17892 N 1692.42 1.49318 -0.504168 0
M  V30 17893 C 1693.65 2.06869 0.0359415 0
M  V30 17894 C 1694.07 1.3641 1.30529 0
M  V30 17895 O 1693.42 0.443416 1.77031 0
M  V30 17896 C 1693.48 3.60333 0.290233 0
M  V30 17897 O 1693.2 4.28141 -0.928801 0
M  V30 17898 C 1694.7 4.34606 0.873628 0
M  V30 17899 H 1691.92 0.670643 -0.0218893 0
M  V30 17900 H 1694.46 1.92058 -0.702432 0
M  V30 17901 H 1692.62 3.74836 0.978594 0
M  V30 17902 H 1693.03 5.19894 -0.693595 0
M  V30 17903 H 1694.5 5.42846 1.00112 0
M  V30 17904 H 1694.98 3.97297 1.87221 0
M  V30 17905 H 1695.59 4.24717 0.222638 0
M  V30 17906 N 1693.9 0.238138 1.5579 0
M  V30 17907 C 1695.31 -0.266656 1.84786 0
M  V30 17908 C 1695.66 -1.58248 1.15983 0
M  V30 17909 O 1694.79 -2.11979 0.43518 0
M  V30 17910 C 1695.38 -0.4906 3.35229 0
M  V30 17911 C 1693.94 -0.939672 3.64482 0
M  V30 17912 C 1693.09 -0.0119682 2.77297 0
M  V30 17913 H 1696.04 0.460924 1.51859 0
M  V30 17914 H 1696.06 -1.3344 3.56334 0
M  V30 17915 H 1695.57 0.467239 3.85277 0
M  V30 17916 H 1693.68 -1.91029 3.19904 0
M  V30 17917 H 1693.79 -0.8026 4.72329 0
M  V30 17918 H 1692.15 -0.521767 2.49298 0
M  V30 17919 H 1692.94 0.941085 3.30149 0
M  V30 17920 N 1695.38 -1.57561 -0.0350783 0
M  V30 17921 C 1696.79 -1.77383 -0.582437 0
M  V30 17922 C 1697.14 -0.868453 -1.75933 0
M  V30 17923 O 1696.27 -0.061745 -2.16312 0
M  V30 17924 C 1696.86 -3.2168 -1.06337 0
M  V30 17925 C 1695.42 -3.42719 -1.55629 0
M  V30 17926 C 1694.57 -2.72906 -0.4917 0
M  V30 17927 H 1697.52 -1.57545 0.19115 0
M  V30 17928 H 1697.54 -3.27863 -1.93097 0
M  V30 17929 H 1697.05 -3.8755 -0.206603 0
M  V30 17930 H 1695.15 -2.82016 -2.43511 0
M  V30 17931 H 1695.27 -4.51312 -1.60794 0
M  V30 17932 H 1693.63 -2.36506 -0.945349 0
M  V30 17933 H 1694.41 -3.41454 0.355502 0
M  V30 17934 N 1696.86 0.307236 -1.54576 0
M  V30 17935 C 1698.08 1.06668 -1.77867 0
M  V30 17936 C 1698.51 1.80375 -0.533536 0
M  V30 17937 O 1697.87 1.73812 0.515663 0
M  V30 17938 C 1697.91 2.02777 -2.98184 0
M  V30 17939 O 1697.02 3.10969 -2.70872 0
M  V30 17940 H 1696.36 0.306741 -0.588902 0
M  V30 17941 H 1698.89 0.346557 -2.01644 0
M  V30 17942 H 1698.9 2.45355 -3.25983 0
M  V30 17943 H 1697.57 1.48534 -3.88472 0
M  V30 17944 H 1696.15 2.7295 -2.54072 0
M  V30 17945 N 1698.34 1.46926 0.570122 0
M  V30 17946 C 1699.75 1.469 1.15227 0
M  V30 17947 C 1700.1 0.216651 1.95 0
M  V30 17948 O 1699.22 -0.679388 2.05459 0
M  V30 17949 C 1699.82 2.66158 2.09632 0
M  V30 17950 C 1698.38 2.69133 2.63144 0
M  V30 17951 C 1697.52 2.39795 1.39262 0
M  V30 17952 H 1700.48 1.54623 0.35739 0
M  V30 17953 H 1700.5 2.42393 2.93302 0
M  V30 17954 H 1700.01 3.5729 1.51543 0
M  V30 17955 H 1698.11 1.82106 3.25066 0
M  V30 17956 H 1698.22 3.69459 3.05019 0
M  V30 17957 H 1696.59 1.9011 1.695 0
M  V30 17958 H 1697.37 3.33119 0.829855 0
M  V30 17959 N 1699.82 -0.815801 1.34842 0
M  V30 17960 C 1701.06 -1.57241 1.27599 0
M  V30 17961 C 1701.39 -1.93904 -0.152127 0
M  V30 17962 O 1700.65 -1.60819 -1.11515 0
M  V30 17963 C 1700.94 -2.87795 2.11917 0
M  V30 17964 C 1700.61 -2.70392 3.60831 0
M  V30 17965 C 1699.27 -2.65353 4.01424 0
M  V30 17966 C 1701.62 -2.53569 4.55359 0
M  V30 17967 C 1698.95 -2.41422 5.34726 0
M  V30 17968 C 1701.3 -2.31169 5.8885 0
M  V30 17969 C 1699.97 -2.24546 6.28598 0
M  V30 17970 H 1699.24 -0.575386 0.466918 0
M  V30 17971 H 1701.89 -0.943355 1.66653 0
M  V30 17972 H 1700.19 -3.5503 1.65714 0
M  V30 17973 H 1701.89 -3.45436 2.03654 0
M  V30 17974 H 1698.48 -2.75157 3.28613 0
M  V30 17975 H 1702.66 -2.5648 4.2489 0
M  V30 17976 H 1697.92 -2.34758 5.64534 0
M  V30 17977 H 1702.09 -2.1714 6.61682 0
M  V30 17978 H 1699.72 -2.05765 7.31823 0
M  V30 17979 N 1701.29 -1.18689 -1.03686 0
M  V30 17980 C 1702.71 -0.937386 -1.29171 0
M  V30 17981 C 1702.91 0.394863 -1.97593 0
M  V30 17982 O 1701.97 1.12829 -2.25889 0
M  V30 17983 C 1703.28 -2.10568 -2.14666 0
M  V30 17984 C 1704.83 -2.14441 -2.28 0
M  V30 17985 C 1705.3 -3.30699 -3.16863 0
M  V30 17986 N 1706.79 -3.30584 -3.24451 0
M  V30 17987 C 1707.53 -4.17184 -3.93376 0
M  V30 17988 N 1707.02 -5.13924 -4.646 0
M  V30 17989 N 1708.82 -4.05086 -3.89694 0
M  V30 17990 H 1700.97 -2.04417 -0.576836 0
M  V30 17991 H 1703.23 -0.893404 -0.31707 0
M  V30 17992 H 1702.94 -3.06938 -1.71702 0
M  V30 17993 H 1702.81 -2.06955 -3.15356 0
M  V30 17994 H 1705.2 -1.18647 -2.70198 0
M  V30 17995 H 1705.28 -2.22111 -1.26888 0
M  V30 17996 H 1704.92 -4.26768 -2.75375 0
M  V30 17997 H 1704.85 -3.20266 -4.18016 0
M  V30 17998 H 1707.34 -2.60552 -2.73717 0
M  V30 17999 H 1707.66 -5.76368 -5.14801 0
M  V30 18000 H 1706 -5.1788 -4.63492 0
M  V30 18001 H 1709.19 -3.28793 -3.33186 0
M  V30 18002 H 1709.37 -4.72792 -4.43139 0
M  V30 18003 N 1702.77 1.22662 -0.989529 0
M  V30 18004 C 1704.05 1.86816 -0.579566 0
M  V30 18005 C 1704.43 1.88858 0.943188 0
M  V30 18006 O 1703.78 1.37668 1.82372 0
M  V30 18007 C 1703.99 3.27863 -1.19612 0
M  V30 18008 C 1705.33 4.04384 -1.29454 0
M  V30 18009 O 1706.36 3.37116 -1.15026 0
M  V30 18010 O 1705.22 5.24789 -1.52508 0
M  V30 18011 H 1702.31 0.803332 -0.196434 0
M  V30 18012 H 1704.86 1.30467 -1.08519 0
M  V30 18013 H 1703.63 3.20993 -2.23784 0
M  V30 18014 H 1703.25 3.91813 -0.675875 0
M  V30 18015 N 1704.25 0.762308 1.37937 0
M  V30 18016 C 1705.47 0.332217 2.04722 0
M  V30 18017 C 1705.9 -1.03417 1.57119 0
M  V30 18018 O 1705.26 -1.6608 0.727117 0
M  V30 18019 C 1705.31 0.373899 3.58656 0
M  V30 18020 O 1704.41 -0.629024 4.07575 0
M  V30 18021 H 1703.75 0.145471 0.647869 0
M  V30 18022 H 1706.28 1.03586 1.7644 0
M  V30 18023 H 1706.29 0.22785 4.07363 0
M  V30 18024 H 1704.97 1.37079 3.92661 0
M  V30 18025 H 1703.54 -0.446871 3.70213 0
M  V30 18026 N 1705.73 -1.49049 0.51208 0
M  V30 18027 C 1706.97 -2.0278 -0.0285311 0
M  V30 18028 C 1707.31 -1.39003 -1.35617 0
M  V30 18029 O 1706.58 -0.52952 -1.87153 0
M  V30 18030 C 1706.86 -3.59701 -0.169433 0
M  V30 18031 C 1706.72 -4.33989 1.18211 0
M  V30 18032 C 1708.04 -4.30698 -0.904812 0
M  V30 18033 H 1705.16 -0.736946 -0.00889467 0
M  V30 18034 H 1707.8 -1.77959 0.66564 0
M  V30 18035 H 1705.95 -3.8098 -0.760667 0
M  V30 18036 H 1707.62 -4.24176 1.81307 0
M  V30 18037 H 1705.86 -3.9611 1.76859 0
M  V30 18038 H 1706.53 -5.42177 1.03671 0
M  V30 18039 H 1709.01 -4.14141 -0.40327 0
M  V30 18040 H 1707.89 -5.40221 -0.972264 0
M  V30 18041 H 1708.15 -3.96718 -1.95108 0
M  V30 18042 N 1707.21 -0.246397 -1.55662 0
M  V30 18043 C 1708.17 0.640041 -2.20082 0
M  V30 18044 C 1709.17 1.10313 -1.16994 0
M  V30 18045 O 1710.36 1.00792 -1.42079 0
M  V30 18046 C 1707.49 1.87964 -2.84398 0
M  V30 18047 H 1708.68 0.0780034 -2.99799 0
M  V30 18048 H 1706.24 0.00314588 -1.563 0
M  V30 18049 H 1706.97 2.48292 -2.08618 0
M  V30 18050 H 1706.76 1.5558 -3.59913 0
M  V30 18051 H 1708.25 2.51065 -3.33701 0
M  V30 18052 N 1708.68 1.57577 0.026722 0
M  V30 18053 C 1709.91 1.94035 0.732473 0
M  V30 18054 C 1710.33 0.846575 1.67972 0
M  V30 18055 O 1709.69 -0.197514 1.80221 0
M  V30 18056 C 1709.74 3.2956 1.46365 0
M  V30 18057 O 1708.84 3.21975 2.57694 0
M  V30 18058 H 1708.18 0.634155 0.196832 0
M  V30 18059 H 1710.71 2.04592 -0.018503 0
M  V30 18060 H 1710.72 3.64504 1.83305 0
M  V30 18061 H 1709.4 4.0873 0.768943 0
M  V30 18062 H 1707.98 2.98665 2.23279 0
M  V30 18063 N 1710.16 -0.299034 1.54737 0
M  V30 18064 C 1711.41 -1.03195 1.73767 0
M  V30 18065 C 1711.73 -1.87731 0.527445 0
M  V30 18066 O 1711 -1.90465 -0.458242 0
M  V30 18067 H 1709.58 -0.383996 0.640747 0
M  V30 18068 H 1712.24 -0.329544 1.92094 0
M  V30 18069 H 1711.34 -1.68393 2.62774 0
M  V30 18070 N 1711.64 -1.47227 -0.562322 0
M  V30 18071 C 1712.86 -1.5744 -1.35008 0
M  V30 18072 C 1713.29 -0.223223 -1.86771 0
M  V30 18073 O 1712.65 0.800078 -1.62691 0
M  V30 18074 C 1712.7 -2.5992 -2.49948 0
M  V30 18075 O 1711.8 -2.14836 -3.52022 0
M  V30 18076 H 1711.14 -0.529064 -0.401232 0
M  V30 18077 H 1713.67 -1.92966 -0.680084 0
M  V30 18078 H 1713.68 -2.80177 -2.96588 0
M  V30 18079 H 1712.36 -3.58031 -2.11629 0
M  V30 18080 H 1710.93 -2.04655 -3.11722 0
M  V30 18081 N 1713.12 0.808639 -1.35273 0
M  V30 18082 C 1714.34 1.60219 -1.31699 0
M  V30 18083 C 1714.77 1.87816 0.103386 0
M  V30 18084 O 1714.13 1.46389 1.06957 0
M  V30 18085 C 1714.17 2.9116 -2.12739 0
M  V30 18086 O 1713.28 3.83891 -1.5067 0
M  V30 18087 H 1712.62 0.486742 -0.45164 0
M  V30 18088 H 1715.15 1.00378 -1.78284 0
M  V30 18089 H 1715.16 3.40602 -2.2462 0
M  V30 18090 H 1713.83 2.70399 -3.16002 0
M  V30 18091 H 1712.41 3.42437 -1.47618 0
M  V30 18092 N 1714.6 1.19237 1.03055 0
M  V30 18093 C 1715.84 0.995444 1.76688 0
M  V30 18094 C 1716.18 -0.472805 1.88357 0
M  V30 18095 O 1715.45 -1.3511 1.39913 0
M  V30 18096 C 1715.73 1.66308 3.19396 0
M  V30 18097 C 1715.59 3.20486 3.15609 0
M  V30 18098 C 1716.91 1.38468 4.17749 0
M  V30 18099 H 1714.02 0.36304 0.641382 0
M  V30 18100 H 1716.67 1.47052 1.20315 0
M  V30 18101 H 1714.82 1.25915 3.67529 0
M  V30 18102 H 1716.49 3.70081 2.75387 0
M  V30 18103 H 1714.73 3.52118 2.53369 0
M  V30 18104 H 1715.4 3.62345 4.16426 0
M  V30 18105 H 1717.88 1.73485 3.78209 0
M  V30 18106 H 1716.75 1.87735 5.15797 0
M  V30 18107 H 1717.02 0.309505 4.41015 0
M  V30 18108 N 1716.07 -1.22136 0.99602 0
M  V30 18109 C 1717.49 -1.72743 0.708295 0
M  V30 18110 C 1717.84 -1.8026 -0.774649 0
M  V30 18111 O 1716.96 -1.45102 -1.60544 0
M  V30 18112 C 1717.56 -3.13729 1.27905 0
M  V30 18113 C 1716.12 -3.61729 1.04064 0
M  V30 18114 C 1715.26 -2.39519 1.39735 0
M  V30 18115 H 1718.21 -1.07439 1.16801 0
M  V30 18116 H 1718.23 -3.74746 0.65919 0
M  V30 18117 H 1717.75 -3.08225 2.35836 0
M  V30 18118 H 1715.85 -3.72594 -0.0219029 0
M  V30 18119 H 1715.96 -4.47689 1.70621 0
M  V30 18120 H 1714.32 -2.41275 0.815986 0
M  V30 18121 H 1715.11 -2.36675 2.48677 0
M  V30 18122 N 1717.55 -0.769612 -1.37531 0
M  V30 18123 C 1718.78 -0.343069 -2.04543 0
M  V30 18124 C 1719.2 1.02583 -1.57665 0
M  V30 18125 O 1718.56 1.65692 -0.735915 0
M  V30 18126 C 1718.61 -0.392914 -3.58453 0
M  V30 18127 O 1717.71 0.607401 -4.07902 0
M  V30 18128 H 1717.05 -0.148905 -0.647088 0
M  V30 18129 H 1719.58 -1.04521 -1.75888 0
M  V30 18130 H 1719.59 -0.24945 -4.07237 0
M  V30 18131 H 1718.27 -1.39159 -3.91928 0
M  V30 18132 H 1716.85 0.427231 -3.70445 0
M  V30 18133 N 1719.03 1.48775 -0.519977 0
M  V30 18134 C 1720.26 2.07394 0.0161061 0
M  V30 18135 C 1720.68 1.37532 1.28322 0
M  V30 18136 O 1720.04 0.438049 1.75928 0
M  V30 18137 C 1720.09 3.59844 0.233382 0
M  V30 18138 O 1719.19 3.91235 1.30418 0
M  V30 18139 H 1718.53 0.663094 -0.0346678 0
M  V30 18140 H 1721.06 1.91323 -0.725029 0
M  V30 18141 H 1721.07 4.05409 0.45911 0
M  V30 18142 H 1719.75 4.10098 -0.69229 0
M  V30 18143 H 1718.32 3.5746 1.0619 0
M  V30 18144 N 1720.51 0.254649 1.55529 0
M  V30 18145 C 1721.92 -0.247042 1.85058 0
M  V30 18146 C 1722.27 -1.57009 1.17655 0
M  V30 18147 O 1721.4 -2.11506 0.457638 0
M  V30 18148 C 1721.99 -0.455017 3.35731 0
M  V30 18149 C 1720.55 -0.900961 3.65458 0
M  V30 18150 C 1719.7 0.0174436 2.77295 0
M  V30 18151 H 1722.65 0.477005 1.51362 0
M  V30 18152 H 1722.67 -1.29654 3.57729 0
M  V30 18153 H 1722.18 0.508076 3.8476 0
M  V30 18154 H 1720.28 -1.87625 3.21913 0
M  V30 18155 H 1720.39 -0.752458 4.73154 0
M  V30 18156 H 1718.76 -0.495296 2.49838 0
M  V30 18157 H 1719.54 0.976049 3.29132 0
M  V30 18158 N 1721.99 -1.57589 -0.0183649 0
M  V30 18159 C 1723.23 -1.90038 -0.708056 0
M  V30 18160 C 1723.57 -0.853686 -1.7443 0
M  V30 18161 O 1722.84 0.12994 -1.94065 0
M  V30 18162 C 1723.12 -3.33107 -1.3679 0
M  V30 18163 C 1722.98 -4.48479 -0.344448 0
M  V30 18164 C 1724.3 -3.75276 -2.29904 0
M  V30 18165 H 1721.41 -0.691134 -0.255934 0
M  V30 18166 H 1724.06 -1.89978 0.0291579 0
M  V30 18167 H 1722.21 -3.33289 -1.99626 0
M  V30 18168 H 1723.88 -4.60432 0.282816 0
M  V30 18169 H 1722.12 -4.32503 0.335196 0
M  V30 18170 H 1722.79 -5.45497 -0.844832 0
M  V30 18171 H 1725.27 -3.76529 -1.77103 0
M  V30 18172 H 1724.14 -4.76168 -2.73049 0
M  V30 18173 H 1724.41 -3.08124 -3.17036 0
M  V30 18174 N 1723.46 0.290824 -1.54893 0
M  V30 18175 C 1724.69 1.04775 -1.78988 0
M  V30 18176 C 1725.11 1.79799 -0.552637 0
M  V30 18177 O 1724.47 1.74349 0.497199 0
M  V30 18178 C 1724.52 1.99603 -3.00318 0
M  V30 18179 O 1723.62 3.08079 -2.74155 0
M  V30 18180 H 1722.97 0.300478 -0.592123 0
M  V30 18181 H 1725.5 0.325151 -2.02 0
M  V30 18182 H 1725.51 2.41884 -3.28567 0
M  V30 18183 H 1724.18 1.44406 -3.90025 0
M  V30 18184 H 1722.76 2.7024 -2.56953 0
M  V30 18185 N 1724.94 1.47523 0.554506 0
M  V30 18186 C 1725.85 1.62851 1.68869 0
M  V30 18187 C 1726.87 0.511305 1.66318 0
M  V30 18188 O 1728.04 0.779195 1.85716 0
M  V30 18189 C 1725.11 1.64161 3.05372 0
M  V30 18190 C 1724.17 2.87327 3.1897 0
M  V30 18191 C 1723.4 2.88566 4.48961 0
M  V30 18192 O 1723.63 1.98937 5.34584 0
M  V30 18193 O 1722.56 3.80459 4.66406 0
M  V30 18194 H 1726.39 2.58826 1.5888 0
M  V30 18195 H 1723.97 1.3064 0.724822 0
M  V30 18196 H 1725.85 1.67686 3.866 0
M  V30 18197 H 1724.53 0.713534 3.15738 0
M  V30 18198 H 1723.44 2.89345 2.37129 0
M  V30 18199 H 1724.77 3.79438 3.13509 0
M  V30 18200 N 1726.42 -0.801453 1.357 0
M  V30 18201 C 1727.65 -1.59518 1.32547 0
M  V30 18202 C 1728.07 -1.87868 -0.0934243 0
M  V30 18203 O 1727.43 -1.46955 -1.06179 0
M  V30 18204 C 1727.48 -2.90028 2.14281 0
M  V30 18205 O 1726.58 -3.83086 1.52704 0
M  V30 18206 H 1725.92 -0.48434 0.454215 0
M  V30 18207 H 1728.45 -0.994315 1.78814 0
M  V30 18208 H 1728.46 -3.39406 2.26423 0
M  V30 18209 H 1727.14 -2.6872 3.17431 0
M  V30 18210 H 1725.71 -3.4165 1.49432 0
M  V30 18211 N 1727.9 -1.19782 -1.02421 0
M  V30 18212 C 1729.14 -1.0048 -1.76158 0
M  V30 18213 C 1729.48 0.46281 -1.88605 0
M  V30 18214 O 1728.75 1.34366 -1.40628 0
M  V30 18215 C 1729.04 -1.67999 -3.1851 0
M  V30 18216 C 1728.89 -3.22155 -3.13905 0
M  V30 18217 C 1730.21 -1.40681 -4.17009 0
M  V30 18218 H 1727.33 -0.366436 -0.639448 0
M  V30 18219 H 1729.97 -1.47688 -1.19534 0
M  V30 18220 H 1728.12 -1.27862 -3.66856 0
M  V30 18221 H 1729.79 -3.71536 -2.7342 0
M  V30 18222 H 1728.03 -3.53456 -2.51498 0
M  V30 18223 H 1728.7 -3.64548 -4.14498 0
M  V30 18224 H 1731.18 -1.75488 -3.77284 0
M  V30 18225 H 1730.06 -1.90467 -5.14795 0
M  V30 18226 H 1730.32 -0.332889 -4.40845 0
M  V30 18227 N 1729.38 1.21606 -1.00248 0
M  V30 18228 C 1730.31 2.26159 -0.580911 0
M  V30 18229 C 1731.29 1.65402 0.397017 0
M  V30 18230 O 1732.47 1.92089 0.285552 0
M  V30 18231 C 1729.6 3.47168 0.0957564 0
M  V30 18232 C 1728.56 4.20425 -0.801695 0
M  V30 18233 C 1727.88 5.34699 0.00842241 0
M  V30 18234 C 1729.18 4.78086 -2.10311 0
M  V30 18235 H 1730.88 2.61675 -1.45487 0
M  V30 18236 H 1728.42 1.25786 -0.700995 0
M  V30 18237 H 1730.38 4.19477 0.402141 0
M  V30 18238 H 1729.1 3.10775 1.00433 0
M  V30 18239 H 1727.76 3.49963 -1.09187 0
M  V30 18240 H 1727.41 4.94548 0.918206 0
M  V30 18241 H 1727.11 5.84639 -0.589105 0
M  V30 18242 H 1728.63 6.09819 0.30868 0
M  V30 18243 H 1730.05 5.42287 -1.86004 0
M  V30 18244 H 1728.44 5.38405 -2.65028 0
M  V30 18245 H 1729.51 3.97607 -2.77555 0
M  V30 18246 N 1730.86 0.776895 1.37121 0
M  V30 18247 C 1732.1 0.348792 2.01402 0
M  V30 18248 C 1732.46 -1.05625 1.60335 0
M  V30 18249 O 1733.66 -1.58475 2.17116 0
M  V30 18250 C 1731.93 0.493351 3.53979 0
M  V30 18251 S 1733.49 0.151273 4.38539 0
M  V30 18252 H 1730.31 0.133916 0.698275 0
M  V30 18253 H 1732.91 1.01264 1.6723 0
M  V30 18254 H 1731.61 1.51647 3.81355 0
M  V30 18255 H 1731.15 -0.186869 3.92956 0
M  V30 18256 H 1733.16 -1.05145 4.84932 0
M  V30 18257 N 1732.33 -1.48497 0.527859 0
M  V30 18258 C 1733.56 -2.069 -0.00302594 0
M  V30 18259 C 1733.98 -1.38469 -1.28342 0
M  V30 18260 O 1733.33 -0.471524 -1.76303 0
M  V30 18261 C 1733.38 -3.60749 -0.232871 0
M  V30 18262 O 1733.11 -4.26609 0.996797 0
M  V30 18263 C 1734.61 -4.35941 -0.804376 0
M  V30 18264 H 1731.83 -0.67021 0.0325559 0
M  V30 18265 H 1734.37 -1.90916 0.732897 0
M  V30 18266 H 1732.53 -3.76346 -0.918837 0
M  V30 18267 H 1732.94 -5.18725 0.776217 0
M  V30 18268 H 1734.41 -5.4437 -0.914635 0
M  V30 18269 H 1734.89 -4.00225 -1.80876 0
M  V30 18270 H 1735.5 -4.25017 -0.155041 0
M  V30 18271 N 1733.81 -0.262893 -1.55392 0
M  V30 18272 C 1735.22 0.237224 -1.85187 0
M  V30 18273 C 1735.57 1.56383 -1.18486 0
M  V30 18274 O 1734.7 2.1126 -0.468849 0
M  V30 18275 C 1735.29 0.437206 -3.35967 0
M  V30 18276 C 1733.85 0.881568 -3.65931 0
M  V30 18277 C 1733 -0.0321489 -2.77281 0
M  V30 18278 H 1735.95 -0.485025 -1.51107 0
M  V30 18279 H 1735.97 1.27755 -3.58412 0
M  V30 18280 H 1735.48 -0.528474 -3.84485 0
M  V30 18281 H 1733.58 1.85915 -3.22903 0
M  V30 18282 H 1733.7 0.727355 -4.73547 0
M  V30 18283 H 1732.06 0.48204 -2.50097 0
M  V30 18284 H 1732.84 -0.99349 -3.2861 0
M  V30 18285 N 1735.29 1.57597 0.0100073 0
M  V30 18286 C 1736.7 1.78287 0.554143 0
M  V30 18287 C 1737.05 0.896332 1.74529 0
M  V30 18288 O 1736.18 0.0961505 2.16186 0
M  V30 18289 C 1736.77 3.23331 1.01206 0
M  V30 18290 C 1735.33 3.45152 1.50157 0
M  V30 18291 C 1734.48 2.73654 0.448221 0
M  V30 18292 H 1737.43 1.57221 -0.216189 0
M  V30 18293 H 1737.45 3.30893 1.87856 0
M  V30 18294 H 1736.96 3.87829 0.144921 0
M  V30 18295 H 1735.06 2.85854 2.38994 0
M  V30 18296 H 1735.18 4.53813 1.53594 0
M  V30 18297 H 1733.54 2.3798 0.907603 0
M  V30 18298 H 1734.32 3.40846 -0.40978 0
M  V30 18299 N 1736.77 -0.282606 1.55045 0
M  V30 18300 C 1737.72 -1.36902 1.88044 0
M  V30 18301 C 1738.71 -1.51603 0.755845 0
M  V30 18302 O 1739.92 -1.53501 0.940074 0
M  V30 18303 H 1736.29 -0.457666 0.596696 0
M  V30 18304 H 1738.26 -1.06317 2.78818 0
M  V30 18305 C 1737.01 -2.72426 2.16054 0
M  V30 18306 H 1736.33 -2.61903 3.02071 0
M  V30 18307 H 1737.77 -3.47409 2.43071 0
M  V30 18308 C 1736.23 -3.22784 0.964996 0
M  V30 18309 O 1736.76 -4.01228 0.194759 0
M  V30 18310 N 1734.97 -2.80341 0.765322 0
M  V30 18311 H 1734.52 -2.16665 1.39335 0
M  V30 18312 H 1734.47 -3.14383 -0.0330026 0
M  V30 18313 N 1738.25 -1.47815 -0.546675 0
M  V30 18314 C 1739.49 -1.5521 -1.30529 0
M  V30 18315 C 1739.82 -0.218129 -1.92971 0
M  V30 18316 O 1739.1 0.774298 -1.78423 0
M  V30 18317 C 1739.38 -2.67799 -2.40739 0
M  V30 18318 C 1739.24 -4.10847 -1.83097 0
M  V30 18319 C 1740.55 -2.76238 -3.42608 0
M  V30 18320 H 1737.67 -0.564998 -0.473229 0
M  V30 18321 H 1740.32 -1.79917 -0.610713 0
M  V30 18322 H 1738.47 -2.46863 -2.99985 0
M  V30 18323 H 1740.14 -4.43177 -1.28031 0
M  V30 18324 H 1738.38 -4.1863 -1.13716 0
M  V30 18325 H 1739.05 -4.85418 -2.62818 0
M  V30 18326 H 1741.53 -2.95156 -2.93296 0
M  V30 18327 H 1740.4 -3.56774 -4.17137 0
M  V30 18328 H 1740.66 -1.83719 -4.02119 0
M  V30 18329 N 1739.72 0.794246 -1.36123 0
M  V30 18330 C 1740.95 1.58813 -1.33391 0
M  V30 18331 C 1741.37 1.87915 0.0834599 0
M  V30 18332 O 1740.73 1.47516 1.05398 0
M  V30 18333 C 1740.78 2.88887 -2.15816 0
M  V30 18334 O 1739.88 3.82271 -1.54734 0
M  V30 18335 H 1739.22 0.481924 -0.456777 0
M  V30 18336 H 1741.75 0.984818 -1.79339 0
M  V30 18337 H 1741.76 3.38201 -2.2822 0
M  V30 18338 H 1740.44 2.67032 -3.18852 0
M  V30 18339 H 1739.02 3.40852 -1.51242 0
M  V30 18340 N 1741.2 1.20323 1.01785 0
M  V30 18341 C 1742.43 1.03671 1.78706 0
M  V30 18342 C 1742.84 -0.417188 1.84543 0
M  V30 18343 O 1742.18 -1.30146 1.29645 0
M  V30 18344 C 1742.24 1.54318 3.24694 0
M  V30 18345 C 1741.91 3.02598 3.42466 0
M  V30 18346 C 1742.91 4.00267 3.31787 0
M  V30 18347 C 1740.59 3.41531 3.68323 0
M  V30 18348 C 1742.58 5.34858 3.46707 0
M  V30 18349 C 1740.27 4.76278 3.82887 0
M  V30 18350 C 1741.27 5.7275 3.72083 0
M  V30 18351 O 1740.96 7.05055 3.86203 0
M  V30 18352 H 1740.69 0.365174 0.56888 0
M  V30 18353 H 1743.24 1.59826 1.29014 0
M  V30 18354 H 1741.47 0.925474 3.75462 0
M  V30 18355 H 1743.16 1.33705 3.83246 0
M  V30 18356 H 1743.93 3.71534 3.11749 0
M  V30 18357 H 1739.81 2.66983 3.75821 0
M  V30 18358 H 1743.35 6.10142 3.3819 0
M  V30 18359 H 1739.25 5.04702 4.02425 0
M  V30 18360 H 1740.02 7.12284 4.03228 0
M  V30 18361 N 1742.68 -1.21073 1.00892 0
M  V30 18362 C 1743.64 -2.21804 0.577543 0
M  V30 18363 C 1744.64 -1.56985 -0.348201 0
M  V30 18364 O 1745.83 -1.73653 -0.137947 0
M  V30 18365 C 1742.96 -3.40535 -0.157685 0
M  V30 18366 H 1744.16 -2.61483 1.46856 0
M  V30 18367 H 1741.71 -1.34402 0.79786 0
M  V30 18368 H 1742.45 -3.0635 -1.06397 0
M  V30 18369 H 1742.23 -3.88805 0.507238 0
M  V30 18370 H 1743.72 -4.152 -0.447109 0
M  V30 18371 N 1744.16 -0.784156 -1.36707 0
M  V30 18372 C 1745.38 -0.364744 -2.04168 0
M  V30 18373 C 1745.81 1.00905 -1.58745 0
M  V30 18374 O 1745.17 1.64903 -0.753447 0
M  V30 18375 C 1745.21 -0.43091 -3.58016 0
M  V30 18376 O 1744.32 0.564103 -4.08524 0
M  V30 18377 H 1743.66 -0.15576 -0.645473 0
M  V30 18378 H 1746.19 -1.0638 -1.74769 0
M  V30 18379 H 1746.2 -0.292629 -4.06949 0
M  V30 18380 H 1744.87 -1.43308 -3.9043 0
M  V30 18381 H 1743.45 0.387917 -3.70877 0
M  V30 18382 N 1745.64 1.48215 -0.535727 0
M  V30 18383 C 1746.88 2.028 -0.00373305 0
M  V30 18384 C 1747.22 1.41143 1.33388 0
M  V30 18385 O 1746.49 0.559227 1.86287 0
M  V30 18386 C 1746.77 3.59925 0.112186 0
M  V30 18387 C 1746.63 4.32053 -1.251 0
M  V30 18388 C 1747.95 4.32083 0.836177 0
M  V30 18389 H 1745.06 0.736995 -0.00283063 0
M  V30 18390 H 1747.71 1.76877 -0.693868 0
M  V30 18391 H 1745.86 3.82142 0.69996 0
M  V30 18392 H 1747.53 4.21238 -1.88033 0
M  V30 18393 H 1745.77 3.93246 -1.83139 0
M  V30 18394 H 1746.44 5.4046 -1.12283 0
M  V30 18395 H 1748.92 4.1473 0.337333 0
M  V30 18396 H 1747.79 5.41699 0.886196 0
M  V30 18397 H 1748.06 3.99772 1.88771 0
M  V30 18398 N 1747.11 0.27113 1.5525 0
M  V30 18399 C 1748.36 -0.347408 1.98686 0
M  V30 18400 C 1748.68 -1.57275 1.16292 0
M  V30 18401 O 1749.88 -2.26399 1.49853 0
M  V30 18402 C 1748.34 -0.669461 3.53619 0
M  V30 18403 C 1747.95 0.535853 4.44784 0
M  V30 18404 C 1749.69 -1.25084 4.05653 0
M  V30 18405 C 1747.6 0.188607 5.91099 0
M  V30 18406 H 1746.53 -0.133581 0.742073 0
M  V30 18407 H 1749.18 0.375157 1.79624 0
M  V30 18408 H 1747.56 -1.45082 3.68466 0
M  V30 18409 H 1748.73 1.3128 4.41704 0
M  V30 18410 H 1747.05 1.03381 4.03363 0
M  V30 18411 H 1749.65 -1.52439 5.1251 0
M  V30 18412 H 1749.99 -2.18341 3.54448 0
M  V30 18413 H 1750.52 -0.531864 3.94228 0
M  V30 18414 H 1747.26 1.08894 6.46392 0
M  V30 18415 H 1746.78 -0.551653 5.97258 0
M  V30 18416 H 1748.46 -0.220603 6.46624 0
M  V30 18417 N 1748.59 -1.576 -0.00164943 0
M  V30 18418 C 1749.52 -2.11354 -0.992554 0
M  V30 18419 C 1750.5 -1.0223 -1.35952 0
M  V30 18420 O 1751.69 -1.29904 -1.44356 0
M  V30 18421 C 1748.82 -2.61549 -2.28494 0
M  V30 18422 C 1747.77 -3.75185 -2.05962 0
M  V30 18423 C 1747.1 -4.11688 -3.412 0
M  V30 18424 C 1748.4 -5.02526 -1.42355 0
M  V30 18425 H 1750.09 -2.94398 -0.544986 0
M  V30 18426 H 1747.64 -1.4162 -0.260702 0
M  V30 18427 H 1749.59 -2.97782 -2.98168 0
M  V30 18428 H 1748.32 -1.75625 -2.75361 0
M  V30 18429 H 1746.97 -3.39343 -1.38714 0
M  V30 18430 H 1746.62 -3.22789 -3.85767 0
M  V30 18431 H 1746.32 -4.88246 -3.2694 0
M  V30 18432 H 1747.85 -4.50478 -4.12192 0
M  V30 18433 H 1749.26 -5.3654 -2.01984 0
M  V30 18434 H 1747.66 -5.83878 -1.38589 0
M  V30 18435 H 1748.73 -4.83308 -0.392565 0
M  V30 18436 N 1750.07 0.274379 -1.55193 0
M  V30 18437 C 1751.49 0.621497 -1.47002 0
M  V30 18438 C 1751.69 1.89572 -0.682995 0
M  V30 18439 O 1750.74 2.51696 -0.201296 0
M  V30 18440 C 1752.06 0.749741 -2.91203 0
M  V30 18441 C 1753.6 0.843886 -3.01409 0
M  V30 18442 C 1754.08 1.00392 -4.46862 0
M  V30 18443 N 1755.57 1.06947 -4.50684 0
M  V30 18444 C 1756.3 1.21207 -5.60443 0
M  V30 18445 N 1755.8 1.32195 -6.80071 0
M  V30 18446 N 1757.59 1.24307 -5.48183 0
M  V30 18447 H 1749.74 -0.562462 -2.04817 0
M  V30 18448 H 1752.01 -0.190205 -0.928723 0
M  V30 18449 H 1751.71 -0.116074 -3.51508 0
M  V30 18450 H 1751.59 1.63046 -3.40141 0
M  V30 18451 H 1753.97 1.70017 -2.41202 0
M  V30 18452 H 1754.06 -0.061411 -2.55726 0
M  V30 18453 H 1753.7 0.152298 -5.07672 0
M  V30 18454 H 1753.63 1.92384 -4.902 0
M  V30 18455 H 1756.12 0.997012 -3.64511 0
M  V30 18456 H 1756.43 1.42906 -7.59472 0
M  V30 18457 H 1754.78 1.29202 -6.82885 0
M  V30 18458 H 1757.97 1.15352 -4.53665 0
M  V30 18459 H 1758.14 1.35076 -6.33765 0
M  V30 18460 N 1751.55 1.48103 0.538828 0
M  V30 18461 C 1752.83 1.46155 1.29992 0
M  V30 18462 C 1753.21 0.16841 2.10427 0
M  V30 18463 O 1752.55 -0.849967 2.12103 0
M  V30 18464 C 1752.76 2.71826 2.18888 0
M  V30 18465 C 1754.11 3.19794 2.79315 0
M  V30 18466 O 1755.14 2.72681 2.2918 0
M  V30 18467 O 1753.99 4.0175 3.70485 0
M  V30 18468 H 1751.09 0.583293 0.586258 0
M  V30 18469 H 1753.63 1.60326 0.556212 0
M  V30 18470 H 1752.41 3.57462 1.59176 0
M  V30 18471 H 1752.03 2.60332 3.00521 0
M  V30 18472 N 1753.03 -0.787016 1.36542 0
M  V30 18473 C 1754.26 -1.5736 1.33871 0
M  V30 18474 C 1754.66 -1.89024 -0.0814846 0
M  V30 18475 O 1754.01 -1.50771 -1.04947 0
M  V30 18476 C 1754.07 -2.91978 2.09735 0
M  V30 18477 C 1753.73 -2.8303 3.58808 0
M  V30 18478 C 1754.73 -2.55108 4.53008 0
M  V30 18479 C 1752.42 -3.01531 4.01727 0
M  V30 18480 C 1754.41 -2.45793 5.88103 0
M  V30 18481 C 1752.1 -2.91838 5.36911 0
M  V30 18482 C 1753.09 -2.64007 6.29912 0
M  V30 18483 O 1752.78 -2.54312 7.62614 0
M  V30 18484 H 1752.51 -0.494659 0.460748 0
M  V30 18485 H 1755.07 -0.984519 1.80268 0
M  V30 18486 H 1753.3 -3.52946 1.58005 0
M  V30 18487 H 1754.99 -3.53268 1.99891 0
M  V30 18488 H 1755.75 -2.40514 4.21163 0
M  V30 18489 H 1751.63 -3.22199 3.2971 0
M  V30 18490 H 1755.18 -2.23991 6.60662 0
M  V30 18491 H 1751.07 -3.05995 5.68364 0
M  V30 18492 H 1751.84 -2.69776 7.72763 0
M  V30 18493 N 1754.5 -1.20861 -1.01145 0
M  V30 18494 C 1755.45 -0.962085 -2.09792 0
M  V30 18495 C 1756.42 0.109588 -1.65738 0
M  V30 18496 O 1757.61 -0.0362022 -1.90766 0
M  V30 18497 C 1754.75 -0.52586 -3.4107 0
M  V30 18498 C 1753.86 -1.66626 -3.98572 0
M  V30 18499 C 1752.99 -1.17983 -5.17932 0
M  V30 18500 C 1752.03 -2.29298 -5.67529 0
M  V30 18501 N 1751.17 -1.81836 -6.78145 0
M  V30 18502 H 1756.01 -1.89222 -2.30215 0
M  V30 18503 H 1753.55 -0.943108 -1.12889 0
M  V30 18504 H 1755.51 -0.25423 -4.16425 0
M  V30 18505 H 1754.14 0.367275 -3.20704 0
M  V30 18506 H 1753.19 -2.05268 -3.20264 0
M  V30 18507 H 1754.5 -2.50426 -4.3138 0
M  V30 18508 H 1753.65 -0.864477 -6.0051 0
M  V30 18509 H 1752.39 -0.311793 -4.86702 0
M  V30 18510 H 1751.4 -2.61644 -4.83552 0
M  V30 18511 H 1752.62 -3.16587 -6.00791 0
M  V30 18512 H 1750.57 -0.973665 -6.48734 0
M  V30 18513 H 1750.49 -2.59213 -7.10172 0
M  V30 18514 H 1751.75 -1.53315 -7.64274 0
M  V30 18515 N 1755.98 1.20536 -1.01532 0
M  V30 18516 C 1756.91 2.22683 -0.542658 0
M  V30 18517 C 1757.93 1.5844 0.374267 0
M  V30 18518 O 1759.12 1.77661 0.172818 0
M  V30 18519 C 1756.22 3.38117 0.230168 0
M  V30 18520 C 1755.39 4.3195 -0.688356 0
M  V30 18521 C 1754.45 5.26187 0.0366686 0
M  V30 18522 O 1753.47 5.66182 -0.585418 0
M  V30 18523 N 1754.68 5.65481 1.31193 0
M  V30 18524 H 1757.44 2.63864 -1.42111 0
M  V30 18525 H 1755 1.35065 -0.892703 0
M  V30 18526 H 1756.99 3.98164 0.724408 0
M  V30 18527 H 1755.56 2.95837 1.00991 0
M  V30 18528 H 1754.78 3.69889 -1.36292 0
M  V30 18529 H 1756.07 4.91564 -1.3131 0
M  V30 18530 H 1755.47 5.34998 1.83829 0
M  V30 18531 H 1754.03 6.27842 1.75092 0
M  V30 18532 N 1757.46 0.791395 1.36289 0
M  V30 18533 C 1758.69 0.375566 2.03971 0
M  V30 18534 C 1759.11 -1.00061 1.59277 0
M  V30 18535 O 1758.47 -1.64501 0.762182 0
M  V30 18536 C 1758.52 0.449891 3.57783 0
M  V30 18537 O 1757.62 -0.54243 4.08817 0
M  V30 18538 H 1756.96 0.159181 0.644637 0
M  V30 18539 H 1759.49 1.07306 1.74203 0
M  V30 18540 H 1759.5 0.314206 4.06788 0
M  V30 18541 H 1758.18 1.45377 3.89665 0
M  V30 18542 H 1756.75 -0.368243 3.71077 0
M  V30 18543 N 1758.94 -1.47929 0.54358 0
M  V30 18544 C 1760.16 -2.07393 0.0168905 0
M  V30 18545 C 1760.59 -1.39557 -1.26117 0
M  V30 18546 O 1759.95 -0.465983 -1.75209 0
M  V30 18547 C 1760 -3.6017 -0.176105 0
M  V30 18548 O 1759.1 -3.9326 -1.24178 0
M  V30 18549 H 1758.44 -0.662459 0.0452126 0
M  V30 18550 H 1760.97 -1.90145 0.755376 0
M  V30 18551 H 1760.98 -4.06088 -0.394555 0
M  V30 18552 H 1759.66 -4.08944 0.757445 0
M  V30 18553 H 1758.23 -3.59105 -1.0049 0
M  V30 18554 N 1760.42 -0.27936 -1.55104 0
M  V30 18555 C 1761.64 0.342295 -2.04556 0
M  V30 18556 C 1762.07 1.48367 -1.15624 0
M  V30 18557 O 1761.43 1.8063 -0.15572 0
M  V30 18558 C 1761.47 0.796785 -3.51687 0
M  V30 18559 O 1760.58 1.90364 -3.65835 0
M  V30 18560 H 1759.92 0.07012 -0.660287 0
M  V30 18561 H 1762.45 -0.414896 -2.00349 0
M  V30 18562 H 1762.46 1.09141 -3.93131 0
M  V30 18563 H 1761.13 -0.0382637 -4.15882 0
M  V30 18564 H 1759.71 1.61123 -3.36294 0
M  V30 18565 N 1761.9 1.57599 -0.0067085 0
M  V30 18566 C 1763.12 1.95142 0.687533 0
M  V30 18567 C 1763.54 0.88196 1.66934 0
M  V30 18568 O 1762.9 -0.13847 1.81974 0
M  V30 18569 C 1762.95 3.32718 1.41355 0
M  V30 18570 O 1762.67 4.3556 0.471111 0
M  V30 18571 C 1764.17 3.84761 2.20168 0
M  V30 18572 H 1761.39 0.643222 0.191066 0
M  V30 18573 H 1763.93 2.04412 -0.0598214 0
M  V30 18574 H 1762.09 3.24735 2.11248 0
M  V30 18575 H 1762.5 5.15185 0.984091 0
M  V30 18576 H 1763.98 4.83432 2.66454 0
M  V30 18577 H 1764.45 3.1782 3.03129 0
M  V30 18578 H 1765.06 3.9594 1.55278 0
M  V30 18579 N 1763.37 -0.266145 1.55336 0
M  V30 18580 C 1764.3 -1.33322 1.91697 0
M  V30 18581 C 1765.28 -1.51182 0.77961 0
M  V30 18582 O 1766.47 -1.64112 1.03832 0
M  V30 18583 C 1763.6 -2.69151 2.19488 0
M  V30 18584 C 1762.55 -2.66012 3.35293 0
M  V30 18585 C 1761.88 -4.05458 3.4858 0
M  V30 18586 C 1763.18 -2.24681 4.71504 0
M  V30 18587 H 1764.87 -1.03138 2.81075 0
M  V30 18588 H 1762.42 -0.494702 1.35236 0
M  V30 18589 H 1764.37 -3.43918 2.43512 0
M  V30 18590 H 1763.1 -3.00932 1.26916 0
M  V30 18591 H 1761.76 -1.93703 3.11247 0
M  V30 18592 H 1761.4 -4.34472 2.53462 0
M  V30 18593 H 1761.1 -4.04251 4.26445 0
M  V30 18594 H 1762.63 -4.81954 3.74904 0
M  V30 18595 H 1764.04 -2.89173 4.95027 0
M  V30 18596 H 1762.44 -2.34622 5.52334 0
M  V30 18597 H 1763.51 -1.19819 4.69863 0
M  V30 18598 O 1764.89 -1.56159 -0.411892 0
M  V30 18599 H 1765.58 -1.61822 -1.06458 0
M  V30 END ATOM
M  V30 BEGIN BOND
M  V30 END BOND
M  V30 END CTAB
M  END
$$$$
