drugbank_target|P63104 14-3-3 protein zeta/delta (DB12695)
 OpenBabel12092119493D

  0  0  0     0  0            999 V3000
M  V30 BEGIN CTAB
M  V30 COUNTS 3853 3878 0 0 0
M  V30 BEGIN ATOM
M  V30 1 H -0.908 1.98254 -0.117106 0
M  V30 2 N 0 1.576 0 0
M  V30 3 C 0.933 2.03868 1.02534 0
M  V30 4 C 1.911 0.928543 1.3348 0
M  V30 5 O 3.095 1.19667 1.45644 0
M  V30 6 C 0.222 2.43627 2.35294 0
M  V30 7 C -0.732 3.65373 2.2001 0
M  V30 8 S 0.101 5.13292 1.52614 0
M  V30 9 C 1.257 5.56322 2.86805 0
M  V30 10 H 1.49 2.90518 0.631377 0
M  V30 11 H -0.977 1.52953 0.210867 0
M  V30 12 H 0.981 2.67203 3.11629 0
M  V30 13 H -0.358 1.57376 2.7183 0
M  V30 14 H -1.165 3.90944 3.18086 0
M  V30 15 H -1.563 3.418 1.51819 0
M  V30 16 H 0.729 5.58782 3.83104 0
M  V30 17 H 1.672 6.56266 2.65933 0
M  V30 18 H 2.08 4.83886 2.90714 0
M  V30 19 N 1.4781 -0.272755 1.55222 0
M  V30 20 C 2.7551 -1.02562 1.66555 0
M  V30 21 C 3.1351 -2.04282 0.532189 0
M  V30 22 O 2.4831 -2.23662 -0.467717 0
M  V30 23 C 2.6931 -1.6822 3.05782 0
M  V30 24 C 4.0411 -2.19373 3.63539 0
M  V30 25 O 5.0651 -1.78206 3.08417 0
M  V30 26 O 3.9241 -2.94883 4.60115 0
M  V30 27 H 1.0181 -0.475755 0.676451 0
M  V30 28 H 3.5641 -0.268593 1.67561 0
M  V30 29 H 2.3361 -0.945112 3.79715 0
M  V30 30 H 1.9591 -2.50609 3.08676 0
M  V30 31 N 2.9562 -1.48159 -0.537278 0
M  V30 32 C 3.9032 -1.62138 -1.64256 0
M  V30 33 C 4.8732 -0.463668 -1.59497 0
M  V30 34 O 6.0582 -0.686241 -1.78032 0
M  V30 35 C 3.1982 -1.66028 -3.02537 0
M  V30 36 C 2.3112 -2.92855 -3.17585 0
M  V30 37 C 1.4462 -2.87952 -4.46382 0
M  V30 38 C 0.4852 -4.09516 -4.54932 0
M  V30 39 N -0.3778 -4.02733 -5.75109 0
M  V30 40 H 4.4622 -2.56529 -1.51647 0
M  V30 41 H 1.9992 -1.27224 -0.738414 0
M  V30 42 H 3.9572 -1.66265 -3.82638 0
M  V30 43 H 2.5872 -0.751331 -3.13934 0
M  V30 44 H 1.6392 -3.02395 -2.30784 0
M  V30 45 H 2.9512 -3.82822 -3.19764 0
M  V30 46 H 2.1052 -2.8655 -5.34765 0
M  V30 47 H 0.8442 -1.95702 -4.46712 0
M  V30 48 H -0.1508 -4.11201 -3.64957 0
M  V30 49 H 1.0742 -5.02917 -4.56346 0
M  V30 50 H -0.9798 -3.13299 -5.76351 0
M  V30 51 H -1.0628 -4.86397 -5.78752 0
M  V30 52 H 0.2052 -4.05379 -6.65799 0
M  V30 53 N 4.4343 0.785586 -1.36625 0
M  V30 54 C 5.3823 1.91978 -1.31329 0
M  V30 55 C 6.3763 1.68162 -0.204416 0
M  V30 56 O 7.5823 1.76122 -0.371645 0
M  V30 57 H 3.9573 0.631087 -0.408942 0
M  V30 58 H 5.9283 1.93562 -2.27104 0
M  V30 59 C 4.6773 3.29055 -1.12329 0
M  V30 60 H 4.0003 3.4795 -1.96903 0
M  V30 61 H 5.4403 4.08756 -1.12671 0
M  V30 62 C 3.8993 3.36461 0.171861 0
M  V30 63 O 4.4293 3.84576 1.16035 0
M  V30 64 N 2.6353 2.89782 0.217846 0
M  V30 65 H 2.1823 2.50819 -0.587183 0
M  V30 66 H 2.1403 2.95119 1.08408 0
M  V30 67 N 5.9124 1.20967 1.01018 0
M  V30 68 C 6.8224 0.980157 2.13143 0
M  V30 69 C 7.8384 -0.0660665 1.73875 0
M  V30 70 O 9.0144 0.122821 2.01025 0
M  V30 71 C 6.0794 0.54216 3.42435 0
M  V30 72 C 5.1404 1.65999 3.95908 0
M  V30 73 C 4.3734 1.2428 5.19028 0
M  V30 74 O 4.5964 0.114196 5.70286 0
M  V30 75 O 3.5304 2.05271 5.65816 0
M  V30 76 H 7.3564 1.91913 2.35379 0
M  V30 77 H 4.9414 0.994099 1.11526 0
M  V30 78 H 6.8234 0.30744 4.20277 0
M  V30 79 H 5.4984 -0.36815 3.216 0
M  V30 80 H 4.4054 1.94906 3.19316 0
M  V30 81 H 5.7384 2.54753 4.21143 0
M  V30 82 N 7.3905 -1.2043 1.01659 0
M  V30 83 C 8.3205 -2.25466 0.607226 0
M  V30 84 C 9.3015 -1.65853 -0.377716 0
M  V30 85 O 10.4865 -1.92409 -0.263149 0
M  V30 86 C 7.6165 -3.47256 -0.0552949 0
M  V30 87 C 6.5705 -4.19462 0.850632 0
M  V30 88 C 5.8965 -5.34673 0.0538859 0
M  V30 89 C 7.1965 -4.75603 2.15868 0
M  V30 90 H 8.8905 -2.59962 1.48526 0
M  V30 91 H 6.4365 -1.2496 0.715605 0
M  V30 92 H 8.3895 -4.19917 -0.353233 0
M  V30 93 H 7.1135 -3.11924 -0.968045 0
M  V30 94 H 5.7725 -3.48667 1.13257 0
M  V30 95 H 5.4205 -4.95585 -0.860514 0
M  V30 96 H 5.1205 -5.83913 0.657192 0
M  V30 97 H 6.6445 -6.10138 -0.237598 0
M  V30 98 H 8.0585 -5.40083 1.92311 0
M  V30 99 H 6.4555 -5.3528 2.71284 0
M  V30 100 H 7.5255 -3.94346 2.82169 0
M  V30 101 N 8.8686 -0.792821 -1.36206 0
M  V30 102 C 10.1146 -0.36733 -1.99446 0
M  V30 103 C 10.4476 1.05917 -1.62774 0
M  V30 104 O 9.7226 1.7324 -0.88421 0
M  V30 105 C 10.0056 -0.535044 -3.56103 0
M  V30 106 C 9.8586 -2.00548 -4.02617 0
M  V30 107 C 11.1776 0.0478191 -4.40074 0
M  V30 108 H 8.2966 -0.134941 -0.724541 0
M  V30 109 H 10.9386 -0.999794 -1.61568 0
M  V30 110 H 9.0886 0.00336329 -3.885 0
M  V30 111 H 10.7606 -2.60521 -3.80692 0
M  V30 112 H 9.0036 -2.50686 -3.54032 0
M  V30 113 H 9.6746 -2.07377 -5.11565 0
M  V30 114 H 12.1506 -0.411822 -4.14057 0
M  V30 115 H 11.0266 -0.0995336 -5.4881 0
M  V30 116 H 11.2876 1.14025 -4.27142 0
M  V30 117 N 10.3467 1.47872 -0.545128 0
M  V30 118 C 11.2787 2.27869 0.246621 0
M  V30 119 C 12.2917 1.36282 0.890561 0
M  V30 120 O 13.4807 1.61207 0.766449 0
M  V30 121 C 10.5807 3.10159 1.36582 0
M  V30 122 C 9.7537 4.29627 0.820954 0
M  V30 123 C 8.8127 4.93607 1.82314 0
M  V30 124 O 7.8387 5.52366 1.37406 0
M  V30 125 N 9.0407 4.87211 3.15603 0
M  V30 126 H 11.8057 2.96459 -0.439539 0
M  V30 127 H 9.3667 1.57367 -0.380421 0
M  V30 128 H 11.3587 3.49829 2.03474 0
M  V30 129 H 9.9287 2.43891 1.9554 0
M  V30 130 H 9.1487 3.94192 -0.0244032 0
M  V30 131 H 10.4367 5.06928 0.436063 0
M  V30 132 H 9.8347 4.40651 3.54744 0
M  V30 133 H 8.3917 5.30937 3.78087 0
M  V30 134 N 11.8248 0.280983 1.55075 0
M  V30 135 C 12.7718 -0.603937 2.22758 0
M  V30 136 C 13.7418 -1.1452 1.20309 0
M  V30 137 O 14.9268 -1.19343 1.48869 0
M  V30 138 C 12.0668 -1.77947 2.95684 0
M  V30 139 C 11.1798 -1.2715 4.12864 0
M  V30 140 C 10.3148 -2.4093 4.7342 0
M  V30 141 C 9.3538 -1.87165 5.82783 0
M  V30 142 N 8.4908 -2.94441 6.37377 0
M  V30 143 H 13.3308 -0.020124 2.97993 0
M  V30 144 H 10.8678 0.00183425 1.471 0
M  V30 145 H 12.8258 -2.47055 3.36184 0
M  V30 146 H 11.4558 -2.33522 2.22861 0
M  V30 147 H 10.5078 -0.473331 3.77444 0
M  V30 148 H 11.8198 -0.837751 4.91715 0
M  V30 149 H 10.9738 -3.18021 5.1667 0
M  V30 150 H 9.7128 -2.87623 3.93859 0
M  V30 151 H 8.7178 -1.08556 5.38976 0
M  V30 152 H 9.9428 -1.41401 6.64216 0
M  V30 153 H 7.8888 -3.40505 5.60707 0
M  V30 154 H 7.8058 -2.55501 7.11516 0
M  V30 155 H 9.0738 -3.71489 6.85285 0
M  V30 156 N 13.3029 -1.57598 0.00835791 0
M  V30 157 C 14.2659 -2.07884 -0.965242 0
M  V30 158 C 15.2659 -0.989825 -1.26725 0
M  V30 159 O 16.4559 -1.25218 -1.21104 0
M  V30 160 C 13.5879 -2.52731 -2.28779 0
M  V30 161 H 14.7809 -2.95178 -0.530112 0
M  V30 162 H 12.3339 -1.54458 -0.239283 0
M  V30 163 H 13.0689 -1.68705 -2.76964 0
M  V30 164 H 12.8539 -3.32272 -2.08177 0
M  V30 165 H 14.3439 -2.91933 -2.98605 0
M  V30 166 N 14.781 0.264519 -1.55364 0
M  V30 167 C 15.728 1.32717 -1.88825 0
M  V30 168 C 16.698 1.48675 -0.740605 0
M  V30 169 O 17.883 1.62945 -0.992657 0
M  V30 170 C 15.023 2.68089 -2.17307 0
M  V30 171 C 14.136 2.60284 -3.44785 0
M  V30 172 C 13.271 3.87892 -3.62924 0
M  V30 173 C 12.31 3.74631 -4.84064 0
M  V30 174 N 11.447 4.94092 -4.98816 0
M  V30 175 H 16.287 1.03481 -2.79456 0
M  V30 176 H 13.824 0.499757 -1.3835 0
M  V30 177 H 15.782 3.46864 -2.31821 0
M  V30 178 H 14.412 2.95509 -1.299 0
M  V30 179 H 13.464 1.73173 -3.38697 0
M  V30 180 H 14.776 2.46388 -4.33698 0
M  V30 181 H 13.93 4.75109 -3.77302 0
M  V30 182 H 12.669 4.04664 -2.7221 0
M  V30 183 H 11.674 2.85797 -4.69681 0
M  V30 184 H 12.899 3.5937 -5.76221 0
M  V30 185 H 10.845 5.11259 -4.11036 0
M  V30 186 H 10.762 4.8276 -5.81789 0
M  V30 187 H 12.03 5.82857 -5.17588 0
M  V30 188 N 16.2591 1.48442 0.529413 0
M  V30 189 C 17.1891 1.65902 1.64313 0
M  V30 190 C 18.1701 0.507897 1.6234 0
M  V30 191 O 19.3551 0.740503 1.79528 0
M  V30 192 C 16.4851 1.69911 3.02898 0
M  V30 193 C 15.4391 2.8453 3.19729 0
M  V30 194 C 14.7651 2.73629 4.59381 0
M  V30 195 C 16.0651 4.25821 3.02447 0
M  V30 196 H 17.7591 2.5914 1.49955 0
M  V30 197 H 15.3051 1.24709 0.719982 0
M  V30 198 H 17.2581 1.80715 3.80684 0
M  V30 199 H 15.9821 0.732524 3.18279 0
M  V30 200 H 14.6411 2.73283 2.44361 0
M  V30 201 H 14.2891 1.74938 4.71599 0
M  V30 202 H 13.9891 3.50541 4.71588 0
M  V30 203 H 15.5131 2.86401 5.39265 0
M  V30 204 H 16.9271 4.37898 3.70024 0
M  V30 205 H 15.3241 5.03735 3.26146 0
M  V30 206 H 16.3941 4.42244 1.98867 0
M  V30 207 N 17.7372 -0.778329 1.37039 0
M  V30 208 C 18.7002 -1.87301 1.32102 0
M  V30 209 C 19.7002 -1.59198 0.226405 0
M  V30 210 O 20.8902 -1.67403 0.481861 0
M  V30 211 C 18.0222 -3.24309 1.05055 0
M  V30 212 H 19.2152 -1.93093 2.29467 0
M  V30 213 H 16.7682 -0.977358 1.21973 0
M  V30 214 H 17.5032 -3.24196 0.0819373 0
M  V30 215 H 17.2882 -3.46098 1.84279 0
M  V30 216 H 18.7782 -4.04382 1.04234 0
M  V30 217 N 19.2153 -1.21501 -1.00376 0
M  V30 218 C 20.1253 -0.991447 -2.12621 0
M  V30 219 C 21.1413 0.0568446 -1.73907 0
M  V30 220 O 22.3173 -0.13348 -2.00957 0
M  V30 221 C 19.3823 -0.560312 -3.42142 0
M  V30 222 C 18.4433 -1.68096 -3.95022 0
M  V30 223 C 17.6763 -1.2703 -5.18362 0
M  V30 224 O 17.8993 -0.144438 -5.70217 0
M  V30 225 O 16.8333 -2.08269 -5.64719 0
M  V30 226 H 20.6593 -1.93158 -2.34358 0
M  V30 227 H 18.2443 -0.999999 -1.10997 0
M  V30 228 H 20.1263 -0.329724 -4.20108 0
M  V30 229 H 18.8013 0.351089 -3.2179 0
M  V30 230 H 17.7083 -1.96597 -3.18278 0
M  V30 231 H 19.0413 -2.56983 -4.19786 0
M  V30 232 N 20.6934 1.19889 -1.02296 0
M  V30 233 C 21.6254 2.22334 -0.556787 0
M  V30 234 C 22.6384 1.58674 0.364199 0
M  V30 235 O 23.8274 1.77768 0.161533 0
M  V30 236 C 20.9274 3.38257 0.208694 0
M  V30 237 C 20.1004 4.31504 -0.71577 0
M  V30 238 C 19.1594 5.262 0.00325597 0
M  V30 239 O 18.1854 5.65798 -0.621357 0
M  V30 240 N 19.3874 5.66303 1.27599 0
M  V30 241 H 22.1524 2.62957 -1.43784 0
M  V30 242 H 19.7134 1.34495 -0.901261 0
M  V30 243 H 21.7054 3.98616 0.699111 0
M  V30 244 H 20.2754 2.96472 0.991102 0
M  V30 245 H 19.4954 3.69016 -1.38638 0
M  V30 246 H 20.7834 4.9072 -1.34428 0
M  V30 247 H 20.1814 5.36155 1.80429 0
M  V30 248 H 18.7384 6.28942 1.71102 0
M  V30 249 N 22.1715 0.800033 1.35784 0
M  V30 250 C 23.1345 0.211565 2.28221 0
M  V30 251 C 24.1345 -0.59728 1.49296 0
M  V30 252 O 25.3245 -0.416721 1.69142 0
M  V30 253 C 22.4565 -0.705846 3.33513 0
M  V30 254 H 23.6495 1.02677 2.81776 0
M  V30 255 H 21.2025 0.570211 1.45528 0
M  V30 256 H 21.9375 -1.54498 2.85133 0
M  V30 257 H 21.7225 -0.127655 3.91892 0
M  V30 258 H 23.2125 -1.11211 4.02519 0
M  V30 259 N 23.6496 -1.47581 0.552962 0
M  V30 260 C 24.5596 -2.33743 -0.200353 0
M  V30 261 C 25.5756 -1.47928 -0.916151 0
M  V30 262 O 26.7516 -1.80865 -0.885993 0
M  V30 263 C 23.8166 -3.24536 -1.21973 0
M  V30 264 C 22.8776 -4.26238 -0.511819 0
M  V30 265 C 22.1106 -5.12693 -1.48263 0
M  V30 266 O 22.3336 -5.01525 -2.71714 0
M  V30 267 O 21.2676 -5.93375 -1.00945 0
M  V30 268 H 25.0936 -2.9945 0.506304 0
M  V30 269 H 22.6786 -1.46071 0.313622 0
M  V30 270 H 24.5606 -3.80631 -1.80827 0
M  V30 271 H 23.2356 -2.61462 -1.90839 0
M  V30 272 H 22.1426 -3.73914 0.117799 0
M  V30 273 H 23.4756 -4.92014 0.135308 0
M  V30 274 N 25.1277 -0.289203 -1.54924 0
M  V30 275 C 26.5437 0.0645403 -1.59469 0
M  V30 276 C 26.7437 1.53419 -1.30632 0
M  V30 277 O 25.7997 2.2852 -1.074 0
M  V30 278 C 27.1127 -0.32278 -2.98963 0
M  V30 279 C 28.6607 -0.270564 -3.11828 0
M  V30 280 C 29.1357 -0.632532 -4.53611 0
M  V30 281 N 30.6267 -0.584617 -4.59496 0
M  V30 282 C 31.3617 -0.837314 -5.67254 0
M  V30 283 N 30.8577 -1.15536 -6.83098 0
M  V30 284 N 32.6507 -0.765166 -5.56868 0
M  V30 285 H 24.8017 -1.24714 -1.71931 0
M  V30 286 H 27.0647 -0.504809 -0.802416 0
M  V30 287 H 26.7707 -1.34541 -3.24948 0
M  V30 288 H 26.6447 0.32944 -3.75759 0
M  V30 289 H 29.0317 0.742805 -2.85598 0
M  V30 290 H 29.1127 -0.957242 -2.37214 0
M  V30 291 H 28.7567 -1.64365 -4.80569 0
M  V30 292 H 28.6867 0.07609 -5.26545 0
M  V30 293 H 31.1777 -0.349248 -3.76283 0
M  V30 294 H 31.4907 -1.33447 -7.61191 0
M  V30 295 H 29.8357 -1.19328 -6.84679 0
M  V30 296 H 33.0267 -0.516432 -4.65243 0
M  V30 297 H 33.1997 -0.965477 -6.40767 0
M  V30 298 N 26.6058 1.57591 -0.0167156 0
M  V30 299 C 27.8358 1.95292 0.674149 0
M  V30 300 C 28.2438 0.891097 1.66901 0
M  V30 301 O 27.5868 -0.136908 1.83189 0
M  V30 302 C 27.6488 3.29072 1.44747 0
M  V30 303 C 27.3128 4.52879 0.612331 0
M  V30 304 C 28.3098 5.1979 -0.107126 0
M  V30 305 C 25.9948 4.99242 0.553381 0
M  V30 306 C 27.9888 6.31375 -0.874339 0
M  V30 307 C 25.6758 6.10713 -0.217546 0
M  V30 308 C 26.6738 6.76637 -0.930123 0
M  V30 309 O 26.3618 7.85969 -1.68844 0
M  V30 310 H 26.0938 0.648275 0.191615 0
M  V30 311 H 28.6478 2.05284 -0.0690148 0
M  V30 312 H 26.8778 3.15535 2.2355 0
M  V30 313 H 28.5668 3.51764 2.02526 0
M  V30 314 H 29.3328 4.84948 -0.0708392 0
M  V30 315 H 25.2118 4.47744 1.09757 0
M  V30 316 H 28.7558 6.82764 -1.43106 0
M  V30 317 H 24.6528 6.44994 -0.255593 0
M  V30 318 H 25.4208 8.02571 -1.6069 0
M  V30 319 N 28.0839 -0.256276 1.55502 0
M  V30 320 C 29.3609 -1.00789 1.67633 0
M  V30 321 C 29.7409 -2.03706 0.553826 0
M  V30 322 O 29.0889 -2.24145 -0.443969 0
M  V30 323 C 29.2989 -1.64968 3.07549 0
M  V30 324 C 30.6469 -2.15505 3.65845 0
M  V30 325 O 31.6709 -1.74925 3.1029 0
M  V30 326 O 30.5299 -2.89986 4.63217 0
M  V30 327 H 27.6239 -0.468553 0.681459 0
M  V30 328 H 30.1699 -0.250806 1.67836 0
M  V30 329 H 28.9419 -0.904785 3.80696 0
M  V30 330 H 28.5649 -2.47321 3.11317 0
M  V30 331 N 29.562 -1.4872 -0.521534 0
M  V30 332 C 30.839 -1.4766 -1.2828 0
M  V30 333 C 31.219 -0.19292 -2.10217 0
M  V30 334 O 30.567 0.825193 -2.13079 0
M  V30 335 C 30.777 -2.74358 -2.15705 0
M  V30 336 C 32.125 -3.23028 -2.75569 0
M  V30 337 O 33.149 -2.75333 -2.25987 0
M  V30 338 O 32.008 -4.0604 -3.65778 0
M  V30 339 H 29.102 -0.590085 -0.579421 0
M  V30 340 H 31.648 -1.60963 -0.537492 0
M  V30 341 H 30.42 -3.59292 -1.54999 0
M  V30 342 H 30.043 -2.63816 -2.97467 0
M  V30 343 N 31.0401 0.771051 -1.3745 0
M  V30 344 C 31.9731 1.89166 -1.27638 0
M  V30 345 C 32.9511 1.61842 -0.156782 0
M  V30 346 O 34.1351 1.85569 -0.331111 0
M  V30 347 C 31.2621 3.24405 -0.973621 0
M  V30 348 C 30.3081 3.70638 -2.1102 0
M  V30 349 S 31.1411 3.84228 -3.73 0
M  V30 350 C 32.2971 5.22313 -3.44876 0
M  V30 351 H 32.5301 1.972 -2.22485 0
M  V30 352 H 30.0631 0.932224 -1.23081 0
M  V30 353 H 32.0211 4.02514 -0.805766 0
M  V30 354 H 30.6821 3.14071 -0.0426279 0
M  V30 355 H 29.8751 4.68685 -1.85338 0
M  V30 356 H 29.4771 2.99632 -2.23822 0
M  V30 357 H 31.7691 6.07505 -2.99908 0
M  V30 358 H 32.7121 5.53008 -4.42253 0
M  V30 359 H 33.1201 4.90284 -2.79789 0
M  V30 360 N 32.5182 1.22032 0.997298 0
M  V30 361 C 33.4812 0.987909 2.06816 0
M  V30 362 C 34.4812 -0.0440084 1.6074 0
M  V30 363 O 35.6712 0.194053 1.73116 0
M  V30 364 C 32.8032 0.49132 3.37341 0
M  V30 365 H 33.9962 1.93803 2.28868 0
M  V30 366 H 31.5492 1.03838 1.16822 0
M  V30 367 H 32.2842 -0.463364 3.20973 0
M  V30 368 H 32.0692 1.23575 3.72118 0
M  V30 369 H 33.5592 0.348824 4.16141 0
M  V30 370 N 33.9963 -1.19345 1.0293 0
M  V30 371 C 34.9593 -2.20793 0.615069 0
M  V30 372 C 35.9593 -1.57553 -0.321533 0
M  V30 373 O 37.1493 -1.73862 -0.108483 0
M  V30 374 C 34.2813 -3.40754 -0.0999222 0
M  V30 375 H 35.4743 -2.58955 1.51269 0
M  V30 376 H 33.0273 -1.3303 0.820534 0
M  V30 377 H 33.7623 -3.0811 -1.01187 0
M  V30 378 H 33.5473 -3.87889 0.57309 0
M  V30 379 H 35.0373 -4.15898 -0.376645 0
M  V30 380 N 35.4744 -0.807222 -1.35358 0
M  V30 381 C 36.7144 -0.393534 -2.00576 0
M  V30 382 C 37.0784 1.0203 -1.62647 0
M  V30 383 O 38.2794 1.53603 -2.20589 0
M  V30 384 C 36.5504 -0.572017 -3.52793 0
M  V30 385 S 38.1094 -0.248845 -4.38094 0
M  V30 386 H 34.9274 -0.149425 -0.695121 0
M  V30 387 H 37.5294 -1.04961 -1.64935 0
M  V30 388 H 36.2334 -1.60097 -3.77885 0
M  V30 389 H 35.7644 0.099359 -3.93275 0
M  V30 390 H 37.7794 0.943253 -4.87152 0
M  V30 391 N 36.9525 1.47285 -0.560781 0
M  V30 392 C 37.8855 2.27009 0.232821 0
M  V30 393 C 38.8635 1.34273 0.917039 0
M  V30 394 O 40.0475 1.63659 0.935315 0
M  V30 395 C 37.1745 3.11406 1.33206 0
M  V30 396 C 36.2205 4.19746 0.756019 0
M  V30 397 S 37.0535 5.34003 -0.400165 0
M  V30 398 C 38.2095 6.21964 0.700805 0
M  V30 399 H 38.4425 2.93971 -0.443683 0
M  V30 400 H 35.9755 1.50446 -0.347181 0
M  V30 401 H 37.9335 3.60601 1.96156 0
M  V30 402 H 36.5945 2.438 1.98041 0
M  V30 403 H 35.7875 4.78541 1.5816 0
M  V30 404 H 35.3895 3.73451 0.202619 0
M  V30 405 H 37.6815 6.58529 1.59202 0
M  V30 406 H 38.6245 7.07941 0.150126 0
M  V30 407 H 39.0325 5.5566 0.995083 0
M  V30 408 N 38.4306 0.297415 1.54768 0
M  V30 409 C 39.3776 -0.580276 2.23386 0
M  V30 410 C 40.3476 -1.13238 1.21517 0
M  V30 411 O 41.5326 -1.17757 1.50126 0
M  V30 412 C 38.6726 -1.74801 2.97555 0
M  V30 413 C 37.7856 -1.22764 4.1419 0
M  V30 414 C 36.9206 -2.35895 4.75949 0
M  V30 415 C 35.9596 -1.80974 5.84735 0
M  V30 416 N 35.0966 -2.87664 6.40464 0
M  V30 417 H 39.9366 0.0114833 2.97998 0
M  V30 418 H 37.4736 0.0174361 1.4709 0
M  V30 419 H 39.4316 -2.43475 3.38786 0
M  V30 420 H 38.0616 -2.31145 2.25326 0
M  V30 421 H 37.1136 -0.433271 3.77924 0
M  V30 422 H 38.4256 -0.785551 4.92575 0
M  V30 423 H 37.5796 -3.12523 5.20014 0
M  V30 424 H 36.3186 -2.83429 3.96887 0
M  V30 425 H 35.3236 -1.02834 5.40097 0
M  V30 426 H 36.5486 -1.34348 6.65678 0
M  V30 427 H 34.4946 -3.34538 5.64287 0
M  V30 428 H 34.4116 -2.4794 7.14186 0
M  V30 429 H 35.6796 -3.642 6.89187 0
M  V30 430 N 39.9087 -1.5758 0.0250728 0
M  V30 431 C 41.1337 -1.96337 -0.668317 0
M  V30 432 C 41.5587 -0.901314 -1.651 0
M  V30 433 O 40.9167 0.138187 -1.80773 0
M  V30 434 C 40.9647 -3.34191 -1.35457 0
M  V30 435 O 40.0687 -3.30269 -2.46974 0
M  V30 436 H 39.4097 -0.640281 -0.175887 0
M  V30 437 H 41.9397 -2.0442 0.0857224 0
M  V30 438 H 41.9497 -3.70331 -1.71228 0
M  V30 439 H 40.6247 -4.11036 -0.634218 0
M  V30 440 H 39.2017 -3.05841 -2.13344 0
M  V30 441 N 41.3868 0.248026 -1.55636 0
M  V30 442 C 42.6328 0.97767 -1.77678 0
M  V30 443 C 42.9658 1.85016 -0.590135 0
M  V30 444 O 42.2408 1.90095 0.411611 0
M  V30 445 C 42.5238 1.83914 -3.09593 0
M  V30 446 C 42.3768 0.99491 -4.38659 0
M  V30 447 C 43.6958 2.82183 -3.37729 0
M  V30 448 H 40.8148 0.354005 -0.646413 0
M  V30 449 H 43.4568 0.248253 -1.88371 0
M  V30 450 H 41.6068 2.46104 -3.00608 0
M  V30 451 H 43.2788 0.391789 -4.59633 0
M  V30 452 H 41.5218 0.299231 -4.32767 0
M  V30 453 H 42.1928 1.63145 -5.2734 0
M  V30 454 H 44.6688 2.30129 -3.4667 0
M  V30 455 H 43.5448 3.39582 -4.31249 0
M  V30 456 H 43.8058 3.58588 -2.58586 0
M  V30 457 N 42.8649 1.48995 0.513639 0
M  V30 458 C 44.0929 1.61531 1.29288 0
M  V30 459 C 44.5079 0.281801 1.86685 0
M  V30 460 O 43.8649 -0.731111 1.67215 0
M  V30 461 C 43.9159 2.67449 2.43215 0
M  V30 462 O 43.6369 3.95626 1.88179 0
M  V30 463 C 45.1379 2.90575 3.34785 0
M  V30 464 H 42.3579 0.544165 0.392588 0
M  V30 465 H 44.9019 1.9494 0.617956 0
M  V30 466 H 43.0569 2.36853 3.0656 0
M  V30 467 H 43.4709 4.53868 2.62876 0
M  V30 468 H 44.9449 3.68449 4.11035 0
M  V30 469 H 45.4219 2.00011 3.91015 0
M  V30 470 H 46.0279 3.22538 2.77218 0
M  V30 471 N 44.343 -0.763751 1.37857 0
M  V30 472 C 45.253 -1.90817 1.36478 0
M  V30 473 C 46.269 -1.71997 0.263248 0
M  V30 474 O 47.445 -1.95095 0.499979 0
M  V30 475 C 44.51 -3.2605 1.17864 0
M  V30 476 C 43.571 -3.57467 2.3773 0
M  V30 477 C 42.804 -4.86249 2.19995 0
M  V30 478 O 43.027 -5.57884 1.18836 0
M  V30 479 O 41.961 -5.16911 3.08361 0
M  V30 480 H 45.787 -1.94933 2.32884 0
M  V30 481 H 43.372 -0.907619 1.1867 0
M  V30 482 H 45.254 -4.06924 1.09504 0
M  V30 483 H 43.929 -3.22769 0.245372 0
M  V30 484 H 42.836 -2.76796 2.51664 0
M  V30 485 H 44.169 -3.655 3.29652 0
M  V30 486 N 45.8211 -1.22559 -0.990812 0
M  V30 487 C 46.7531 -0.955325 -2.08342 0
M  V30 488 C 47.7661 0.0668408 -1.62663 0
M  V30 489 O 48.9551 -0.167421 -1.77713 0
M  V30 490 C 46.0551 -0.415566 -3.36342 0
M  V30 491 C 45.2281 -1.49544 -4.11042 0
M  V30 492 C 44.2871 -0.962399 -5.17324 0
M  V30 493 O 43.3131 -1.64907 -5.44788 0
M  V30 494 N 44.5151 0.215134 -5.80101 0
M  V30 495 H 47.2801 -1.89596 -2.32106 0
M  V30 496 H 44.8411 -1.13276 -1.15673 0
M  V30 497 H 46.8331 -0.0442386 -4.04676 0
M  V30 498 H 45.4031 0.430232 -3.09625 0
M  V30 499 H 44.6231 -2.04 -3.37309 0
M  V30 500 H 45.9111 -2.22195 -4.57719 0
M  V30 501 H 45.3091 0.789779 -5.6016 0
M  V30 502 H 43.8661 0.527826 -6.49659 0
M  V30 503 N 47.2992 1.18797 -1.03562 0
M  V30 504 C 48.5472 1.88278 -0.734569 0
M  V30 505 C 48.8682 1.8043 0.739586 0
M  V30 506 O 48.1382 1.21925 1.53333 0
M  V30 507 H 46.7182 0.696991 -0.268725 0
M  V30 508 H 49.3802 1.44192 -1.31129 0
M  V30 509 H 48.4762 2.94443 -1.03489 0
M  V30 510 N 48.7773 0.814389 1.34928 0
M  V30 511 C 49.7403 0.235759 2.27984 0
M  V30 512 C 50.7403 -0.581412 1.49921 0
M  V30 513 O 51.9303 -0.398758 1.69575 0
M  V30 514 C 49.0623 -0.670433 3.34242 0
M  V30 515 H 50.2553 1.05659 2.80671 0
M  V30 516 H 47.8083 0.585614 1.44915 0
M  V30 517 H 48.5433 -1.51466 2.86755 0
M  V30 518 H 48.3283 -0.0860822 3.92005 0
M  V30 519 H 49.8183 -1.06935 4.03676 0
M  V30 520 N 50.2554 -1.46986 0.568584 0
M  V30 521 C 51.1654 -2.33942 -0.17555 0
M  V30 522 C 52.1814 -1.48891 -0.90041 0
M  V30 523 O 53.3574 -1.81794 -0.86676 0
M  V30 524 C 50.4224 -3.25811 -1.18524 0
M  V30 525 C 49.4834 -4.26757 -0.466582 0
M  V30 526 C 48.7164 -5.14236 -1.42817 0
M  V30 527 O 48.9394 -5.04379 -2.66379 0
M  V30 528 O 47.8734 -5.94412 -0.946453 0
M  V30 529 H 51.6994 -2.98896 0.538036 0
M  V30 530 H 49.2844 -1.4573 0.329097 0
M  V30 531 H 51.1664 -3.82527 -1.76779 0
M  V30 532 H 49.8414 -2.63471 -1.88055 0
M  V30 533 H 48.7484 -3.73769 0.157451 0
M  V30 534 H 50.0814 -4.91843 0.187485 0
M  V30 535 N 51.7335 -0.305618 -1.54608 0
M  V30 536 C 52.6635 0.561482 -2.26649 0
M  V30 537 C 53.6445 1.13415 -1.26772 0
M  V30 538 O 54.8295 1.16262 -1.55553 0
M  V30 539 C 51.9595 1.73122 -3.01075 0
M  V30 540 C 50.9135 1.2887 -4.08138 0
M  V30 541 C 50.2395 2.54396 -4.70305 0
M  V30 542 C 51.5395 0.416578 -5.20636 0
M  V30 543 H 53.2335 -0.0393902 -2.99374 0
M  V30 544 H 50.7795 -0.020385 -1.43986 0
M  V30 545 H 52.7325 2.34396 -3.50195 0
M  V30 546 H 51.4565 2.3584 -2.25936 0
M  V30 547 H 50.1155 0.698991 -3.59875 0
M  V30 548 H 49.7635 3.15439 -3.918 0
M  V30 549 H 49.4635 2.25486 -5.42614 0
M  V30 550 H 50.9875 3.16464 -5.2219 0
M  V30 551 H 52.4015 0.935116 -5.65622 0
M  V30 552 H 50.7985 0.221046 -5.99693 0
M  V30 553 H 51.8685 -0.557162 -4.81688 0
M  V30 554 N 53.2116 1.57565 -0.0334293 0
M  V30 555 C 54.4366 1.96689 0.657895 0
M  V30 556 C 54.8616 0.910057 1.64619 0
M  V30 557 O 54.2196 -0.128598 1.80843 0
M  V30 558 C 54.2676 3.34905 1.33683 0
M  V30 559 O 53.3716 3.31574 2.45219 0
M  V30 560 H 52.7126 0.641205 0.172489 0
M  V30 561 H 55.2426 2.04372 -0.0965621 0
M  V30 562 H 55.2526 3.71234 1.69262 0
M  V30 563 H 53.9276 4.11366 0.612411 0
M  V30 564 H 52.5046 3.06968 2.11719 0
M  V30 565 N 54.6897 -0.239769 1.55765 0
M  V30 566 C 55.6377 -1.31668 1.91745 0
M  V30 567 C 56.6317 -1.49462 0.797338 0
M  V30 568 O 57.8377 -1.50852 0.982021 0
M  V30 569 H 54.2127 -0.441048 0.609082 0
M  V30 570 H 56.1837 -0.985923 2.81642 0
M  V30 571 C 54.9327 -2.66368 2.2348 0
M  V30 572 H 54.2557 -2.53478 3.09175 0
M  V30 573 H 55.6957 -3.40578 2.52553 0
M  V30 574 C 54.1547 -3.20002 1.05359 0
M  V30 575 O 54.6847 -4.00538 0.305261 0
M  V30 576 N 52.8907 -2.78126 0.842292 0
M  V30 577 H 52.4377 -2.12742 1.45253 0
M  V30 578 H 52.3957 -3.14354 0.053652 0
M  V30 579 N 56.1678 -1.49265 -0.50573 0
M  V30 580 C 57.0778 -1.68312 -1.63427 0
M  V30 581 C 58.0938 -0.565682 -1.64548 0
M  V30 582 O 59.2698 -0.839801 -1.83055 0
M  V30 583 C 56.3348 -1.74107 -2.99813 0
M  V30 584 C 55.3958 -2.97653 -3.09356 0
M  V30 585 C 54.6288 -3.03163 -4.39236 0
M  V30 586 O 54.8518 -2.16396 -5.27758 0
M  V30 587 O 53.7858 -3.9558 -4.53652 0
M  V30 588 H 57.6118 -2.63907 -1.50289 0
M  V30 589 H 55.1968 -1.32951 -0.681502 0
M  V30 590 H 57.0788 -1.803 -3.80881 0
M  V30 591 H 55.7538 -0.816901 -3.13223 0
M  V30 592 H 54.6608 -2.96981 -2.27493 0
M  V30 593 H 55.9938 -3.89535 -3.00871 0
M  V30 594 N 57.6459 0.756429 -1.3826 0
M  V30 595 C 58.5559 1.9009 -1.37488 0
M  V30 596 C 59.5719 1.71855 -0.272366 0
M  V30 597 O 60.7479 1.94827 -0.510318 0
M  V30 598 C 57.8129 3.25421 -1.19592 0
M  V30 599 C 56.8739 3.56202 -2.39622 0
M  V30 600 C 56.1069 4.85075 -2.2257 0
M  V30 601 O 56.3299 5.57246 -1.21793 0
M  V30 602 O 55.2639 5.15269 -3.11098 0
M  V30 603 H 59.0899 1.93695 -2.33914 0
M  V30 604 H 56.6749 0.901313 -1.1915 0
M  V30 605 H 58.5569 4.06337 -1.11661 0
M  V30 606 H 57.2319 3.22634 -0.262486 0
M  V30 607 H 56.1389 2.75458 -2.53128 0
M  V30 608 H 57.4719 3.63747 -3.31586 0
M  V30 609 N 59.124 1.23083 0.984299 0
M  V30 610 C 60.54 0.992637 1.24975 0
M  V30 611 C 60.74 -0.308618 1.99123 0
M  V30 612 O 59.796 -1.02905 2.30579 0
M  V30 613 C 61.109 2.19698 2.05312 0
M  V30 614 C 62.657 2.24147 2.18465 0
M  V30 615 C 63.132 3.44157 3.02192 0
M  V30 616 N 64.623 3.44372 3.09777 0
M  V30 617 C 65.358 4.33886 3.74874 0
M  V30 618 N 64.854 5.3363 4.41827 0
M  V30 619 N 66.647 4.21639 3.71721 0
M  V30 620 H 58.798 2.06731 0.487453 0
M  V30 621 H 61.061 0.906339 0.277944 0
M  V30 622 H 60.767 3.1411 1.58201 0
M  V30 623 H 60.641 2.20465 3.06064 0
M  V30 624 H 63.028 1.30277 2.64786 0
M  V30 625 H 63.109 2.27415 1.17115 0
M  V30 626 H 62.753 4.38332 2.56568 0
M  V30 627 H 62.683 3.3813 4.03702 0
M  V30 628 H 65.174 2.72201 2.62135 0
M  V30 629 H 65.487 5.98196 4.89266 0
M  V30 630 H 63.832 5.37534 4.40548 0
M  V30 631 H 67.023 3.42962 3.18582 0
M  V30 632 H 67.196 4.91604 4.22173 0
M  V30 633 N 60.6021 -1.18246 1.0419 0
M  V30 634 C 61.5501 -2.23968 0.627792 0
M  V30 635 C 62.5441 -1.65828 -0.346019 0
M  V30 636 O 63.7501 -1.78733 -0.213175 0
M  V30 637 H 60.1251 -0.728939 0.184802 0
M  V30 638 H 62.0961 -2.56202 1.52981 0
M  V30 639 C 60.8451 -3.47699 0.00796591 0
M  V30 640 H 60.1681 -3.92734 0.748347 0
M  V30 641 H 61.6081 -4.23294 -0.24455 0
M  V30 642 C 60.0671 -3.13153 -1.24246 0
M  V30 643 O 60.5971 -3.27003 -2.33307 0
M  V30 644 N 58.8031 -2.67467 -1.13622 0
M  V30 645 H 58.3501 -2.56396 -0.248734 0
M  V30 646 H 58.3081 -2.44724 -1.97377 0
M  V30 647 N 62.0802 -0.821533 -1.34494 0
M  V30 648 C 63.0102 -0.257138 -2.3208 0
M  V30 649 C 63.9912 0.625645 -1.58176 0
M  V30 650 O 65.1762 0.552811 -1.86166 0
M  V30 651 C 62.3062 0.582958 -3.42372 0
M  V30 652 C 61.2602 -0.202571 -4.2752 0
M  V30 653 C 60.5862 0.760179 -5.29269 0
M  V30 654 C 61.8862 -1.40998 -5.02908 0
M  V30 655 H 63.5802 -1.07247 -2.79532 0
M  V30 656 H 61.1262 -0.517163 -1.34393 0
M  V30 657 H 63.0792 0.987972 -4.09655 0
M  V30 658 H 61.8032 1.43133 -2.93565 0
M  V30 659 H 60.4622 -0.588936 -3.61838 0
M  V30 660 H 60.1102 1.60447 -4.76724 0
M  V30 661 H 59.8102 0.238809 -5.87115 0
M  V30 662 H 61.3342 1.16308 -5.9942 0
M  V30 663 H 62.7482 -1.07905 -5.63054 0
M  V30 664 H 61.1452 -1.86689 -5.70322 0
M  V30 665 H 62.2152 -2.1889 -4.32684 0
M  V30 666 N 63.5583 1.46682 -0.576371 0
M  V30 667 C 64.4883 2.33028 0.148397 0
M  V30 668 C 65.4693 1.44961 0.889956 0
M  V30 669 O 66.6543 1.73789 0.866662 0
M  V30 670 C 63.7843 3.27117 1.1667 0
M  V30 671 C 62.7383 4.24575 0.540386 0
M  V30 672 C 62.0643 5.08126 1.6647 0
M  V30 673 C 63.3643 5.19722 -0.518331 0
M  V30 674 H 65.0583 2.93875 -0.572509 0
M  V30 675 H 62.6043 1.41315 -0.276768 0
M  V30 676 H 64.5573 3.86374 1.68204 0
M  V30 677 H 63.2813 2.64364 1.9178 0
M  V30 678 H 61.9403 3.66571 0.0461769 0
M  V30 679 H 61.5883 4.41762 2.40531 0
M  V30 680 H 61.2883 5.74122 1.25131 0
M  V30 681 H 62.8123 5.70246 2.18293 0
M  V30 682 H 64.2263 5.73232 -0.0883058 0
M  V30 683 H 62.6233 5.94026 -0.851679 0
M  V30 684 H 63.6933 4.64037 -1.40703 0
M  V30 685 N 65.0364 0.313813 1.54444 0
M  V30 686 C 66.2614 -0.296681 2.05267 0
M  V30 687 C 66.6864 -1.45757 1.18897 0
M  V30 688 O 66.0444 -1.80239 0.195886 0
M  V30 689 C 66.0924 -0.71831 3.53373 0
M  V30 690 O 65.1964 -1.82175 3.69981 0
M  V30 691 H 64.5374 -0.0554061 0.661684 0
M  V30 692 H 67.0674 0.459387 1.99376 0
M  V30 693 H 67.0774 -1.00364 3.95463 0
M  V30 694 H 65.7524 0.130821 4.15694 0
M  V30 695 H 64.3294 -1.53598 3.39797 0
M  V30 696 N 66.5145 -1.57545 0.0417849 0
M  V30 697 C 67.7605 -1.92601 -0.635021 0
M  V30 698 C 68.0935 -0.919627 -1.71045 0
M  V30 699 O 67.3685 0.0557892 -1.9442 0
M  V30 700 C 67.6515 -3.38085 -1.23979 0
M  V30 701 C 67.5045 -4.49467 -0.173057 0
M  V30 702 C 68.8235 -3.83776 -2.15416 0
M  V30 703 H 65.9425 -0.700397 -0.229374 0
M  V30 704 H 68.5845 -1.89728 0.101633 0
M  V30 705 H 66.7345 -3.40664 -1.86762 0
M  V30 706 H 68.4065 -4.59018 0.458312 0
M  V30 707 H 66.6495 -4.30909 0.499996 0
M  V30 708 H 67.3205 -5.48323 -0.636054 0
M  V30 709 H 69.7965 -3.83013 -1.62605 0
M  V30 710 H 68.6725 -4.8624 -2.54679 0
M  V30 711 H 68.9335 -3.19998 -3.05047 0
M  V30 712 N 67.9926 0.231505 -1.5589 0
M  V30 713 C 68.9556 1.27028 -1.90779 0
M  V30 714 C 69.9556 1.40308 -0.785507 0
M  V30 715 O 71.1456 1.38744 -1.05336 0
M  V30 716 C 68.2776 2.64566 -2.14983 0
M  V30 717 H 69.4706 0.973017 -2.83677 0
M  V30 718 H 67.0236 0.471486 -1.49019 0
M  V30 719 H 67.7586 2.99406 -1.24604 0
M  V30 720 H 67.5436 2.56305 -2.96732 0
M  V30 721 H 69.0336 3.39543 -2.43105 0
M  V30 722 N 69.4707 1.49531 0.497807 0
M  V30 723 C 70.7007 1.62657 1.27382 0
M  V30 724 C 71.1087 0.298488 1.86831 0
M  V30 725 O 70.4517 -0.72647 1.68725 0
M  V30 726 C 70.5137 2.6393 2.44093 0
M  V30 727 C 70.1777 4.08195 2.05489 0
M  V30 728 C 71.1747 4.949 1.59279 0
M  V30 729 C 68.8597 4.53948 2.15026 0
M  V30 730 C 70.8537 6.25397 1.23113 0
M  V30 731 C 68.5407 5.84458 1.78473 0
M  V30 732 C 69.5387 6.70006 1.32591 0
M  V30 733 O 69.2267 7.98083 0.965327 0
M  V30 734 H 68.9587 0.550429 0.392434 0
M  V30 735 H 71.5127 1.96325 0.603801 0
M  V30 736 H 69.7427 2.25449 3.14181 0
M  V30 737 H 71.4317 2.66552 3.06113 0
M  V30 738 H 72.1977 4.60779 1.51354 0
M  V30 739 H 68.0767 3.87525 2.4969 0
M  V30 740 H 71.6207 6.92125 0.872299 0
M  V30 741 H 67.5177 6.18107 1.86048 0
M  V30 742 H 68.2857 8.11122 1.09652 0
M  V30 743 N 70.9488 -0.749086 1.3866 0
M  V30 744 C 71.8958 -1.86291 1.36251 0
M  V30 745 C 72.8658 -1.64578 0.224347 0
M  V30 746 O 74.0508 -1.86181 0.417279 0
M  V30 747 C 71.1908 -3.23644 1.19786 0
M  V30 748 C 70.3038 -3.57158 2.43027 0
M  V30 749 C 69.4388 -4.83838 2.19258 0
M  V30 750 C 68.4778 -5.10152 3.38247 0
M  V30 751 N 67.6148 -6.28029 3.13884 0
M  V30 752 H 72.4548 -1.87685 2.3147 0
M  V30 753 H 69.9918 -0.917287 1.14997 0
M  V30 754 H 71.9498 -4.0291 1.08254 0
M  V30 755 H 70.5798 -3.21566 0.282031 0
M  V30 756 H 69.6318 -2.72701 2.65214 0
M  V30 757 H 70.9438 -3.7253 3.31697 0
M  V30 758 H 70.0978 -5.71057 2.04888 0
M  V30 759 H 68.8368 -4.70614 1.2796 0
M  V30 760 H 67.8418 -4.21401 3.53131 0
M  V30 761 H 69.0668 -5.25271 4.30427 0
M  V30 762 H 67.0128 -6.1612 2.25238 0
M  V30 763 H 66.9298 -6.43922 3.96106 0
M  V30 764 H 68.1978 -7.18124 3.03179 0
M  V30 765 N 72.4269 -1.23603 -0.977757 0
M  V30 766 C 73.3749 -1.01704 -2.09187 0
M  V30 767 C 74.3689 0.0448214 -1.69341 0
M  V30 768 O 75.5749 -0.108902 -1.7967 0
M  V30 769 H 71.9499 -0.311803 -0.684312 0
M  V30 770 H 73.9209 -1.96207 -2.24823 0
M  V30 771 C 72.6699 -0.627746 -3.41986 0
M  V30 772 H 71.9929 -1.43656 -3.73099 0
M  V30 773 H 73.4329 -0.514053 -4.20872 0
M  V30 774 C 71.8919 0.664238 -3.30287 0
M  V30 775 O 72.4219 1.71268 -3.6336 0
M  V30 776 N 70.6279 0.641156 -2.83439 0
M  V30 777 H 70.1749 -0.212376 -2.56723 0
M  V30 778 H 70.1329 1.50583 -2.75993 0
M  V30 779 N 73.905 1.17692 -1.04816 0
M  V30 780 C 75.151 1.88137 -0.75711 0
M  V30 781 C 75.484 1.80604 0.713841 0
M  V30 782 O 74.759 1.21146 1.52164 0
M  V30 783 C 75.042 3.38318 -1.2334 0
M  V30 784 C 74.895 3.54622 -2.76701 0
M  V30 785 C 76.214 4.32214 -0.829415 0
M  V30 786 H 73.333 0.683163 -0.27651 0
M  V30 787 H 75.975 1.38424 -1.30149 0
M  V30 788 H 74.125 3.80787 -0.770286 0
M  V30 789 H 75.797 3.21194 -3.31107 0
M  V30 790 H 74.04 2.97026 -3.16161 0
M  V30 791 H 74.711 4.60028 -3.05088 0
M  V30 792 H 77.187 3.97565 -1.22805 0
M  V30 793 H 76.063 5.35838 -1.19033 0
M  V30 794 H 76.324 4.41294 0.266891 0
M  V30 795 N 75.3831 0.828654 1.34056 0
M  V30 796 C 76.6291 0.42008 1.98402 0
M  V30 797 C 76.9621 -1.01564 1.65525 0
M  V30 798 O 76.2371 -1.70834 0.929831 0
M  V30 799 C 76.5201 0.62927 3.54559 0
M  V30 800 C 76.3731 2.11152 3.97159 0
M  V30 801 C 77.6921 0.0688756 4.40046 0
M  V30 802 H 74.8111 0.154104 0.720709 0
M  V30 803 H 77.4531 1.04228 1.5886 0
M  V30 804 H 75.6031 0.0996418 3.88372 0
M  V30 805 H 77.2751 2.70522 3.73651 0
M  V30 806 H 75.5181 2.59985 3.47261 0
M  V30 807 H 76.1891 2.20868 5.05887 0
M  V30 808 H 78.6651 0.521458 4.1282 0
M  V30 809 H 77.5411 0.245006 5.48353 0
M  V30 810 H 77.8021 -1.0266 4.30015 0
M  V30 811 N 76.8612 -1.46375 0.584142 0
M  V30 812 C 78.1092 -2.01978 0.0701287 0
M  V30 813 C 78.4302 -1.4579 -1.295 0
M  V30 814 O 77.7002 -0.64314 -1.85042 0
M  V30 815 H 76.2802 -0.746648 0.0229345 0
M  V30 816 H 78.9422 -1.79461 0.760245 0
M  V30 817 H 78.0382 -3.121 0.0022064 0
M  V30 818 N 78.3393 -0.321999 -1.54275 0
M  V30 819 C 79.3023 0.531975 -2.22941 0
M  V30 820 C 80.3023 1.04478 -1.22234 0
M  V30 821 O 81.4923 0.937452 -1.46825 0
M  V30 822 C 78.6243 1.73874 -2.93224 0
M  V30 823 H 79.8173 -0.0682612 -2.99822 0
M  V30 824 H 77.3703 -0.0730644 -1.56129 0
M  V30 825 H 78.1053 2.37825 -2.20476 0
M  V30 826 H 77.8903 1.37847 -3.6707 0
M  V30 827 H 79.3803 2.34496 -3.45545 0
M  V30 828 N 79.8174 1.5752 -0.0501392 0
M  V30 829 C 81.2334 1.56631 0.306402 0
M  V30 830 C 81.4334 1.0577 1.71508 0
M  V30 831 O 80.4894 0.713837 2.422 0
M  V30 832 C 81.8024 3.00393 0.135811 0
M  V30 833 C 83.3504 3.12315 0.206993 0
M  V30 834 C 83.8254 4.57954 0.064944 0
M  V30 835 N 85.3164 4.63041 0.121254 0
M  V30 836 C 86.0514 5.73389 0.0354381 0
M  V30 837 N 85.5474 6.92724 -0.102666 0
M  V30 838 N 87.3404 5.62026 0.090946 0
M  V30 839 H 79.4914 1.88903 -0.971046 0
M  V30 840 H 81.7544 0.869876 -0.376855 0
M  V30 841 H 81.4604 3.41635 -0.835384 0
M  V30 842 H 81.3344 3.66373 0.897275 0
M  V30 843 H 83.7214 2.70973 1.16866 0
M  V30 844 H 83.8024 2.49016 -0.585208 0
M  V30 845 H 83.4464 4.99981 -0.893394 0
M  V30 846 H 83.3764 5.19258 0.876277 0
M  V30 847 H 85.8674 3.77216 0.227284 0
M  V30 848 H 86.1804 7.72633 -0.160882 0
M  V30 849 H 84.5254 6.94864 -0.137737 0
M  V30 850 H 87.7164 4.67684 0.197388 0
M  V30 851 H 87.8894 6.47997 0.0206089 0
M  V30 852 N 81.2955 -0.223234 1.56011 0
M  V30 853 C 82.7115 -0.572856 1.48965 0
M  V30 854 C 82.9115 -1.87225 0.74492 0
M  V30 855 O 81.9675 -2.50899 0.283896 0
M  V30 856 C 83.2805 -0.653646 2.9351 0
M  V30 857 C 84.8285 -0.744386 3.0402 0
M  V30 858 C 85.3035 -0.856535 4.49919 0
M  V30 859 N 86.7945 -0.9208 4.53955 0
M  V30 860 C 87.5295 -1.02726 5.64123 0
M  V30 861 N 87.0255 -1.09777 6.84047 0
M  V30 862 N 88.8185 -1.06226 5.51971 0
M  V30 863 H 80.9695 0.629462 2.02858 0
M  V30 864 H 83.2325 0.220621 0.921971 0
M  V30 865 H 82.9385 0.231518 3.50937 0
M  V30 866 H 82.8125 -1.51781 3.45315 0
M  V30 867 H 85.1995 -1.61999 2.46658 0
M  V30 868 H 85.2805 0.14541 2.55386 0
M  V30 869 H 84.9245 0.0146069 5.07898 0
M  V30 870 H 84.8545 -1.76172 4.96257 0
M  V30 871 H 87.3455 -0.876694 3.6759 0
M  V30 872 H 87.6585 -1.17872 7.63758 0
M  V30 873 H 86.0035 -1.06693 6.86762 0
M  V30 874 H 89.1945 -1.00382 4.5721 0
M  V30 875 H 89.3675 -1.14177 6.37862 0
M  V30 876 N 82.7736 -1.49793 -0.48987 0
M  V30 877 C 83.9986 -1.63836 -1.27172 0
M  V30 878 C 84.4236 -0.31402 -1.8546 0
M  V30 879 O 83.7816 0.719803 -1.66399 0
M  V30 880 C 83.8296 -2.71797 -2.36978 0
M  V30 881 O 82.9336 -2.31744 -3.41128 0
M  V30 882 H 82.2746 -0.547997 -0.37496 0
M  V30 883 H 84.8046 -1.96053 -0.585191 0
M  V30 884 H 84.8146 -2.94305 -2.82575 0
M  V30 885 H 83.4896 -3.67923 -1.93921 0
M  V30 886 H 82.0666 -2.1961 -3.01373 0
M  V30 887 N 84.2517 0.741722 -1.39055 0
M  V30 888 C 85.4767 1.53607 -1.39354 0
M  V30 889 C 85.9017 1.88096 0.0116905 0
M  V30 890 O 85.2597 1.5143 0.996924 0
M  V30 891 C 85.3077 2.80441 -2.26682 0
M  V30 892 O 84.4117 3.76088 -1.69208 0
M  V30 893 H 83.7527 0.464142 -0.474835 0
M  V30 894 H 86.2827 0.915665 -1.82967 0
M  V30 895 H 86.2927 3.29246 -2.40959 0
M  V30 896 H 84.9677 2.5467 -3.2881 0
M  V30 897 H 83.5447 3.34833 -1.64138 0
M  V30 898 N 85.7298 1.2412 0.971189 0
M  V30 899 C 86.9758 1.09048 1.71698 0
M  V30 900 C 87.3308 -0.367442 1.88859 0
M  V30 901 O 86.6238 -1.26792 1.43646 0
M  V30 902 C 86.8178 1.75983 3.11071 0
M  V30 903 C 86.6468 3.28133 3.07504 0
M  V30 904 C 85.4168 3.97331 3.1218 0
M  V30 905 C 87.6148 4.24773 2.89952 0
M  V30 906 N 85.5968 5.3639 2.98596 0
M  V30 907 C 86.9678 5.50806 2.84627 0
M  V30 908 C 89.0228 4.15392 2.74506 0
M  V30 909 C 87.7258 6.68533 2.65437 0
M  V30 910 C 89.7518 5.32793 2.56682 0
M  V30 911 C 89.1138 6.57756 2.52063 0
M  V30 912 H 85.2128 0.453632 0.636979 0
M  V30 913 H 87.7968 1.56983 1.15171 0
M  V30 914 H 85.9678 1.30566 3.65796 0
M  V30 915 H 87.6998 1.53803 3.74335 0
M  V30 916 H 84.4548 3.48473 3.20724 0
M  V30 917 H 84.8788 6.09321 2.95054 0
M  V30 918 H 89.5208 3.19543 2.76861 0
M  V30 919 H 87.2388 7.64509 2.61825 0
M  V30 920 H 90.8248 5.27383 2.4568 0
M  V30 921 H 89.7048 7.4707 2.38446 0
M  V30 922 N 87.2079 -1.17134 1.05439 0
M  V30 923 C 88.6239 -1.39454 0.776201 0
M  V30 924 C 88.8239 -1.91454 -0.628307 0
M  V30 925 O 87.8799 -2.10777 -1.39031 0
M  V30 926 C 89.1929 -2.38305 1.83388 0
M  V30 927 C 90.7409 -2.52006 1.85639 0
M  V30 928 C 91.2159 -3.54133 2.90437 0
M  V30 929 N 92.7069 -3.61653 2.89415 0
M  V30 930 C 93.4419 -4.4044 3.67152 0
M  V30 931 N 92.9379 -5.22721 4.54681 0
M  V30 932 N 94.7309 -4.35337 3.55581 0
M  V30 933 H 86.8819 -0.817134 1.96053 0
M  V30 934 H 89.1449 -0.421626 0.849079 0
M  V30 935 H 88.8509 -2.07173 2.84204 0
M  V30 936 H 88.7249 -3.37841 1.67761 0
M  V30 937 H 91.1119 -2.82447 0.85486 0
M  V30 938 H 91.1929 -1.52537 2.05344 0
M  V30 939 H 90.8369 -3.24431 3.90777 0
M  V30 940 H 90.7669 -4.53313 2.67983 0
M  V30 941 H 93.2579 -3.02909 2.25952 0
M  V30 942 H 93.5709 -5.80027 5.10674 0
M  V30 943 H 91.9159 -5.22093 4.58741 0
M  V30 944 H 95.1069 -3.70112 2.86592 0
M  V30 945 H 95.2799 -4.96494 4.1641 0
M  V30 946 N 88.686 -0.835752 -1.33615 0
M  V30 947 C 89.932 -0.430596 -1.98176 0
M  V30 948 C 90.265 1.00684 -1.66061 0
M  V30 949 O 89.54 1.70339 -0.938877 0
M  V30 950 C 89.823 -0.648065 -3.5422 0
M  V30 951 C 89.676 -2.13255 -3.96033 0
M  V30 952 C 90.995 -0.0922113 -4.40003 0
M  V30 953 H 88.114 -0.157924 -0.719881 0
M  V30 954 H 90.756 -1.05069 -1.58305 0
M  V30 955 H 88.906 -0.120237 -3.88314 0
M  V30 956 H 90.578 -2.725 -3.72211 0
M  V30 957 H 88.821 -2.61823 -3.45878 0
M  V30 958 H 89.492 -2.23547 -5.04708 0
M  V30 959 H 91.968 -0.543343 -4.12537 0
M  V30 960 H 90.844 -0.274083 -5.48215 0
M  V30 961 H 91.105 1.00378 -4.30554 0
M  V30 962 N 90.1641 1.46063 -0.591896 0
M  V30 963 C 91.4101 2.02638 -0.0811191 0
M  V30 964 C 91.7431 1.4613 1.27905 0
M  V30 965 O 91.0181 0.629908 1.84017 0
M  V30 966 C 91.3011 3.60091 -0.0252436 0
M  V30 967 C 91.1541 4.26965 -1.41496 0
M  V30 968 C 92.4731 4.3496 0.670685 0
M  V30 969 H 89.5921 0.73635 -0.0309524 0
M  V30 970 H 92.2341 1.741 -0.760859 0
M  V30 971 H 90.3841 3.84535 0.553624 0
M  V30 972 H 92.0561 4.13756 -2.0397 0
M  V30 973 H 90.2991 3.85971 -1.98011 0
M  V30 974 H 90.9701 5.35781 -1.32825 0
M  V30 975 H 93.4461 4.15716 0.178825 0
M  V30 976 H 92.3221 5.44686 0.678837 0
M  V30 977 H 92.5831 4.06685 1.73379 0
M  V30 978 N 91.6422 0.330177 1.54103 0
M  V30 979 C 92.8672 -0.274893 2.0557 0
M  V30 980 C 93.2922 -1.44487 1.20437 0
M  V30 981 O 92.6502 -1.80021 0.214991 0
M  V30 982 C 92.6982 -0.68079 3.54115 0
M  V30 983 O 91.8022 -1.7824 3.71893 0
M  V30 984 H 91.1432 -0.0483849 0.662235 0
M  V30 985 H 93.6732 0.480508 1.98878 0
M  V30 986 H 93.6832 -0.961635 3.96505 0
M  V30 987 H 92.3582 0.174903 4.15532 0
M  V30 988 H 90.9352 -1.49985 3.41407 0
M  V30 989 N 93.1203 -1.57491 0.0584922 0
M  V30 990 C 94.3453 -1.97711 -0.62652 0
M  V30 991 C 94.7703 -0.936132 -1.63151 0
M  V30 992 O 94.1283 0.099811 -1.81025 0
M  V30 993 C 94.1763 -3.36989 -1.28338 0
M  V30 994 O 93.2803 -3.35433 -2.39913 0
M  V30 995 H 92.6213 -0.643868 -0.162266 0
M  V30 996 H 95.1513 -2.04193 0.129064 0
M  V30 997 H 95.1613 -3.73879 -1.63335 0
M  V30 998 H 93.8363 -4.12289 -0.546889 0
M  V30 999 H 92.4133 -3.10298 -2.06809 0
M  V30 1000 N 94.5984 0.214957 -1.56127 0
M  V30 1001 C 95.8474 0.936451 -1.78643 0
M  V30 1002 C 96.1604 1.85237 -0.628229 0
M  V30 1003 O 97.3664 2.613 -0.737186 0
M  V30 1004 C 95.8224 1.7154 -3.16389 0
M  V30 1005 C 95.4304 0.845299 -4.39953 0
M  V30 1006 C 97.1744 2.42772 -3.48227 0
M  V30 1007 C 95.0814 1.62198 -5.68723 0
M  V30 1008 H 94.0114 0.353401 -0.666051 0
M  V30 1009 H 96.6624 0.190169 -1.82512 0
M  V30 1010 H 95.0444 2.50484 -3.06715 0
M  V30 1011 H 96.2184 0.0959353 -4.607 0
M  V30 1012 H 94.5334 0.244789 -4.1568 0
M  V30 1013 H 97.1304 3.01394 -4.41663 0
M  V30 1014 H 97.4734 3.15984 -2.71035 0
M  V30 1015 H 98.0064 1.70813 -3.5926 0
M  V30 1016 H 94.7454 0.933011 -6.48826 0
M  V30 1017 H 94.2654 2.34579 -5.52026 0
M  V30 1018 H 95.9444 2.18095 -6.09133 0
M  V30 1019 N 96.0765 1.50051 0.48192 0
M  V30 1020 C 96.9865 1.7089 1.60728 0
M  V30 1021 C 98.0025 0.591788 1.63627 0
M  V30 1022 O 99.1785 0.868817 1.81696 0
M  V30 1023 C 96.2435 1.78855 2.97005 0
M  V30 1024 C 95.3045 3.02537 3.04581 0
M  V30 1025 C 94.5375 3.10112 4.34357 0
M  V30 1026 O 94.7605 2.24765 5.24249 0
M  V30 1027 O 93.6945 4.02747 4.47301 0
M  V30 1028 H 97.5205 2.66264 1.46072 0
M  V30 1029 H 95.1055 1.34018 0.660264 0
M  V30 1030 H 96.9875 1.86336 3.77964 0
M  V30 1031 H 95.6625 0.866628 3.11883 0
M  V30 1032 H 94.5695 3.00563 2.22739 0
M  V30 1033 H 95.9025 3.94272 2.94636 0
M  V30 1034 N 97.5546 -0.734337 1.39446 0
M  V30 1035 C 98.4866 -1.85861 1.34121 0
M  V30 1036 C 99.4996 -1.60871 0.249864 0
M  V30 1037 O 100.689 -1.71093 0.508865 0
M  V30 1038 C 97.7886 -3.21899 1.05991 0
M  V30 1039 C 96.9616 -3.74239 2.26415 0
M  V30 1040 C 96.0206 -4.88841 1.94733 0
M  V30 1041 O 95.0466 -5.02468 2.67422 0
M  V30 1042 N 96.2486 -5.73261 0.913884 0
M  V30 1043 H 99.0136 -1.90934 2.31007 0
M  V30 1044 H 96.5746 -0.915102 1.33557 0
M  V30 1045 H 98.5666 -3.96136 0.828147 0
M  V30 1046 H 97.1366 -3.12091 0.178361 0
M  V30 1047 H 96.3566 -2.91347 2.65539 0
M  V30 1048 H 97.6446 -4.05942 3.06738 0
M  V30 1049 H 97.0426 -5.64842 0.311476 0
M  V30 1050 H 95.5996 -6.47563 0.742015 0
M  V30 1051 N 99.0327 -1.24633 -0.964593 0
M  V30 1052 C 99.9797 -1.04144 -2.05968 0
M  V30 1053 C 100.95 0.046262 -1.66036 0
M  V30 1054 O 102.135 -0.108972 -1.90489 0
M  V30 1055 C 99.2747 -0.65563 -3.38815 0
M  V30 1056 C 98.3877 -1.81714 -3.91923 0
M  V30 1057 C 97.5227 -1.37662 -5.13052 0
M  V30 1058 C 96.5617 -2.50788 -5.58365 0
M  V30 1059 N 95.6987 -2.07582 -6.70712 0
M  V30 1060 H 100.539 -1.9787 -2.22827 0
M  V30 1061 H 98.0757 -0.9855 -1.09208 0
M  V30 1062 H 100.034 -0.412954 -4.15151 0
M  V30 1063 H 98.6637 0.244627 -3.21872 0
M  V30 1064 H 97.7157 -2.1734 -3.12198 0
M  V30 1065 H 99.0277 -2.66705 -4.21509 0
M  V30 1066 H 98.1817 -1.093 -5.96773 0
M  V30 1067 H 96.9207 -0.497293 -4.85158 0
M  V30 1068 H 95.9257 -2.79906 -4.73215 0
M  V30 1069 H 97.1507 -3.39283 -5.88272 0
M  V30 1070 H 95.0967 -1.22051 -6.44546 0
M  V30 1071 H 95.0137 -2.86125 -6.99763 0
M  V30 1072 H 96.2817 -1.82369 -7.57867 0
M  V30 1073 N 100.511 1.16574 -1.06058 0
M  V30 1074 C 101.739 1.90952 -0.796552 0
M  V30 1075 C 102.154 1.77302 0.648808 0
M  V30 1076 O 101.511 1.11605 1.44397 0
M  V30 1077 C 101.562 3.41736 -1.17894 0
M  V30 1078 O 101.283 3.54975 -2.56758 0
M  V30 1079 C 102.784 4.33169 -0.942308 0
M  V30 1080 H 100.004 0.605594 -0.288959 0
M  V30 1081 H 102.548 1.47777 -1.41358 0
M  V30 1082 H 100.703 3.82623 -0.606491 0
M  V30 1083 H 101.117 4.4846 -2.72 0
M  V30 1084 H 102.591 5.37439 -1.25952 0
M  V30 1085 H 103.068 4.3903 0.122078 0
M  V30 1086 H 103.674 3.98007 -1.49902 0
M  V30 1087 N 101.989 0.842826 1.3317 0
M  V30 1088 C 102.899 0.281444 2.32906 0
M  V30 1089 C 103.915 -0.594587 1.63526 0
M  V30 1090 O 105.091 -0.49777 1.95152 0
M  V30 1091 C 102.156 -0.530929 3.42611 0
M  V30 1092 C 101.217 0.369843 4.27704 0
M  V30 1093 C 100.45 -0.403853 5.3217 0
M  V30 1094 O 100.673 -1.63513 5.46461 0
M  V30 1095 O 99.6069 0.224199 6.01482 0
M  V30 1096 H 103.433 1.10744 2.82789 0
M  V30 1097 H 101.018 0.60545 1.36582 0
M  V30 1098 H 102.9 -0.992437 4.09547 0
M  V30 1099 H 101.575 -1.33392 2.94938 0
M  V30 1100 H 100.482 0.879275 3.6362 0
M  V30 1101 H 101.815 1.13771 4.78871 0
M  V30 1102 N 103.467 -1.45747 0.599634 0
M  V30 1103 C 104.715 -2.01893 0.0915472 0
M  V30 1104 C 105.036 -1.47155 -1.27946 0
M  V30 1105 O 104.306 -0.66273 -1.84349 0
M  V30 1106 H 102.886 -0.746363 0.0308524 0
M  V30 1107 H 105.548 -1.78645 0.779237 0
M  V30 1108 H 104.644 -3.1208 0.0353086 0
M  V30 1109 N 104.945 -0.338344 -1.53925 0
M  V30 1110 C 105.908 0.508299 -2.23493 0
M  V30 1111 C 106.908 1.03175 -1.23335 0
M  V30 1112 O 108.098 0.921826 -1.47811 0
M  V30 1113 C 105.23 1.70754 -2.95052 0
M  V30 1114 H 106.423 -0.100058 -2.99733 0
M  V30 1115 H 103.976 -0.0896198 -1.56043 0
M  V30 1116 H 104.711 2.35474 -2.22986 0
M  V30 1117 H 104.496 1.33946 -3.68512 0
M  V30 1118 H 105.986 2.30818 -3.48013 0
M  V30 1119 N 106.423 1.57458 -0.0668435 0
M  V30 1120 C 107.333 2.15937 0.916975 0
M  V30 1121 C 108.349 1.12123 1.33058 0
M  V30 1122 O 109.525 1.44366 1.40429 0
M  V30 1123 C 106.59 2.70547 2.16807 0
M  V30 1124 C 105.651 3.89215 1.81135 0
M  V30 1125 C 104.884 4.41211 3.0028 0
M  V30 1126 O 105.107 3.92225 4.14144 0
M  V30 1127 O 104.041 5.32605 2.80384 0
M  V30 1128 H 107.867 3.00354 0.449561 0
M  V30 1129 H 105.452 1.48584 0.155949 0
M  V30 1130 H 107.334 3.0557 2.90181 0
M  V30 1131 H 106.009 1.89192 2.62656 0
M  V30 1132 H 104.916 3.59054 1.05028 0
M  V30 1133 H 106.249 4.71848 1.40073 0
M  V30 1134 N 107.901 -0.206675 1.56239 0
M  V30 1135 C 108.848 -1.25617 1.93621 0
M  V30 1136 C 109.818 -1.45824 0.795274 0
M  V30 1137 O 111.003 -1.59148 1.05245 0
M  V30 1138 C 108.143 -2.59839 2.27107 0
M  V30 1139 C 107.256 -2.47308 3.54207 0
M  V30 1140 C 106.391 -3.74155 3.7707 0
M  V30 1141 C 105.43 -3.56407 4.97635 0
M  V30 1142 N 104.567 -4.75238 5.1681 0
M  V30 1143 H 109.407 -0.930383 2.83104 0
M  V30 1144 H 106.944 -0.448065 1.4011 0
M  V30 1145 H 108.902 -3.38021 2.44535 0
M  V30 1146 H 107.532 -2.90485 1.40778 0
M  V30 1147 H 106.584 -1.60483 3.4489 0
M  V30 1148 H 107.896 -2.30122 4.42544 0
M  V30 1149 H 107.05 -4.60778 3.94675 0
M  V30 1150 H 105.789 -3.94282 2.87042 0
M  V30 1151 H 104.794 -2.68168 4.79964 0
M  V30 1152 H 106.019 -3.37736 5.89161 0
M  V30 1153 H 103.965 -4.95651 4.29728 0
M  V30 1154 H 103.882 -4.60835 5.99306 0
M  V30 1155 H 105.15 -5.63246 5.38864 0
M  V30 1156 N 109.379 -1.50304 -0.473955 0
M  V30 1157 C 110.326 -1.68959 -1.57231 0
M  V30 1158 C 111.296 -0.530899 -1.57387 0
M  V30 1159 O 112.481 -0.761133 -1.74961 0
M  V30 1160 C 109.621 -1.7871 -2.95223 0
M  V30 1161 C 108.734 -3.06061 -3.04878 0
M  V30 1162 C 107.869 -3.06626 -4.33767 0
M  V30 1163 C 106.908 -4.28443 -4.37154 0
M  V30 1164 N 106.045 -4.26763 -5.5751 0
M  V30 1165 H 110.885 -2.6273 -1.40631 0
M  V30 1166 H 108.422 -1.30241 -0.683789 0
M  V30 1167 H 110.38 -1.82344 -3.75242 0
M  V30 1168 H 109.01 -0.883806 -3.10465 0
M  V30 1169 H 108.062 -3.11911 -2.17751 0
M  V30 1170 H 109.374 -3.96039 -3.0324 0
M  V30 1171 H 108.528 -3.08973 -5.22131 0
M  V30 1172 H 107.267 -2.14473 -4.3801 0
M  V30 1173 H 106.272 -4.2631 -3.47188 0
M  V30 1174 H 107.497 -5.2182 -4.34605 0
M  V30 1175 H 105.443 -3.37462 -5.62544 0
M  V30 1176 H 105.36 -5.10507 -5.57601 0
M  V30 1177 H 106.628 -4.33253 -6.48006 0
M  V30 1178 N 110.857 0.726932 -1.39834 0
M  V30 1179 C 111.789 1.85147 -1.35104 0
M  V30 1180 C 112.802 1.60736 -0.258392 0
M  V30 1181 O 113.991 1.70821 -0.517931 0
M  V30 1182 C 111.091 3.21332 -1.07697 0
M  V30 1183 C 110.264 3.73033 -2.28396 0
M  V30 1184 C 109.323 4.87802 -1.97322 0
M  V30 1185 O 108.349 5.01043 -2.70083 0
M  V30 1186 N 109.551 5.72768 -0.944273 0
M  V30 1187 H 112.316 1.89706 -2.32017 0
M  V30 1188 H 109.877 0.908006 -1.3404 0
M  V30 1189 H 111.869 3.95691 -0.849144 0
M  V30 1190 H 110.439 3.11992 -0.194909 0
M  V30 1191 H 109.659 2.89934 -2.6708 0
M  V30 1192 H 110.947 4.0431 -3.08887 0
M  V30 1193 H 110.345 5.64669 -0.341427 0
M  V30 1194 H 108.902 6.4716 -0.776346 0
M  V30 1195 N 112.336 1.25143 0.95797 0
M  V30 1196 C 113.268 1.01023 2.05735 0
M  V30 1197 C 114.281 -0.0236902 1.62783 0
M  V30 1198 O 115.47 0.21448 1.77207 0
M  V30 1199 C 112.57 0.504595 3.35122 0
M  V30 1200 C 111.743 1.6039 4.06932 0
M  V30 1201 C 110.802 1.09922 5.14591 0
M  V30 1202 O 109.828 1.79293 5.40225 0
M  V30 1203 N 111.03 -0.0612545 5.80468 0
M  V30 1204 H 113.795 1.95683 2.26998 0
M  V30 1205 H 111.356 1.16303 1.12629 0
M  V30 1206 H 113.348 0.151516 4.04416 0
M  V30 1207 H 111.918 -0.347989 3.10657 0
M  V30 1208 H 111.138 2.12872 3.31782 0
M  V30 1209 H 112.426 2.34252 4.51667 0
M  V30 1210 H 111.824 -0.640985 5.62057 0
M  V30 1211 H 110.381 -0.355395 6.5083 0
M  V30 1212 N 113.814 -1.1601 1.06675 0
M  V30 1213 C 114.747 -2.1947 0.625168 0
M  V30 1214 C 115.725 -1.58699 -0.354041 0
M  V30 1215 O 116.909 -1.86669 -0.262098 0
M  V30 1216 C 114.036 -3.38598 -0.0829593 0
M  V30 1217 C 113.082 -4.1787 0.853611 0
M  V30 1218 S 113.915 -4.81135 2.35094 0
M  V30 1219 C 115.071 -6.03639 1.65441 0
M  V30 1220 H 115.304 -2.56587 1.50168 0
M  V30 1221 H 112.837 -1.26862 0.880078 0
M  V30 1222 H 114.795 -4.07621 -0.485288 0
M  V30 1223 H 113.456 -2.99839 -0.935716 0
M  V30 1224 H 112.649 -5.03078 0.304755 0
M  V30 1225 H 112.251 -3.54361 1.196 0
M  V30 1226 H 114.543 -6.70632 0.962201 0
M  V30 1227 H 115.486 -6.63081 2.48454 0
M  V30 1228 H 115.894 -5.52965 1.13534 0
M  V30 1229 N 115.292 -0.849877 -1.32721 0
M  V30 1230 C 116.255 -0.296122 -2.27279 0
M  V30 1231 C 117.255 0.541458 -1.5141 0
M  V30 1232 O 118.445 0.353658 -1.70572 0
M  V30 1233 C 115.577 0.581579 -3.35902 0
M  V30 1234 H 116.77 -1.13064 -2.77771 0
M  V30 1235 H 114.323 -0.62383 -1.43311 0
M  V30 1236 H 115.058 1.43809 -2.9067 0
M  V30 1237 H 114.843 -0.0178814 -3.92096 0
M  V30 1238 H 116.333 0.961951 -4.0637 0
M  V30 1239 N 116.77 1.45427 -0.607355 0
M  V30 1240 C 118.186 1.57283 -0.270985 0
M  V30 1241 C 118.386 1.59875 1.22647 0
M  V30 1242 O 117.442 1.52893 2.00948 0
M  V30 1243 C 118.755 2.85566 -0.941952 0
M  V30 1244 C 120.303 2.9924 -0.917849 0
M  V30 1245 C 120.778 4.30293 -1.56882 0
M  V30 1246 N 122.269 4.37051 -1.5343 0
M  V30 1247 C 123.004 5.37123 -2.00715 0
M  V30 1248 N 122.5 6.43734 -2.56084 0
M  V30 1249 N 124.293 5.28479 -1.91484 0
M  V30 1250 H 116.444 1.41988 -1.57966 0
M  V30 1251 H 118.707 0.67885 -0.661715 0
M  V30 1252 H 118.413 2.8955 -1.99633 0
M  V30 1253 H 118.287 3.74322 -0.465096 0
M  V30 1254 H 120.674 2.94822 0.127984 0
M  V30 1255 H 120.755 2.11895 -1.43297 0
M  V30 1256 H 120.399 4.35469 -2.61398 0
M  V30 1257 H 120.329 5.16454 -1.02873 0
M  V30 1258 H 122.82 3.60615 -1.12982 0
M  V30 1259 H 123.133 7.16341 -2.89958 0
M  V30 1260 H 121.478 6.44485 -2.60122 0
M  V30 1261 H 124.669 4.44098 -1.47967 0
M  V30 1262 H 124.842 6.0632 -2.28648 0
M  V30 1263 N 118.248 0.346503 1.53744 0
M  V30 1264 C 119.158 -0.517293 2.28826 0
M  V30 1265 C 120.174 -1.10935 1.3405 0
M  V30 1266 O 121.35 -1.1244 1.6709 0
M  V30 1267 C 118.415 -1.65098 3.04866 0
M  V30 1268 C 117.476 -1.0884 4.15274 0
M  V30 1269 C 116.709 -2.16806 4.87679 0
M  V30 1270 O 116.932 -3.3758 4.59778 0
M  V30 1271 O 115.866 -1.80934 5.74061 0
M  V30 1272 H 119.692 0.0931396 3.03557 0
M  V30 1273 H 117.277 0.111458 1.48984 0
M  V30 1274 H 119.159 -2.31053 3.5241 0
M  V30 1275 H 117.834 -2.24717 2.32989 0
M  V30 1276 H 116.741 -0.3933 3.72027 0
M  V30 1277 H 118.074 -0.537036 4.89261 0
M  V30 1278 N 119.726 -1.57421 0.075193 0
M  V30 1279 C 120.956 -1.97659 -0.601203 0
M  V30 1280 C 121.364 -0.952427 -1.63479 0
M  V30 1281 O 120.707 0.0688241 -1.83571 0
M  V30 1282 C 120.769 -3.34218 -1.32434 0
M  V30 1283 C 120.433 -4.5484 -0.443826 0
M  V30 1284 C 121.43 -5.19034 0.299969 0
M  V30 1285 C 119.115 -5.00952 -0.367709 0
M  V30 1286 C 121.109 -6.27695 1.10807 0
M  V30 1287 C 118.796 -6.09484 0.444058 0
M  V30 1288 C 119.794 -6.72719 1.18061 0
M  V30 1289 O 119.482 -7.79161 1.97898 0
M  V30 1290 H 119.214 -0.65494 -0.167422 0
M  V30 1291 H 121.768 -2.04886 0.145157 0
M  V30 1292 H 119.998 -3.23615 -2.11685 0
M  V30 1293 H 121.687 -3.59038 -1.89331 0
M  V30 1294 H 122.453 -4.84351 0.250776 0
M  V30 1295 H 118.332 -4.51509 -0.930638 0
M  V30 1296 H 121.876 -6.76982 1.68347 0
M  V30 1297 H 117.773 -6.43601 0.494803 0
M  V30 1298 H 118.541 -7.96055 1.90367 0
M  V30 1299 N 121.204 0.198386 -1.56346 0
M  V30 1300 C 122.62 0.549085 -1.49857 0
M  V30 1301 C 122.82 1.86016 -0.774611 0
M  V30 1302 O 121.876 2.50416 -0.323776 0
M  V30 1303 C 123.189 0.606868 -2.94512 0
M  V30 1304 C 124.737 0.695925 -3.05165 0
M  V30 1305 C 125.212 0.784848 -4.51225 0
M  V30 1306 N 126.703 0.848463 -4.55363 0
M  V30 1307 C 127.438 0.937378 -5.65686 0
M  V30 1308 N 126.934 0.9888 -6.85707 0
M  V30 1309 N 128.727 0.974312 -5.53592 0
M  V30 1310 H 120.878 -0.661655 -2.01831 0
M  V30 1311 H 123.141 -0.235261 -0.918344 0
M  V30 1312 H 122.847 -0.28732 -3.50524 0
M  V30 1313 H 122.721 1.46268 -3.47686 0
M  V30 1314 H 125.108 1.58055 -2.49204 0
M  V30 1315 H 125.189 -0.186022 -2.55123 0
M  V30 1316 H 124.833 -0.0954072 -5.0781 0
M  V30 1317 H 124.763 1.68255 -4.98997 0
M  V30 1318 H 127.254 0.818103 -3.68938 0
M  V30 1319 H 127.567 1.05707 -7.65536 0
M  V30 1320 H 125.912 0.957534 -6.88372 0
M  V30 1321 H 129.103 0.930954 -4.58749 0
M  V30 1322 H 129.276 1.04015 -6.39597 0
M  V30 1323 N 122.682 1.50554 0.465978 0
M  V30 1324 C 123.592 1.72585 1.58907 0
M  V30 1325 C 124.608 0.60911 1.6299 0
M  V30 1326 O 125.784 0.88804 1.80765 0
M  V30 1327 C 122.849 1.81995 2.95091 0
M  V30 1328 C 121.91 3.05751 3.01355 0
M  V30 1329 C 121.143 3.14702 4.31043 0
M  V30 1330 O 121.366 2.30313 5.21835 0
M  V30 1331 O 120.3 4.07468 4.43005 0
M  V30 1332 H 124.126 2.67799 1.43239 0
M  V30 1333 H 121.711 1.34711 0.646013 0
M  V30 1334 H 123.593 1.90335 3.75966 0
M  V30 1335 H 122.268 0.899659 3.10947 0
M  V30 1336 H 121.175 3.02908 2.19539 0
M  V30 1337 H 122.508 3.97375 2.90437 0
M  V30 1338 N 124.16 -0.719506 1.40217 0
M  V30 1339 C 125.107 -1.83359 1.40172 0
M  V30 1340 C 126.077 -1.64065 0.259206 0
M  V30 1341 O 127.262 -1.85254 0.456677 0
M  V30 1342 C 124.402 -3.2103 1.26624 0
M  V30 1343 C 123.515 -3.51923 2.50548 0
M  V30 1344 C 122.65 -4.79079 2.29471 0
M  V30 1345 C 121.689 -5.02863 3.48992 0
M  V30 1346 N 120.826 -6.2123 3.27135 0
M  V30 1347 H 125.666 -1.82733 2.35399 0
M  V30 1348 H 123.203 -0.892688 1.16917 0
M  V30 1349 H 125.161 -4.00524 1.16776 0
M  V30 1350 H 123.791 -3.20895 0.350176 0
M  V30 1351 H 122.843 -2.67014 2.70939 0
M  V30 1352 H 124.155 -3.6541 3.39525 0
M  V30 1353 H 123.309 -5.66582 2.16955 0
M  V30 1354 H 122.048 -4.67794 1.37913 0
M  V30 1355 H 121.053 -4.13816 3.6199 0
M  V30 1356 H 122.278 -5.16023 4.41472 0
M  V30 1357 H 120.224 -6.11204 2.38256 0
M  V30 1358 H 120.141 -6.35375 4.09675 0
M  V30 1359 H 121.409 -7.11532 3.18344 0
M  V30 1360 N 125.638 -1.25649 -0.95132 0
M  V30 1361 C 126.887 -1.09988 -1.69073 0
M  V30 1362 C 127.2 0.358355 -1.92289 0
M  V30 1363 O 128.406 0.635466 -2.63958 0
M  V30 1364 C 126.862 -1.92012 -3.044 0
M  V30 1365 C 126.47 -3.42347 -2.88968 0
M  V30 1366 C 128.214 -1.8493 -3.82101 0
M  V30 1367 C 126.121 -4.16655 -4.19705 0
M  V30 1368 H 125.051 -0.407993 -0.63408 0
M  V30 1369 H 127.702 -1.49873 -1.05879 0
M  V30 1370 H 126.084 -1.44952 -3.68517 0
M  V30 1371 H 127.258 -3.97104 -2.33762 0
M  V30 1372 H 125.573 -3.50557 -2.24719 0
M  V30 1373 H 128.17 -2.37739 -4.78941 0
M  V30 1374 H 128.513 -0.817883 -4.08187 0
M  V30 1375 H 129.046 -2.29758 -3.2474 0
M  V30 1376 H 125.785 -5.20224 -3.98807 0
M  V30 1377 H 125.305 -3.66681 -4.74663 0
M  V30 1378 H 126.984 -4.24551 -4.88227 0
M  V30 1379 N 127.117 1.15442 -1.07289 0
M  V30 1380 C 128.027 2.23786 -0.704057 0
M  V30 1381 C 129.043 1.7166 0.284413 0
M  V30 1382 O 130.219 2.00972 0.131205 0
M  V30 1383 C 127.284 3.46535 -0.106792 0
M  V30 1384 C 126.345 4.13654 -1.14842 0
M  V30 1385 C 125.578 5.30544 -0.57956 0
M  V30 1386 O 125.801 5.67187 0.604585 0
M  V30 1387 O 124.735 5.87154 -1.32414 0
M  V30 1388 H 128.561 2.57664 -1.60757 0
M  V30 1389 H 126.146 1.23152 -0.845803 0
M  V30 1390 H 128.028 4.20804 0.224048 0
M  V30 1391 H 126.703 3.14407 0.770049 0
M  V30 1392 H 125.61 3.4131 -1.5316 0
M  V30 1393 H 126.943 4.49861 -1.99714 0
M  V30 1394 N 128.595 0.856903 1.32268 0
M  V30 1395 C 129.823 0.475439 2.01363 0
M  V30 1396 C 130.238 -0.928486 1.64392 0
M  V30 1397 O 129.595 -1.60624 0.866387 0
M  V30 1398 C 129.646 0.607545 3.56358 0
M  V30 1399 O 129.367 1.95617 3.92002 0
M  V30 1400 C 130.868 0.225382 4.42727 0
M  V30 1401 H 128.088 0.186636 0.644521 0
M  V30 1402 H 130.632 1.15446 1.68797 0
M  V30 1403 H 128.787 -0.0237719 3.87393 0
M  V30 1404 H 129.201 1.95455 4.86721 0
M  V30 1405 H 130.675 0.368813 5.50767 0
M  V30 1406 H 131.152 -0.834369 4.31202 0
M  V30 1407 H 131.758 0.831864 4.17085 0
M  V30 1408 N 130.073 -1.45103 0.615059 0
M  V30 1409 C 130.983 -2.34382 -0.101034 0
M  V30 1410 C 131.999 -1.51681 -0.852585 0
M  V30 1411 O 133.175 -1.8446 -0.808484 0
M  V30 1412 C 130.24 -3.29417 -1.08099 0
M  V30 1413 C 129.301 -4.28025 -0.330577 0
M  V30 1414 C 128.534 -5.1852 -1.26385 0
M  V30 1415 O 128.757 -5.12598 -2.50198 0
M  V30 1416 O 127.691 -5.97122 -0.756866 0
M  V30 1417 H 131.517 -2.97033 0.632855 0
M  V30 1418 H 129.102 -1.4461 0.375293 0
M  V30 1419 H 130.984 -3.87958 -1.6452 0
M  V30 1420 H 129.659 -2.69321 -1.79577 0
M  V30 1421 H 128.566 -3.73078 0.276283 0
M  V30 1422 H 129.899 -4.90997 0.343866 0
M  V30 1423 N 131.551 -0.354651 -1.53558 0
M  V30 1424 C 132.481 0.489091 -2.2832 0
M  V30 1425 C 133.462 1.09324 -1.30316 0
M  V30 1426 O 134.647 1.11255 -1.59173 0
M  V30 1427 C 131.777 1.63456 -3.0643 0
M  V30 1428 C 130.731 1.1582 -4.12031 0
M  V30 1429 C 130.057 2.39305 -4.7816 0
M  V30 1430 C 131.357 0.250731 -5.21698 0
M  V30 1431 H 133.051 -0.134614 -2.99097 0
M  V30 1432 H 130.597 -0.0661826 -1.43848 0
M  V30 1433 H 132.55 2.23136 -3.57475 0
M  V30 1434 H 131.274 2.28533 -2.33325 0
M  V30 1435 H 129.933 0.584146 -3.61916 0
M  V30 1436 H 129.581 3.02814 -4.01637 0
M  V30 1437 H 129.281 2.08109 -5.49513 0
M  V30 1438 H 130.805 2.99691 -5.31994 0
M  V30 1439 H 132.219 0.754695 -5.68311 0
M  V30 1440 H 130.616 0.0301468 -6.00092 0
M  V30 1441 H 131.686 -0.710125 -4.79672 0
M  V30 1442 N 133.029 1.57378 -0.0835403 0
M  V30 1443 C 134.445 1.57246 0.273109 0
M  V30 1444 C 134.645 1.09385 1.69225 0
M  V30 1445 O 133.701 0.765051 2.40631 0
M  V30 1446 C 135.014 3.00614 0.0720628 0
M  V30 1447 C 136.562 3.12684 0.1407 0
M  V30 1448 C 137.037 4.57989 -0.0322094 0
M  V30 1449 N 138.528 4.63194 0.0230085 0
M  V30 1450 C 139.263 5.73335 -0.0861941 0
M  V30 1451 N 138.759 6.9235 -0.24958 0
M  V30 1452 N 140.552 5.62093 -0.0282886 0
M  V30 1453 H 132.703 1.86801 -1.0109 0
M  V30 1454 H 134.966 0.861687 -0.395222 0
M  V30 1455 H 134.672 3.39786 -0.907662 0
M  V30 1456 H 134.546 3.68193 0.81936 0
M  V30 1457 H 136.933 2.73391 1.11092 0
M  V30 1458 H 137.014 2.47719 -0.637896 0
M  V30 1459 H 136.658 4.97973 -0.999247 0
M  V30 1460 H 136.588 5.21 0.765937 0
M  V30 1461 H 139.079 3.77613 0.14722 0
M  V30 1462 H 139.392 7.72117 -0.324733 0
M  V30 1463 H 137.737 6.94415 -0.285097 0
M  V30 1464 H 140.928 4.67997 0.0981408 0
M  V30 1465 H 141.101 6.47895 -0.116845 0
M  V30 1466 N 134.507 -0.190092 1.56449 0
M  V30 1467 C 135.784 -0.935886 1.71757 0
M  V30 1468 C 136.164 -2.01173 0.639726 0
M  V30 1469 O 135.512 -2.25827 -0.348502 0
M  V30 1470 C 135.722 -1.51775 3.1427 0
M  V30 1471 C 137.07 -1.99794 3.74656 0
M  V30 1472 O 138.094 -1.61607 3.1743 0
M  V30 1473 O 136.953 -2.70079 4.751 0
M  V30 1474 H 134.047 -0.439229 0.700719 0
M  V30 1475 H 136.593 -0.179395 1.68749 0
M  V30 1476 H 135.365 -0.742505 3.84191 0
M  V30 1477 H 134.988 -2.33894 3.21527 0
M  V30 1478 N 135.985 -1.50799 -0.457987 0
M  V30 1479 C 137.234 -1.6168 -1.20593 0
M  V30 1480 C 137.547 -0.32888 -1.92815 0
M  V30 1481 O 138.753 -0.316773 -2.69646 0
M  V30 1482 C 137.209 -2.8545 -2.19195 0
M  V30 1483 C 136.817 -4.21168 -1.52715 0
M  V30 1484 C 138.561 -3.05681 -2.94549 0
M  V30 1485 C 136.468 -5.3611 -2.4968 0
M  V30 1486 H 135.398 -0.602134 -0.453818 0
M  V30 1487 H 138.049 -1.77245 -0.475031 0
M  V30 1488 H 136.431 -2.63472 -2.95632 0
M  V30 1489 H 137.605 -4.53449 -0.819775 0
M  V30 1490 H 135.92 -4.06648 -0.895922 0
M  V30 1491 H 138.517 -3.88727 -3.67145 0
M  V30 1492 H 138.86 -2.17929 -3.54701 0
M  V30 1493 H 139.393 -3.27901 -2.25223 0
M  V30 1494 H 136.132 -6.26057 -1.94249 0
M  V30 1495 H 135.652 -5.0823 -3.18532 0
M  V30 1496 H 137.331 -5.6722 -3.11241 0
M  V30 1497 N 137.463 0.71206 -1.40597 0
M  V30 1498 C 138.703 1.48438 -1.40519 0
M  V30 1499 C 139.067 1.91998 -0.00767611 0
M  V30 1500 O 140.268 2.6854 0.118239 0
M  V30 1501 C 138.539 2.67514 -2.37004 0
M  V30 1502 S 140.098 3.56875 -2.55315 0
M  V30 1503 H 136.916 0.507457 -0.498005 0
M  V30 1504 H 139.518 0.832355 -1.76896 0
M  V30 1505 H 138.222 2.33689 -3.37368 0
M  V30 1506 H 137.753 3.37625 -2.01923 0
M  V30 1507 H 139.768 4.62081 -1.8082 0
M  V30 1508 N 138.941 1.26152 0.944643 0
M  V30 1509 C 139.889 1.07215 2.06417 0
M  V30 1510 C 140.883 9.2007e-05 1.694 0
M  V30 1511 O 142.089 0.1565 1.79318 0
M  V30 1512 H 138.464 0.329837 0.675805 0
M  V30 1513 H 140.435 2.02099 2.19541 0
M  V30 1514 C 139.184 0.718197 3.40202 0
M  V30 1515 H 138.507 1.53497 3.69159 0
M  V30 1516 H 139.947 0.625459 4.19361 0
M  V30 1517 C 138.406 -0.576435 3.31932 0
M  V30 1518 O 138.936 -1.61574 3.67773 0
M  V30 1519 N 137.142 -0.565781 2.85039 0
M  V30 1520 H 136.689 0.280367 2.5607 0
M  V30 1521 H 136.647 -1.43213 2.79888 0
M  V30 1522 N 140.419 -1.14872 1.07899 0
M  V30 1523 C 141.696 -1.81928 0.71845 0
M  V30 1524 C 142.076 -1.95417 -0.798455 0
M  V30 1525 O 141.424 -1.50997 -1.715 0
M  V30 1526 C 141.634 -3.17937 1.43935 0
M  V30 1527 C 142.982 -3.93501 1.59506 0
M  V30 1528 O 144.006 -3.27509 1.40058 0
M  V30 1529 O 142.865 -5.1183 1.91551 0
M  V30 1530 H 139.959 -0.78628 0.256305 0
M  V30 1531 H 142.505 -1.21934 1.18026 0
M  V30 1532 H 141.277 -3.0325 2.47295 0
M  V30 1533 H 140.9 -3.85619 0.968687 0
M  V30 1534 N 141.898 -0.863906 -1.31812 0
M  V30 1535 C 143.144 -0.472535 -1.97218 0
M  V30 1536 C 143.477 0.971394 -1.68159 0
M  V30 1537 O 142.752 1.68309 -0.974798 0
M  V30 1538 C 143.035 -0.723054 -3.52766 0
M  V30 1539 C 142.888 -2.21608 -3.91421 0
M  V30 1540 C 144.207 -0.185522 -4.39709 0
M  V30 1541 H 141.326 -0.173158 -0.71637 0
M  V30 1542 H 143.968 -1.08403 -1.56041 0
M  V30 1543 H 142.118 -0.202577 -3.87971 0
M  V30 1544 H 143.79 -2.80334 -3.66347 0
M  V30 1545 H 142.033 -2.691 -3.40246 0
M  V30 1546 H 142.704 -2.34203 -4.99853 0
M  V30 1547 H 145.18 -0.630726 -4.11292 0
M  V30 1548 H 144.056 -0.390306 -5.47511 0
M  V30 1549 H 144.317 0.912229 -4.32586 0
M  V30 1550 N 143.376 1.44774 -0.622745 0
M  V30 1551 C 144.306 2.33382 0.0741861 0
M  V30 1552 C 145.287 1.47719 0.843387 0
M  V30 1553 O 146.472 1.76458 0.810934 0
M  V30 1554 C 143.602 3.30663 1.06204 0
M  V30 1555 C 142.556 4.26079 0.405037 0
M  V30 1556 C 141.882 5.13165 1.5022 0
M  V30 1557 C 143.182 5.1781 -0.683414 0
M  V30 1558 H 144.876 2.91905 -0.665713 0
M  V30 1559 H 142.422 1.40363 -0.321587 0
M  V30 1560 H 144.375 3.9153 1.55827 0
M  V30 1561 H 143.099 2.70331 1.83272 0
M  V30 1562 H 141.758 3.66532 -0.0704683 0
M  V30 1563 H 141.406 4.49191 2.26355 0
M  V30 1564 H 141.106 5.77812 1.06803 0
M  V30 1565 H 142.63 5.76902 2.00041 0
M  V30 1566 H 144.044 5.72661 -0.270631 0
M  V30 1567 H 142.441 5.91015 -1.04023 0
M  V30 1568 H 143.511 4.59326 -1.55395 0
M  V30 1569 N 144.854 0.36279 1.53368 0
M  V30 1570 C 146.079 -0.231226 2.06107 0
M  V30 1571 C 146.504 -1.419 1.23474 0
M  V30 1572 O 145.862 -1.79524 0.253128 0
M  V30 1573 C 145.91 -0.605523 3.5548 0
M  V30 1574 O 145.014 -1.70312 3.7559 0
M  V30 1575 H 144.355 -0.034327 0.663112 0
M  V30 1576 H 146.885 0.522584 1.97814 0
M  V30 1577 H 146.895 -0.877314 3.98456 0
M  V30 1578 H 145.57 0.263004 4.15068 0
M  V30 1579 H 144.147 -1.4271 3.44512 0
M  V30 1580 N 146.332 -1.57332 0.0918853 0
M  V30 1581 C 147.262 -2.16872 -0.865371 0
M  V30 1582 C 148.243 -1.10118 -1.29646 0
M  V30 1583 O 149.428 -1.38242 -1.36392 0
M  V30 1584 C 146.558 -2.74649 -2.12569 0
M  V30 1585 C 145.512 -3.86747 -1.83333 0
M  V30 1586 C 144.838 -4.31212 -3.16166 0
M  V30 1587 C 146.138 -5.10089 -1.1228 0
M  V30 1588 H 147.832 -2.97114 -0.369307 0
M  V30 1589 H 145.378 -1.42918 -0.176194 0
M  V30 1590 H 147.331 -3.14952 -2.7997 0
M  V30 1591 H 146.055 -1.91657 -2.64452 0
M  V30 1592 H 144.714 -3.46978 -1.18331 0
M  V30 1593 H 144.362 -3.45115 -3.6593 0
M  V30 1594 H 144.062 -5.06788 -2.97388 0
M  V30 1595 H 145.586 -4.74146 -3.84731 0
M  V30 1596 H 147 -5.47582 -1.69785 0
M  V30 1597 H 145.397 -5.91073 -1.03693 0
M  V30 1598 H 146.467 -4.84786 -0.105041 0
M  V30 1599 N 147.81 0.181792 -1.56548 0
M  V30 1600 C 148.74 1.22765 -1.98623 0
M  V30 1601 C 149.721 1.46747 -0.860189 0
M  V30 1602 O 150.906 1.58259 -1.12551 0
M  V30 1603 C 148.036 2.56894 -2.33715 0
M  V30 1604 C 146.99 2.475 -3.49182 0
M  V30 1605 C 146.316 3.86023 -3.69986 0
M  V30 1606 C 147.616 1.98866 -4.82959 0
M  V30 1607 H 149.31 0.877942 -2.86239 0
M  V30 1608 H 146.856 0.42088 -1.37712 0
M  V30 1609 H 148.809 3.30253 -2.61746 0
M  V30 1610 H 147.533 2.93632 -1.42997 0
M  V30 1611 H 146.192 1.76596 -3.21262 0
M  V30 1612 H 145.84 4.20136 -2.76576 0
M  V30 1613 H 145.54 3.80609 -4.47672 0
M  V30 1614 H 147.064 4.60984 -4.00407 0
M  V30 1615 H 148.478 2.61992 -5.09934 0
M  V30 1616 H 146.875 2.04424 -5.64208 0
M  V30 1617 H 147.945 0.942465 -4.75653 0
M  V30 1618 N 149.288 1.51039 0.449983 0
M  V30 1619 C 150.198 1.74261 1.57067 0
M  V30 1620 C 151.214 0.626363 1.62335 0
M  V30 1621 O 152.39 0.907162 1.79812 0
M  V30 1622 C 149.455 1.85114 2.93144 0
M  V30 1623 C 148.516 3.0893 2.98095 0
M  V30 1624 C 147.749 3.19256 4.27681 0
M  V30 1625 O 147.972 2.35835 5.19363 0
M  V30 1626 O 146.906 4.12144 4.38658 0
M  V30 1627 H 150.732 2.69303 1.40391 0
M  V30 1628 H 148.317 1.35389 0.631688 0
M  V30 1629 H 150.199 1.94311 3.73926 0
M  V30 1630 H 148.874 0.932588 3.09975 0
M  V30 1631 H 147.781 3.0522 2.16314 0
M  V30 1632 H 149.114 4.00433 2.86206 0
M  V30 1633 N 150.766 -0.704594 1.40972 0
M  V30 1634 C 151.713 -1.81862 1.42109 0
M  V30 1635 C 152.683 -1.63781 0.276593 0
M  V30 1636 O 153.868 -1.84759 0.4763 0
M  V30 1637 C 151.008 -3.19669 1.30022 0
M  V30 1638 C 150.121 -3.49246 2.54267 0
M  V30 1639 C 149.256 -4.76618 2.3454 0
M  V30 1640 C 148.295 -4.99133 3.54306 0
M  V30 1641 N 147.432 -6.17726 3.33706 0
M  V30 1642 H 152.272 -1.80226 2.37324 0
M  V30 1643 H 149.809 -0.880238 1.17857 0
M  V30 1644 H 151.767 -3.99263 1.21018 0
M  V30 1645 H 150.397 -3.20506 0.384192 0
M  V30 1646 H 149.449 -2.64125 2.73756 0
M  V30 1647 H 150.761 -3.61788 3.43381 0
M  V30 1648 H 149.915 -5.64249 2.22952 0
M  V30 1649 H 148.654 -4.66305 1.42867 0
M  V30 1650 H 147.659 -4.09953 3.66359 0
M  V30 1651 H 148.884 -5.11311 4.4692 0
M  V30 1652 H 146.83 -6.08642 2.44725 0
M  V30 1653 H 146.747 -6.30995 4.16391 0
M  V30 1654 H 148.015 -7.08115 3.25873 0
M  V30 1655 N 152.244 -1.26651 -0.937939 0
M  V30 1656 C 153.491 -1.12387 -1.6845 0
M  V30 1657 C 153.819 0.332208 -1.91642 0
M  V30 1658 O 153.074 1.2602 -1.49725 0
M  V30 1659 C 153.373 -1.84168 -3.06295 0
M  V30 1660 C 153.039 -3.34056 -3.02849 0
M  V30 1661 C 151.701 -3.74942 -3.01616 0
M  V30 1662 C 154.053 -4.29741 -2.9491 0
M  V30 1663 C 151.381 -5.09894 -2.90215 0
M  V30 1664 C 153.733 -5.64738 -2.8505 0
M  V30 1665 C 152.397 -6.0493 -2.82162 0
M  V30 1666 H 151.667 -0.411252 -0.616403 0
M  V30 1667 H 154.314 -1.57134 -1.09459 0
M  V30 1668 H 152.619 -1.319 -3.6893 0
M  V30 1669 H 154.316 -1.70569 -3.62915 0
M  V30 1670 H 150.906 -3.01534 -3.0459 0
M  V30 1671 H 155.09 -3.99133 -2.94969 0
M  V30 1672 H 150.346 -5.40194 -2.86358 0
M  V30 1673 H 154.52 -6.38561 -2.77872 0
M  V30 1674 H 152.147 -7.09457 -2.73084 0
M  V30 1675 N 153.722 1.14298 -1.08507 0
M  V30 1676 C 154.652 2.21542 -0.737646 0
M  V30 1677 C 155.633 1.67773 0.280377 0
M  V30 1678 O 156.818 1.93616 0.150521 0
M  V30 1679 C 153.948 3.46988 -0.147259 0
M  V30 1680 C 152.902 4.13789 -1.09374 0
M  V30 1681 C 152.228 5.33449 -0.365524 0
M  V30 1682 C 153.528 4.62208 -2.4323 0
M  V30 1683 H 155.222 2.5086 -1.6343 0
M  V30 1684 H 152.768 1.20576 -0.787243 0
M  V30 1685 H 154.721 4.21262 0.107808 0
M  V30 1686 H 153.445 3.17037 0.784538 0
M  V30 1687 H 152.104 3.4147 -1.33393 0
M  V30 1688 H 151.752 4.99759 0.57011 0
M  V30 1689 H 151.452 5.79088 -0.996512 0
M  V30 1690 H 152.976 6.10485 -0.118534 0
M  V30 1691 H 154.39 5.27952 -2.23472 0
M  V30 1692 H 152.787 5.18553 -3.02031 0
M  V30 1693 H 153.857 3.77224 -3.04681 0
M  V30 1694 N 155.201 0.870884 1.31352 0
M  V30 1695 C 156.45 0.478408 1.95944 0
M  V30 1696 C 156.763 -0.974493 1.69597 0
M  V30 1697 O 157.969 -1.47316 2.28058 0
M  V30 1698 C 156.425 0.804609 3.50791 0
M  V30 1699 C 156.033 2.27433 3.85977 0
M  V30 1700 C 157.777 0.480648 4.2177 0
M  V30 1701 C 155.684 2.5429 5.33939 0
M  V30 1702 H 154.614 0.175175 0.733369 0
M  V30 1703 H 157.265 1.06391 1.4951 0
M  V30 1704 H 155.647 0.148347 3.95722 0
M  V30 1705 H 156.821 2.97373 3.52002 0
M  V30 1706 H 155.136 2.56442 3.28065 0
M  V30 1707 H 157.733 0.658519 5.30629 0
M  V30 1708 H 158.076 -0.578979 4.12254 0
M  V30 1709 H 158.609 1.09349 3.82476 0
M  V30 1710 H 155.348 3.58939 5.48491 0
M  V30 1711 H 154.868 1.88945 5.69263 0
M  V30 1712 H 156.547 2.39066 6.01212 0
M  V30 1713 N 156.679 -1.44442 0.630414 0
M  V30 1714 C 158.09 -1.85434 0.217063 0
M  V30 1715 C 158.441 -1.52748 -1.23136 0
M  V30 1716 O 157.566 -0.965205 -1.93682 0
M  V30 1717 C 158.161 -3.36581 0.387168 0
M  V30 1718 C 156.72 -3.76389 0.0283297 0
M  V30 1719 C 155.867 -2.68296 0.700889 0
M  V30 1720 H 158.818 -1.34919 0.83562 0
M  V30 1721 H 158.839 -3.78657 -0.374086 0
M  V30 1722 H 158.351 -3.60339 1.44144 0
M  V30 1723 H 156.452 -3.58246 -1.02423 0
M  V30 1724 H 156.565 -4.77095 0.437892 0
M  V30 1725 H 154.929 -2.54335 0.136267 0
M  V30 1726 H 155.712 -2.94887 1.75774 0
M  V30 1727 N 158.157 -0.370918 -1.53173 0
M  V30 1728 C 159.105 0.488101 -2.27421 0
M  V30 1729 C 160.099 1.07884 -1.30604 0
M  V30 1730 O 161.305 1.02143 -1.48212 0
M  V30 1731 H 157.68 0.176134 -0.731082 0
M  V30 1732 H 159.651 -0.159815 -2.97972 0
M  V30 1733 C 158.4 1.61306 -3.08019 0
M  V30 1734 H 157.723 1.1678 -3.82364 0
M  V30 1735 H 159.163 2.18872 -3.63141 0
M  V30 1736 C 157.622 2.55848 -2.19188 0
M  V30 1737 O 158.152 3.58799 -1.80626 0
M  V30 1738 N 156.358 2.2516 -1.83715 0
M  V30 1739 H 155.905 1.41476 -2.15273 0
M  V30 1740 H 155.863 2.8867 -1.24567 0
M  V30 1741 N 159.635 1.57281 -0.100228 0
M  V30 1742 C 160.598 2.13158 0.842398 0
M  V30 1743 C 161.598 1.06202 1.20738 0
M  V30 1744 O 162.788 1.32066 1.13597 0
M  V30 1745 C 159.92 2.65639 2.13655 0
M  V30 1746 H 161.113 2.97766 0.357114 0
M  V30 1747 H 158.666 1.5559 0.148823 0
M  V30 1748 H 159.401 1.84566 2.66657 0
M  V30 1749 H 159.186 3.43844 1.88451 0
M  V30 1750 H 160.676 3.08846 2.81077 0
M  V30 1751 N 161.113 -0.173488 1.56642 0
M  V30 1752 C 162.338 -0.910149 1.86363 0
M  V30 1753 C 162.763 -1.75132 0.686318 0
M  V30 1754 O 162.121 -1.77595 -0.364643 0
M  V30 1755 C 162.169 -1.76447 3.14482 0
M  V30 1756 O 161.273 -2.86584 2.96553 0
M  V30 1757 H 160.614 -0.255086 0.613047 0
M  V30 1758 H 163.144 -0.172283 2.03873 0
M  V30 1759 H 163.154 -2.16483 3.45831 0
M  V30 1760 H 161.829 -1.14658 3.99783 0
M  V30 1761 H 160.406 -2.50146 2.76553 0
M  V30 1762 N 162.591 -1.51276 -0.441967 0
M  V30 1763 C 163.523 -1.68444 -1.55433 0
M  V30 1764 C 164.536 -0.565187 -1.52674 0
M  V30 1765 O 165.725 -0.839356 -1.57534 0
M  V30 1766 C 162.825 -1.67966 -2.94348 0
M  V30 1767 C 161.998 -2.964 -3.21661 0
M  V30 1768 C 161.057 -2.88171 -4.40277 0
M  V30 1769 O 160.083 -3.62119 -4.39157 0
M  V30 1770 N 161.285 -2.03706 -5.43584 0
M  V30 1771 H 164.05 -2.644 -1.41112 0
M  V30 1772 H 161.611 -1.49104 -0.630838 0
M  V30 1773 H 163.603 -1.60035 -3.71713 0
M  V30 1774 H 162.173 -0.796225 -3.0229 0
M  V30 1775 H 161.393 -3.18234 -2.32638 0
M  V30 1776 H 162.681 -3.81427 -3.36736 0
M  V30 1777 H 162.079 -1.42995 -5.47329 0
M  V30 1778 H 160.636 -2.01658 -6.1982 0
M  V30 1779 N 164.069 0.697108 -1.41344 0
M  V30 1780 C 165.032 1.79281 -1.42797 0
M  V30 1781 C 166.032 1.57607 -0.318837 0
M  V30 1782 O 167.222 1.64309 -0.578642 0
M  V30 1783 C 164.354 3.17632 -1.23785 0
M  V30 1784 H 165.547 1.79385 -2.40335 0
M  V30 1785 H 163.1 0.904582 -1.27464 0
M  V30 1786 H 163.835 3.23167 -0.270814 0
M  V30 1787 H 163.62 3.34765 -2.04144 0
M  V30 1788 H 165.11 3.97617 -1.27633 0
M  V30 1789 N 165.547 1.27147 0.931209 0
M  V30 1790 C 166.457 1.11372 2.06478 0
M  V30 1791 C 167.473 0.044645 1.73943 0
M  V30 1792 O 168.649 0.250417 1.99837 0
M  V30 1793 C 165.714 0.758838 3.38294 0
M  V30 1794 C 164.775 1.90841 3.84549 0
M  V30 1795 C 164.008 1.57036 5.10074 0
M  V30 1796 O 164.231 0.476645 5.68405 0
M  V30 1797 O 163.165 2.40839 5.51616 0
M  V30 1798 H 166.991 2.06493 2.22698 0
M  V30 1799 H 164.576 1.06301 1.04978 0
M  V30 1800 H 166.458 0.574098 4.17471 0
M  V30 1801 H 165.133 -0.162879 3.2329 0
M  V30 1802 H 164.04 2.14819 3.06274 0
M  V30 1803 H 165.373 2.81021 4.04089 0
M  V30 1804 N 167.025 -1.13721 1.09112 0
M  V30 1805 C 168.25 -1.89314 0.847053 0
M  V30 1806 C 168.675 -1.78416 -0.595774 0
M  V30 1807 O 168.033 -1.12942 -1.41823 0
M  V30 1808 C 168.081 -3.3701 1.28284 0
M  V30 1809 O 167.185 -4.10054 0.439267 0
M  V30 1810 H 166.526 -0.588745 0.307044 0
M  V30 1811 H 169.056 -1.43902 1.45442 0
M  V30 1812 H 169.066 -3.87834 1.26683 0
M  V30 1813 H 167.741 -3.4426 2.33363 0
M  V30 1814 H 166.318 -3.69266 0.519312 0
M  V30 1815 N 168.503 -0.877838 -1.30888 0
M  V30 1816 C 169.45 -0.337538 -2.28318 0
M  V30 1817 C 170.42 0.568346 -1.56074 0
M  V30 1818 O 171.605 0.498298 -1.84178 0
M  V30 1819 C 168.745 0.448142 -3.42178 0
M  V30 1820 C 167.858 -0.48615 -4.29256 0
M  V30 1821 C 166.993 0.314427 -5.30269 0
M  V30 1822 C 166.032 -0.615791 -6.08995 0
M  V30 1823 N 165.169 0.14902 -7.01942 0
M  V30 1824 H 170.009 -1.17356 -2.73919 0
M  V30 1825 H 167.546 -0.590094 -1.34745 0
M  V30 1826 H 169.504 0.919517 -4.06941 0
M  V30 1827 H 168.134 1.24879 -2.97666 0
M  V30 1828 H 167.186 -1.076 -3.64865 0
M  V30 1829 H 168.498 -1.19909 -4.84173 0
M  V30 1830 H 167.652 0.847969 -6.00745 0
M  V30 1831 H 166.391 1.06062 -4.76027 0
M  V30 1832 H 165.396 -1.16102 -5.37401 0
M  V30 1833 H 166.621 -1.36097 -6.65323 0
M  V30 1834 H 164.567 0.877884 -6.50099 0
M  V30 1835 H 164.484 -0.504433 -7.54315 0
M  V30 1836 H 165.752 0.663537 -7.76671 0
M  V30 1837 N 169.982 1.44106 -0.638065 0
M  V30 1838 C 171.228 2.02277 -0.145546 0
M  V30 1839 C 171.561 1.50125 1.23191 0
M  V30 1840 O 170.836 0.688133 1.8192 0
M  V30 1841 C 171.119 3.59829 -0.139791 0
M  V30 1842 C 170.972 4.22247 -1.55008 0
M  V30 1843 C 172.291 4.36873 0.531966 0
M  V30 1844 H 169.41 0.734992 -0.0543632 0
M  V30 1845 H 172.052 1.71592 -0.815863 0
M  V30 1846 H 170.202 3.86102 0.431007 0
M  V30 1847 H 171.874 4.07057 -2.1703 0
M  V30 1848 H 170.117 3.79476 -2.10191 0
M  V30 1849 H 170.788 5.31284 -1.49804 0
M  V30 1850 H 173.264 4.16074 0.0464781 0
M  V30 1851 H 172.14 5.4657 0.505206 0
M  V30 1852 H 172.401 4.11995 1.60352 0
M  V30 1853 N 171.46 0.379036 1.52974 0
M  V30 1854 C 172.707 -0.206421 2.01445 0
M  V30 1855 C 173.035 -1.47668 1.26587 0
M  V30 1856 O 172.29 -1.92514 0.351675 0
M  V30 1857 C 172.589 -0.53096 3.53434 0
M  V30 1858 C 172.255 0.646546 4.46241 0
M  V30 1859 C 170.917 0.969604 4.7133 0
M  V30 1860 C 173.269 1.43479 5.01062 0
M  V30 1861 C 170.597 2.08263 5.48492 0
M  V30 1862 C 172.949 2.53834 5.7944 0
M  V30 1863 C 171.613 2.86659 6.02812 0
M  V30 1864 H 170.883 -0.0755349 0.73714 0
M  V30 1865 H 173.53 0.514271 1.84465 0
M  V30 1866 H 171.835 -1.33285 3.68432 0
M  V30 1867 H 173.532 -0.996417 3.88423 0
M  V30 1868 H 170.122 0.384734 4.2687 0
M  V30 1869 H 174.306 1.19844 4.81613 0
M  V30 1870 H 169.562 2.34078 5.64816 0
M  V30 1871 H 173.736 3.15319 6.20924 0
M  V30 1872 H 171.363 3.73026 6.62387 0
M  V30 1873 N 172.938 -1.57226 0.108567 0
M  V30 1874 C 174.168 -1.9889 -0.559142 0
M  V30 1875 C 174.576 -0.986889 -1.61422 0
M  V30 1876 O 173.919 0.0298705 -1.83676 0
M  V30 1877 C 173.981 -3.36952 -1.25315 0
M  V30 1878 C 173.645 -4.55679 -0.347248 0
M  V30 1879 C 174.642 -5.18281 0.409996 0
M  V30 1880 C 172.327 -5.0162 -0.261367 0
M  V30 1881 C 174.321 -6.25203 1.24096 0
M  V30 1882 C 172.008 -6.08405 0.573238 0
M  V30 1883 C 173.006 -6.70063 1.32304 0
M  V30 1884 O 172.694 -7.74788 2.14381 0
M  V30 1885 H 172.426 -0.658343 -0.153492 0
M  V30 1886 H 174.98 -2.04532 0.188584 0
M  V30 1887 H 173.21 -3.28032 -2.04773 0
M  V30 1888 H 174.899 -3.62974 -1.81673 0
M  V30 1889 H 175.665 -4.8371 0.353457 0
M  V30 1890 H 171.544 -4.53381 -0.834656 0
M  V30 1891 H 175.088 -6.73259 1.82669 0
M  V30 1892 H 170.985 -6.42406 0.631208 0
M  V30 1893 H 171.753 -7.91837 2.07209 0
M  V30 1894 N 174.416 0.165178 -1.56732 0
M  V30 1895 C 175.346 1.20651 -1.99914 0
M  V30 1896 C 176.327 1.45827 -0.875705 0
M  V30 1897 O 177.512 1.57057 -1.14223 0
M  V30 1898 C 174.642 2.54401 -2.36427 0
M  V30 1899 C 173.596 2.43782 -3.51787 0
M  V30 1900 C 172.922 3.82078 -3.7406 0
M  V30 1901 C 174.222 1.93732 -4.85041 0
M  V30 1902 H 175.916 0.847534 -2.87154 0
M  V30 1903 H 173.462 0.40625 -1.38151 0
M  V30 1904 H 175.415 3.27458 -2.65234 0
M  V30 1905 H 174.139 2.92098 -1.46103 0
M  V30 1906 H 172.798 1.73178 -3.23117 0
M  V30 1907 H 172.446 4.17179 -2.81017 0
M  V30 1908 H 172.146 3.7584 -4.51684 0
M  V30 1909 H 173.67 4.56712 -4.05274 0
M  V30 1910 H 175.084 2.56569 -5.12684 0
M  V30 1911 H 173.481 1.98428 -5.66345 0
M  V30 1912 H 174.551 0.891962 -4.76626 0
M  V30 1913 N 175.894 1.51508 0.433938 0
M  V30 1914 C 176.841 1.73068 1.52696 0
M  V30 1915 C 177.811 0.572441 1.55924 0
M  V30 1916 O 178.996 0.807253 1.72882 0
M  V30 1917 C 176.136 1.86474 2.90381 0
M  V30 1918 C 175.249 3.14037 2.96656 0
M  V30 1919 C 174.384 3.18019 4.25485 0
M  V30 1920 C 173.423 4.39882 4.2564 0
M  V30 1921 N 172.56 4.41394 5.45999 0
M  V30 1922 H 177.4 2.66366 1.33615 0
M  V30 1923 H 174.937 1.32008 0.649018 0
M  V30 1924 H 176.895 1.92229 3.70275 0
M  V30 1925 H 175.525 0.965809 3.08013 0
M  V30 1926 H 174.577 3.17575 2.09404 0
M  V30 1927 H 175.889 4.0394 2.92633 0
M  V30 1928 H 175.043 3.22708 5.13755 0
M  V30 1929 H 173.782 2.2601 4.3217 0
M  V30 1930 H 172.787 4.35366 3.35763 0
M  V30 1931 H 174.012 5.33159 4.20617 0
M  V30 1932 H 171.958 3.52258 5.53399 0
M  V30 1933 H 171.875 5.25111 5.4387 0
M  V30 1934 H 173.143 4.50281 6.36292 0
M  V30 1935 N 177.372 -0.689602 1.41712 0
M  V30 1936 C 178.305 -1.81403 1.3845 0
M  V30 1937 C 179.283 -1.60653 0.250874 0
M  V30 1938 O 180.467 -1.83323 0.43874 0
M  V30 1939 C 177.594 -3.18176 1.1611 0
M  V30 1940 C 176.64 -3.57705 2.3227 0
M  V30 1941 S 177.473 -3.61827 3.94767 0
M  V30 1942 C 178.629 -5.01318 3.74742 0
M  V30 1943 H 178.862 -1.83893 2.33603 0
M  V30 1944 H 176.395 -0.858878 1.28307 0
M  V30 1945 H 178.353 -3.97132 1.03907 0
M  V30 1946 H 177.014 -3.13288 0.225668 0
M  V30 1947 H 176.207 -4.57082 2.12349 0
M  V30 1948 H 175.809 -2.86073 2.40911 0
M  V30 1949 H 178.101 -5.88986 3.34817 0
M  V30 1950 H 179.044 -5.26283 4.73743 0
M  V30 1951 H 179.452 -4.73138 3.07898 0
M  V30 1952 N 178.85 -1.27639 -0.924453 0
M  V30 1953 C 179.797 -1.10644 -2.0255 0
M  V30 1954 C 180.767 -0.00658438 -1.66099 0
M  V30 1955 O 181.952 -0.16952 -1.90045 0
M  V30 1956 C 179.092 -0.76309 -3.36557 0
M  V30 1957 C 178.205 -1.94091 -3.85944 0
M  V30 1958 C 177.34 -1.53914 -5.08413 0
M  V30 1959 C 176.379 -2.68425 -5.50104 0
M  V30 1960 N 175.516 -2.28815 -6.63768 0
M  V30 1961 H 180.356 -2.04858 -2.16419 0
M  V30 1962 H 177.893 -1.01974 -1.06017 0
M  V30 1963 H 179.851 -0.544822 -4.13627 0
M  V30 1964 H 178.481 0.142102 -3.22487 0
M  V30 1965 H 177.533 -2.27162 -3.05125 0
M  V30 1966 H 178.845 -2.7998 -4.12811 0
M  V30 1967 H 177.999 -1.28231 -5.92994 0
M  V30 1968 H 176.738 -0.651391 -4.8333 0
M  V30 1969 H 175.743 -2.94819 -4.64071 0
M  V30 1970 H 176.968 -3.57826 -5.7718 0
M  V30 1971 H 174.914 -1.42495 -6.40337 0
M  V30 1972 H 174.831 -3.08242 -6.90306 0
M  V30 1973 H 176.099 -2.06387 -7.51681 0
M  V30 1974 N 180.328 1.1314 -1.09713 0
M  V30 1975 C 181.576 1.84119 -0.833338 0
M  V30 1976 C 181.897 1.84097 0.642904 0
M  V30 1977 O 181.167 1.29881 1.46655 0
M  V30 1978 H 179.747 0.681766 -0.305293 0
M  V30 1979 H 182.409 1.37038 -1.38588 0
M  V30 1980 H 181.505 2.88543 -1.18951 0
M  V30 1981 N 181.806 0.884767 1.30421 0
M  V30 1982 C 183.083 0.423185 1.90967 0
M  V30 1983 C 183.463 -1.09605 1.80416 0
M  V30 1984 O 182.811 -1.93126 1.22125 0
M  V30 1985 C 183.021 0.921056 3.36627 0
M  V30 1986 C 184.369 0.955903 4.137 0
M  V30 1987 O 185.393 0.867706 3.4547 0
M  V30 1988 O 184.252 1.08614 5.35598 0
M  V30 1989 H 181.346 0.129369 0.816819 0
M  V30 1990 H 183.892 0.973653 1.3899 0
M  V30 1991 H 182.664 1.96489 3.3839 0
M  V30 1992 H 182.287 0.349741 3.96059 0
M  V30 1993 N 183.284 -1.43765 0.645699 0
M  V30 1994 C 184.514 -2.05953 0.163318 0
M  V30 1995 C 184.922 -1.48432 -1.17322 0
M  V30 1996 O 184.265 -0.607295 -1.73371 0
M  V30 1997 C 184.327 -3.59499 -0.0103065 0
M  V30 1998 C 183.991 -4.39563 1.25035 0
M  V30 1999 C 184.988 -4.72108 2.17739 0
M  V30 2000 C 182.673 -4.79697 1.48983 0
M  V30 2001 C 184.667 -5.43688 3.3269 0
M  V30 2002 C 182.354 -5.51023 2.64229 0
M  V30 2003 C 183.352 -5.8294 3.55908 0
M  V30 2004 O 183.04 -6.5281 4.69142 0
M  V30 2005 H 182.772 -0.670798 0.0836986 0
M  V30 2006 H 185.326 -1.85384 0.884407 0
M  V30 2007 H 183.556 -3.78613 -0.78669 0
M  V30 2008 H 185.245 -4.03408 -0.449087 0
M  V30 2009 H 186.011 -4.41627 2.00476 0
M  V30 2010 H 181.89 -4.54266 0.785078 0
M  V30 2011 H 185.434 -5.68517 4.04269 0
M  V30 2012 H 181.331 -5.8092 2.81429 0
M  V30 2013 H 182.099 -6.71288 4.6831 0
M  V30 2014 N 184.763 -0.387143 -1.52771 0
M  V30 2015 C 185.993 0.195585 -2.05672 0
M  V30 2016 C 186.401 1.41241 -1.25887 0
M  V30 2017 O 185.744 1.81265 -0.298081 0
M  V30 2018 C 185.806 0.632327 -3.53895 0
M  V30 2019 C 185.47 -0.470739 -4.54569 0
M  V30 2020 C 186.467 -1.32746 -5.02667 0
M  V30 2021 C 184.152 -0.637151 -4.98243 0
M  V30 2022 C 186.146 -2.33574 -5.93061 0
M  V30 2023 C 183.833 -1.64877 -5.88438 0
M  V30 2024 C 184.831 -2.49649 -6.35739 0
M  V30 2025 O 184.519 -3.49082 -7.24153 0
M  V30 2026 H 184.251 0.033658 -0.675162 0
M  V30 2027 H 186.805 -0.550221 -1.97893 0
M  V30 2028 H 185.035 1.43008 -3.59285 0
M  V30 2029 H 186.724 1.14048 -3.89548 0
M  V30 2030 H 187.49 -1.21019 -4.69659 0
M  V30 2031 H 183.369 0.0129567 -4.60998 0
M  V30 2032 H 186.913 -2.99777 -6.29904 0
M  V30 2033 H 182.81 -1.76643 -6.2086 0
M  V30 2034 H 183.578 -3.45065 -7.42208 0
M  V30 2035 N 186.241 1.57166 -0.116904 0
M  V30 2036 C 187.657 1.5779 0.239693 0
M  V30 2037 C 187.857 1.1295 1.66867 0
M  V30 2038 O 186.913 0.81592 2.38954 0
M  V30 2039 C 188.226 3.00699 0.00828202 0
M  V30 2040 C 189.774 3.12912 0.0743438 0
M  V30 2041 C 190.249 4.57817 -0.129348 0
M  V30 2042 N 191.74 4.63139 -0.075247 0
M  V30 2043 C 192.475 5.73023 -0.207788 0
M  V30 2044 N 191.971 6.91665 -0.396382 0
M  V30 2045 N 193.764 5.61906 -0.14751 0
M  V30 2046 H 185.915 1.84615 -1.05029 0
M  V30 2047 H 188.178 0.85311 -0.41341 0
M  V30 2048 H 187.884 3.37784 -0.979531 0
M  V30 2049 H 187.758 3.69848 0.741077 0
M  V30 2050 H 190.145 2.75686 1.05268 0
M  V30 2051 H 190.226 2.4631 -0.690297 0
M  V30 2052 H 189.87 4.95742 -1.10465 0
M  V30 2053 H 189.8 5.22507 0.655253 0
M  V30 2054 H 192.291 3.7784 0.0670898 0
M  V30 2055 H 192.604 7.71255 -0.488437 0
M  V30 2056 H 190.949 6.93654 -0.432329 0
M  V30 2057 H 194.14 4.681 -0.00115036 0
M  V30 2058 H 194.313 6.47501 -0.254247 0
M  V30 2059 N 187.719 -0.156864 1.56817 0
M  V30 2060 C 188.949 -0.885031 1.86684 0
M  V30 2061 C 189.357 -1.75696 0.701954 0
M  V30 2062 O 188.7 -1.80569 -0.337732 0
M  V30 2063 C 188.762 -1.80092 3.11138 0
M  V30 2064 C 188.426 -1.10714 4.43386 0
M  V30 2065 C 189.423 -0.465714 5.1781 0
M  V30 2066 C 187.108 -1.09959 4.90117 0
M  V30 2067 C 189.102 0.174002 6.37162 0
M  V30 2068 C 186.789 -0.456055 6.09396 0
M  V30 2069 C 187.787 0.179622 6.82764 0
M  V30 2070 O 187.475 0.812975 7.99779 0
M  V30 2071 H 187.207 -0.261813 0.623242 0
M  V30 2072 H 189.761 -0.157383 2.04796 0
M  V30 2073 H 187.991 -2.56926 2.89009 0
M  V30 2074 H 189.68 -2.40018 3.27332 0
M  V30 2075 H 190.446 -0.463427 4.82781 0
M  V30 2076 H 186.325 -1.58378 4.3294 0
M  V30 2077 H 189.869 0.670765 6.94368 0
M  V30 2078 H 185.766 -0.455975 6.43888 0
M  V30 2079 H 186.534 0.71366 8.15383 0
M  V30 2080 N 189.197 -1.51736 -0.425897 0
M  V30 2081 C 190.127 -1.76827 -1.52494 0
M  V30 2082 C 191.108 -0.618524 -1.58456 0
M  V30 2083 O 192.293 -0.862416 -1.74 0
M  V30 2084 C 189.423 -1.90374 -2.90474 0
M  V30 2085 C 188.377 -3.0588 -2.99369 0
M  V30 2086 C 187.703 -3.04625 -4.3944 0
M  V30 2087 C 189.003 -4.45644 -2.72394 0
M  V30 2088 H 190.697 -2.68855 -1.31748 0
M  V30 2089 H 188.243 -1.29372 -0.632362 0
M  V30 2090 H 190.196 -2.0651 -3.6733 0
M  V30 2091 H 188.92 -0.95004 -3.12477 0
M  V30 2092 H 187.579 -2.89467 -2.24954 0
M  V30 2093 H 187.227 -2.0701 -4.58428 0
M  V30 2094 H 186.927 -3.82195 -4.46319 0
M  V30 2095 H 188.451 -3.22869 -5.18255 0
M  V30 2096 H 189.865 -4.62348 -3.38979 0
M  V30 2097 H 188.262 -5.25006 -2.9067 0
M  V30 2098 H 189.332 -4.54893 -1.67929 0
M  V30 2099 N 190.675 0.682077 -1.42076 0
M  V30 2100 C 191.638 1.77756 -1.44691 0
M  V30 2101 C 192.638 1.5726 -0.335535 0
M  V30 2102 O 193.828 1.63686 -0.596037 0
M  V30 2103 C 190.96 3.16301 -1.27146 0
M  V30 2104 H 192.153 1.76826 -2.42224 0
M  V30 2105 H 189.706 0.891012 -1.28416 0
M  V30 2106 H 190.441 3.22862 -0.305075 0
M  V30 2107 H 190.226 3.32581 -2.07683 0
M  V30 2108 H 191.716 3.96241 -1.31843 0
M  V30 2109 N 192.153 1.28127 0.917671 0
M  V30 2110 C 193.063 1.13556 2.05286 0
M  V30 2111 C 194.079 0.0630914 1.73886 0
M  V30 2112 O 195.255 0.271598 1.9956 0
M  V30 2113 C 192.32 0.794676 3.3747 0
M  V30 2114 C 191.381 1.94909 3.82504 0
M  V30 2115 C 190.614 1.62437 5.0838 0
M  V30 2116 O 190.837 0.536905 5.67867 0
M  V30 2117 O 189.771 2.46677 5.4903 0
M  V30 2118 H 193.597 2.08844 2.20495 0
M  V30 2119 H 191.182 1.07409 1.03845 0
M  V30 2120 H 193.064 0.618344 4.16839 0
M  V30 2121 H 191.739 -0.128581 3.23445 0
M  V30 2122 H 190.646 2.18055 3.03978 0
M  V30 2123 H 191.979 2.85291 4.01086 0
M  V30 2124 N 193.631 -1.12557 1.10312 0
M  V30 2125 C 194.877 -1.84311 0.846011 0
M  V30 2126 C 195.21 -1.83805 -0.626859 0
M  V30 2127 O 194.485 -1.28268 -1.46211 0
M  V30 2128 C 194.768 -3.32048 1.39341 0
M  V30 2129 C 194.621 -3.41016 2.93305 0
M  V30 2130 C 195.94 -4.27764 1.03468 0
M  V30 2131 H 193.059 -0.669192 0.30879 0
M  V30 2132 H 195.701 -1.32057 1.36605 0
M  V30 2133 H 193.851 -3.76678 0.951087 0
M  V30 2134 H 195.523 -3.05031 3.46055 0
M  V30 2135 H 193.766 -2.81603 3.29973 0
M  V30 2136 H 194.437 -4.44948 3.26689 0
M  V30 2137 H 196.913 -3.91253 1.41633 0
M  V30 2138 H 195.789 -5.29549 1.44463 0
M  V30 2139 H 196.05 -4.42064 -0.0560404 0
M  V30 2140 N 195.109 -0.891671 -1.2995 0
M  V30 2141 C 196.072 -0.36828 -2.26222 0
M  V30 2142 C 197.072 0.493014 -1.53056 0
M  V30 2143 O 198.262 0.299213 -1.71611 0
M  V30 2144 C 195.394 0.47442 -3.37583 0
M  V30 2145 H 196.587 -1.21844 -2.74033 0
M  V30 2146 H 194.14 -0.669107 -1.41254 0
M  V30 2147 H 194.875 1.34489 -2.95099 0
M  V30 2148 H 194.66 -0.142615 -3.91841 0
M  V30 2149 H 196.15 0.83218 -4.09224 0
M  V30 2150 N 196.587 1.43421 -0.653314 0
M  V30 2151 C 197.55 2.29182 0.0287951 0
M  V30 2152 C 198.55 1.42213 0.750465 0
M  V30 2153 O 199.74 1.63843 0.591701 0
M  V30 2154 C 196.872 3.24278 1.05151 0
M  V30 2155 H 198.065 2.90985 -0.725786 0
M  V30 2156 H 195.618 1.50702 -0.414545 0
M  V30 2157 H 196.353 2.6737 1.83532 0
M  V30 2158 H 196.138 3.88396 0.537687 0
M  V30 2159 H 197.628 3.88647 1.52786 0
M  V30 2160 N 198.065 0.39524 1.52563 0
M  V30 2161 C 199.313 -0.184678 2.01254 0
M  V30 2162 C 199.634 -1.46822 1.28329 0
M  V30 2163 O 198.904 -1.91666 0.405094 0
M  V30 2164 H 197.484 -0.0712355 0.743596 0
M  V30 2165 H 200.146 0.528293 1.87603 0
M  V30 2166 H 199.242 -0.390681 3.09645 0
M  V30 2167 N 199.544 -1.57102 0.125237 0
M  V30 2168 C 200.821 -1.86953 -0.575142 0
M  V30 2169 C 201.201 -1.02749 -1.84407 0
M  V30 2170 O 200.549 -0.108144 -2.28244 0
M  V30 2171 C 200.759 -3.38198 -0.861583 0
M  V30 2172 C 202.107 -4.06937 -1.21192 0
M  V30 2173 O 203.131 -3.43252 -0.951645 0
M  V30 2174 O 201.99 -5.19364 -1.70068 0
M  V30 2175 H 199.084 -0.774147 -0.290906 0
M  V30 2176 H 201.63 -1.68942 0.160211 0
M  V30 2177 H 200.402 -3.91282 0.0373647 0
M  V30 2178 H 200.025 -3.61661 -1.65188 0
M  V30 2179 N 201.022 0.148545 -1.56898 0
M  V30 2180 C 202.299 0.890019 -1.74178 0
M  V30 2181 C 202.679 1.99407 -0.692839 0
M  V30 2182 O 202.027 2.26671 0.288505 0
M  V30 2183 C 202.237 1.43389 -3.18183 0
M  V30 2184 C 203.585 1.89791 -3.79822 0
M  V30 2185 O 204.609 1.53134 -3.21603 0
M  V30 2186 O 203.468 2.57387 -4.82093 0
M  V30 2187 H 200.562 0.420496 -0.712118 0
M  V30 2188 H 203.108 0.134591 -1.69165 0
M  V30 2189 H 201.88 0.640383 -3.86024 0
M  V30 2190 H 201.503 2.25287 -3.27615 0
M  V30 2191 N 202.5 1.5196 0.417844 0
M  V30 2192 C 203.447 1.74678 1.50852 0
M  V30 2193 C 204.417 0.588947 1.55308 0
M  V30 2194 O 205.602 0.825544 1.72016 0
M  V30 2195 C 202.742 1.89544 2.88387 0
M  V30 2196 C 201.855 3.17166 2.93309 0
M  V30 2197 C 200.99 3.22513 4.22088 0
M  V30 2198 C 200.029 4.44372 4.20951 0
M  V30 2199 N 199.166 4.47161 5.41287 0
M  V30 2200 H 204.006 2.67768 1.30783 0
M  V30 2201 H 201.543 1.32689 0.63498 0
M  V30 2202 H 203.501 1.96146 3.68216 0
M  V30 2203 H 202.131 0.998424 3.06971 0
M  V30 2204 H 201.183 3.19778 2.06024 0
M  V30 2205 H 202.495 4.07021 2.88332 0
M  V30 2206 H 201.649 3.28139 5.10303 0
M  V30 2207 H 200.388 2.30581 4.29748 0
M  V30 2208 H 199.393 4.38902 3.31127 0
M  V30 2209 H 200.618 5.3759 4.14938 0
M  V30 2210 H 198.564 3.58108 5.49632 0
M  V30 2211 H 198.481 5.3085 5.3827 0
M  V30 2212 H 199.749 4.57005 6.3148 0
M  V30 2213 N 203.978 -0.674533 1.42435 0
M  V30 2214 C 204.925 -1.78807 1.45934 0
M  V30 2215 C 205.895 -1.63157 0.311271 0
M  V30 2216 O 207.08 -1.83707 0.515383 0
M  V30 2217 C 204.22 -3.16839 1.36773 0
M  V30 2218 C 203.333 -3.43774 2.61617 0
M  V30 2219 C 202.468 -4.71536 2.44597 0
M  V30 2220 C 201.507 -4.91505 3.64814 0
M  V30 2221 N 200.644 -6.10508 3.46734 0
M  V30 2222 H 205.484 -1.75151 2.41093 0
M  V30 2223 H 203.021 -0.85504 1.19697 0
M  V30 2224 H 204.979 -3.96606 1.29459 0
M  V30 2225 H 203.609 -3.19619 0.452089 0
M  V30 2226 H 202.661 -2.58259 2.79297 0
M  V30 2227 H 203.973 -3.54423 3.50978 0
M  V30 2228 H 203.127 -5.59393 2.3487 0
M  V30 2229 H 201.866 -4.6317 1.52726 0
M  V30 2230 H 200.871 -4.0209 3.74972 0
M  V30 2231 H 202.096 -5.01716 4.57665 0
M  V30 2232 H 200.042 -6.03315 2.5758 0
M  V30 2233 H 199.959 -6.2202 4.29682 0
M  V30 2234 H 201.227 -7.01044 3.40819 0
M  V30 2235 N 205.456 -1.28612 -0.910864 0
M  V30 2236 C 206.704 -1.15705 -1.65701 0
M  V30 2237 C 207.025 0.29416 -1.92769 0
M  V30 2238 O 206.295 1.20331 -1.54588 0
M  V30 2239 H 204.875 -0.425216 -0.614167 0
M  V30 2240 H 207.537 -1.61381 -1.0928 0
M  V30 2241 H 206.633 -1.6988 -2.61815 0
M  V30 2242 N 206.934 1.1197 -1.10907 0
M  V30 2243 C 208.183 1.82947 -0.849302 0
M  V30 2244 C 208.496 1.85275 0.627112 0
M  V30 2245 O 209.702 2.52296 1.00295 0
M  V30 2246 C 208.158 3.28529 -1.46959 0
M  V30 2247 C 207.766 3.34546 -2.97965 0
M  V30 2248 C 209.51 4.04443 -1.28942 0
M  V30 2249 C 207.417 4.74491 -3.53004 0
M  V30 2250 H 206.347 0.685477 -0.314065 0
M  V30 2251 H 208.998 1.2604 -1.33365 0
M  V30 2252 H 207.38 3.85333 -0.912917 0
M  V30 2253 H 208.554 2.87654 -3.59989 0
M  V30 2254 H 206.869 2.72108 -3.15192 0
M  V30 2255 H 209.466 5.07787 -1.67502 0
M  V30 2256 H 209.809 4.15656 -0.231456 0
M  V30 2257 H 210.342 3.5401 -1.81443 0
M  V30 2258 H 207.081 4.68474 -4.58489 0
M  V30 2259 H 206.601 5.21816 -2.9575 0
M  V30 2260 H 208.28 5.4344 -3.51115 0
M  V30 2261 N 208.412 0.89855 1.29475 0
M  V30 2262 C 209.658 0.524658 1.95896 0
M  V30 2263 C 209.991 -0.926468 1.70676 0
M  V30 2264 O 209.266 -1.65665 1.01908 0
M  V30 2265 C 209.549 0.81633 3.50725 0
M  V30 2266 C 209.402 2.31907 3.85408 0
M  V30 2267 C 210.721 0.302038 4.39062 0
M  V30 2268 H 207.84 0.19209 0.711527 0
M  V30 2269 H 210.482 1.12502 1.53112 0
M  V30 2270 H 208.632 0.305369 3.87298 0
M  V30 2271 H 210.304 2.89949 3.58786 0
M  V30 2272 H 208.547 2.78027 3.32992 0
M  V30 2273 H 209.218 2.47373 4.93468 0
M  V30 2274 H 211.694 0.739551 4.09475 0
M  V30 2275 H 210.57 0.535331 5.46283 0
M  V30 2276 H 210.831 -0.797216 4.34853 0
M  V30 2277 N 209.89 -1.43072 0.660911 0
M  V30 2278 C 211.167 -1.95307 0.107017 0
M  V30 2279 C 211.547 -1.60192 -1.37484 0
M  V30 2280 O 210.895 -0.890949 -2.10415 0
M  V30 2281 C 211.105 -3.47124 0.361402 0
M  V30 2282 C 212.453 -4.23738 0.270455 0
M  V30 2283 O 213.477 -3.54981 0.294382 0
M  V30 2284 O 212.336 -5.46131 0.200737 0
M  V30 2285 H 209.43 -0.826984 -0.00517729 0
M  V30 2286 H 211.976 -1.52972 0.734681 0
M  V30 2287 H 210.748 -3.65837 1.38848 0
M  V30 2288 H 210.371 -3.96475 -0.298953 0
M  V30 2289 N 211.368 -0.403325 -1.52352 0
M  V30 2290 C 212.3 0.4603 -2.2453 0
M  V30 2291 C 213.313 1.01505 -1.27282 0
M  V30 2292 O 214.502 0.914982 -1.53266 0
M  V30 2293 C 211.602 1.65208 -2.95905 0
M  V30 2294 C 210.775 1.22224 -4.19976 0
M  V30 2295 C 209.834 2.28028 -4.74226 0
M  V30 2296 O 208.86 1.88857 -5.36956 0
M  V30 2297 N 210.062 3.6012 -4.55295 0
M  V30 2298 H 212.827 -0.158156 -2.99282 0
M  V30 2299 H 210.388 -0.230402 -1.60252 0
M  V30 2300 H 212.38 2.35541 -3.29093 0
M  V30 2301 H 210.95 2.17658 -2.24374 0
M  V30 2302 H 210.17 0.34725 -3.92668 0
M  V30 2303 H 211.458 0.911924 -5.00561 0
M  V30 2304 H 210.856 3.94698 -4.05253 0
M  V30 2305 H 209.413 4.26447 -4.92936 0
M  V30 2306 N 212.846 1.57033 -0.133567 0
M  V30 2307 C 214.071 2.00475 0.531477 0
M  V30 2308 C 214.496 1.01291 1.58499 0
M  V30 2309 O 213.854 -0.0133279 1.81295 0
M  V30 2310 C 213.902 3.42729 1.12113 0
M  V30 2311 O 213.006 3.46498 2.23636 0
M  V30 2312 H 212.347 0.650876 0.131362 0
M  V30 2313 H 214.877 2.03344 -0.22634 0
M  V30 2314 H 214.887 3.81246 1.4531 0
M  V30 2315 H 213.562 4.14428 0.349557 0
M  V30 2316 H 212.139 3.19811 1.91769 0
M  V30 2317 N 214.325 -0.140222 1.56975 0
M  V30 2318 C 215.257 -1.19818 1.95388 0
M  V30 2319 C 216.27 -1.38816 0.850525 0
M  V30 2320 O 217.459 -1.38267 1.12891 0
M  V30 2321 C 214.559 -2.56189 2.21857 0
M  V30 2322 C 213.732 -2.58077 3.5315 0
M  V30 2323 C 212.791 -3.76037 3.6808 0
M  V30 2324 O 211.817 -3.60598 4.40406 0
M  V30 2325 N 213.019 -4.93763 3.05251 0
M  V30 2326 H 215.784 -0.871609 2.86746 0
M  V30 2327 H 213.345 -0.32972 1.58507 0
M  V30 2328 H 215.337 -3.33623 2.2908 0
M  V30 2329 H 213.907 -2.81111 1.36731 0
M  V30 2330 H 213.127 -1.6651 3.57307 0
M  V30 2331 H 214.415 -2.56377 4.39486 0
M  V30 2332 H 213.813 -5.09209 2.46419 0
M  V30 2333 H 212.37 -5.68949 3.18026 0
M  V30 2334 N 215.803 -1.52179 -0.40978 0
M  V30 2335 C 216.735 -1.71703 -1.51825 0
M  V30 2336 C 217.748 -0.597445 -1.51441 0
M  V30 2337 O 218.937 -0.872582 -1.55719 0
M  V30 2338 C 216.037 -1.74171 -2.90719 0
M  V30 2339 C 215.21 -3.03156 -3.15302 0
M  V30 2340 C 214.269 -2.97445 -4.34065 0
M  V30 2341 O 213.295 -3.71352 -4.31377 0
M  V30 2342 N 214.497 -2.15191 -5.39141 0
M  V30 2343 H 217.262 -2.67334 -1.35472 0
M  V30 2344 H 214.823 -1.50409 -0.599069 0
M  V30 2345 H 216.815 -1.67884 -3.68235 0
M  V30 2346 H 215.385 -0.860166 -3.00533 0
M  V30 2347 H 214.605 -3.23097 -2.25836 0
M  V30 2348 H 215.893 -3.88484 -3.28569 0
M  V30 2349 H 215.291 -1.54573 -5.44173 0
M  V30 2350 H 213.848 -2.1476 -6.15403 0
M  V30 2351 N 217.281 0.66697 -1.42791 0
M  V30 2352 C 218.244 1.76211 -1.46568 0
M  V30 2353 C 219.244 1.56896 -0.352196 0
M  V30 2354 O 220.434 1.63044 -0.613364 0
M  V30 2355 C 217.566 3.14935 -1.30494 0
M  V30 2356 H 218.759 1.74247 -2.44086 0
M  V30 2357 H 216.312 0.877342 -1.29354 0
M  V30 2358 H 217.047 3.2252 -0.339301 0
M  V30 2359 H 216.832 3.30359 -2.11199 0
M  V30 2360 H 218.322 3.94821 -1.36038 0
M  V30 2361 N 218.759 1.29093 0.90403 0
M  V30 2362 C 219.989 1.19516 1.68522 0
M  V30 2363 C 220.397 -0.24738 1.87576 0
M  V30 2364 O 219.74 -1.17798 1.40959 0
M  V30 2365 C 219.802 1.83249 3.0929 0
M  V30 2366 C 219.466 3.32531 3.13484 0
M  V30 2367 C 220.463 4.28821 2.93953 0
M  V30 2368 C 218.148 3.73656 3.35688 0
M  V30 2369 C 220.142 5.64212 2.96553 0
M  V30 2370 C 217.829 5.0917 3.37919 0
M  V30 2371 C 218.827 6.04258 3.18373 0
M  V30 2372 O 218.515 7.37298 3.20385 0
M  V30 2373 H 218.247 0.415467 0.533257 0
M  V30 2374 H 220.801 1.70912 1.13922 0
M  V30 2375 H 219.031 1.26358 3.65473 0
M  V30 2376 H 220.72 1.68054 3.69476 0
M  V30 2377 H 221.486 3.98382 2.76616 0
M  V30 2378 H 217.365 3.00101 3.49943 0
M  V30 2379 H 220.909 6.38407 2.81216 0
M  V30 2380 H 216.806 5.39256 3.54787 0
M  V30 2381 H 217.574 7.46048 3.36681 0
M  V30 2382 N 220.237 -1.11381 1.11499 0
M  V30 2383 C 221.169 -2.17207 0.731704 0
M  V30 2384 C 222.182 -1.61066 -0.236957 0
M  V30 2385 O 223.371 -1.78489 -0.0197591 0
M  V30 2386 C 220.471 -3.38846 0.0607624 0
M  V30 2387 C 219.644 -4.24451 1.0564 0
M  V30 2388 C 218.703 -5.24562 0.4149 0
M  V30 2389 O 217.729 -5.59071 1.069 0
M  V30 2390 N 218.931 -5.74651 -0.821943 0
M  V30 2391 H 221.696 -2.50699 1.64225 0
M  V30 2392 H 219.257 -1.26908 1.00529 0
M  V30 2393 H 221.249 -4.02911 -0.380139 0
M  V30 2394 H 219.819 -3.03411 -0.752376 0
M  V30 2395 H 219.039 -3.56833 1.67524 0
M  V30 2396 H 220.327 -4.78486 1.72998 0
M  V30 2397 H 219.725 -5.48797 -1.37252 0
M  V30 2398 H 218.282 -6.40549 -1.20582 0
M  V30 2399 N 221.715 -0.905404 -1.28997 0
M  V30 2400 C 222.625 -0.392246 -2.31298 0
M  V30 2401 C 223.641 0.515889 -1.66176 0
M  V30 2402 O 224.817 0.404093 -1.97304 0
M  V30 2403 C 221.882 0.36686 -3.44754 0
M  V30 2404 C 220.943 -0.573485 -4.25452 0
M  V30 2405 C 220.176 0.149488 -5.33491 0
M  V30 2406 O 220.399 1.37255 -5.5364 0
M  V30 2407 O 219.333 -0.510919 -5.99728 0
M  V30 2408 H 223.159 -1.2411 -2.77183 0
M  V30 2409 H 220.744 -0.669926 -1.33538 0
M  V30 2410 H 222.626 0.795907 -4.13816 0
M  V30 2411 H 221.301 1.19169 -3.00966 0
M  V30 2412 H 220.208 -1.05176 -3.59011 0
M  V30 2413 H 221.541 -1.36489 -4.72897 0
M  V30 2414 N 223.193 1.4272 -0.668489 0
M  V30 2415 C 224.156 2.292 0.00448567 0
M  V30 2416 C 225.156 1.43001 0.735339 0
M  V30 2417 O 226.346 1.64461 0.57429 0
M  V30 2418 C 223.478 3.25375 1.01705 0
M  V30 2419 H 224.671 2.90199 -0.756608 0
M  V30 2420 H 222.224 1.50254 -0.430506 0
M  V30 2421 H 222.959 2.69301 1.80686 0
M  V30 2422 H 222.744 3.88944 0.496463 0
M  V30 2423 H 224.234 3.90245 1.48655 0
M  V30 2424 N 224.671 0.411399 1.52136 0
M  V30 2425 C 225.918 -0.163645 2.01838 0
M  V30 2426 C 226.246 -1.4495 1.29691 0
M  V30 2427 O 225.501 -1.91725 0.392431 0
M  V30 2428 C 225.8 -0.455872 3.54481 0
M  V30 2429 C 225.466 0.741055 4.44769 0
M  V30 2430 C 224.128 1.06936 4.69167 0
M  V30 2431 C 226.48 1.54075 4.97906 0
M  V30 2432 C 223.808 2.19851 5.43951 0
M  V30 2433 C 226.16 2.66067 5.73926 0
M  V30 2434 C 224.824 2.99381 5.96596 0
M  V30 2435 H 224.094 -0.0598821 0.738576 0
M  V30 2436 H 226.741 0.553283 1.83333 0
M  V30 2437 H 225.046 -1.2544 3.71177 0
M  V30 2438 H 226.743 -0.913802 3.90449 0
M  V30 2439 H 223.333 0.475192 4.25958 0
M  V30 2440 H 227.517 1.30033 4.78963 0
M  V30 2441 H 222.773 2.46006 5.59724 0
M  V30 2442 H 226.947 3.28419 6.14096 0
M  V30 2443 H 224.574 3.86992 6.54325 0
M  V30 2444 N 226.149 -1.5696 0.141893 0
M  V30 2445 C 227.059 -2.20066 -0.812905 0
M  V30 2446 C 228.075 -1.18344 -1.27557 0
M  V30 2447 O 229.251 -1.50902 -1.33381 0
M  V30 2448 C 226.316 -2.80583 -2.03652 0
M  V30 2449 C 225.377 -3.97414 -1.62359 0
M  V30 2450 C 224.61 -4.55036 -2.78887 0
M  V30 2451 O 224.833 -4.11538 -3.94959 0
M  V30 2452 O 223.767 -5.45376 -2.54653 0
M  V30 2453 H 227.593 -3.02157 -0.305746 0
M  V30 2454 H 225.178 -1.49159 -0.0848799 0
M  V30 2455 H 227.06 -3.19067 -2.75272 0
M  V30 2456 H 225.735 -2.01508 -2.5333 0
M  V30 2457 H 224.642 -3.63656 -0.877775 0
M  V30 2458 H 225.975 -4.77994 -1.17401 0
M  V30 2459 N 227.627 0.131896 -1.57047 0
M  V30 2460 C 228.876 0.84044 -1.83356 0
M  V30 2461 C 229.189 1.81646 -0.725535 0
M  V30 2462 O 230.395 2.57025 -0.874659 0
M  V30 2463 C 228.851 1.54528 -3.25037 0
M  V30 2464 C 228.459 0.610902 -4.43815 0
M  V30 2465 C 230.203 2.23972 -3.60606 0
M  V30 2466 C 228.11 1.31823 -5.76521 0
M  V30 2467 H 227.04 0.317599 -0.683847 0
M  V30 2468 H 229.691 0.0931561 -1.83263 0
M  V30 2469 H 228.073 2.33873 -3.19561 0
M  V30 2470 H 229.247 -0.148407 -4.60561 0
M  V30 2471 H 227.562 0.0241016 -4.16393 0
M  V30 2472 H 230.159 2.77558 -4.57018 0
M  V30 2473 H 230.502 3.01173 -2.87403 0
M  V30 2474 H 231.035 1.51529 -3.6781 0
M  V30 2475 H 227.774 0.587771 -6.52859 0
M  V30 2476 H 227.294 2.04987 -5.63685 0
M  V30 2477 H 228.973 1.855 -6.19838 0
M  V30 2478 N 229.106 1.52395 0.401703 0
M  V30 2479 C 230.331 1.70972 1.17403 0
M  V30 2480 C 230.756 0.421615 1.83314 0
M  V30 2481 O 230.114 -0.621564 1.70312 0
M  V30 2482 C 230.162 2.85151 2.20728 0
M  V30 2483 O 229.266 2.51238 3.27037 0
M  V30 2484 H 228.607 0.568927 0.342372 0
M  V30 2485 H 231.137 1.99131 0.469891 0
M  V30 2486 H 231.147 3.10279 2.64936 0
M  V30 2487 H 229.822 3.78603 1.7214 0
M  V30 2488 H 228.399 2.36808 2.88057 0
M  V30 2489 N 230.584 -0.659388 1.43143 0
M  V30 2490 C 231.531 -1.77249 1.47822 0
M  V30 2491 C 232.501 -1.62818 0.328558 0
M  V30 2492 O 233.686 -1.83151 0.534838 0
M  V30 2493 C 230.826 -3.15371 1.40126 0
M  V30 2494 C 229.939 -3.4098 2.65249 0
M  V30 2495 C 229.074 -4.68915 2.49584 0
M  V30 2496 C 228.113 -4.87608 3.70006 0
M  V30 2497 N 227.25 -6.06796 3.53189 0
M  V30 2498 H 232.09 -1.72584 2.42938 0
M  V30 2499 H 229.627 -0.842297 1.20598 0
M  V30 2500 H 231.585 -3.9521 1.33659 0
M  V30 2501 H 230.215 -3.19121 0.485964 0
M  V30 2502 H 229.267 -2.55282 2.8202 0
M  V30 2503 H 230.579 -3.50681 3.54717 0
M  V30 2504 H 229.733 -5.56871 2.4079 0
M  V30 2505 H 228.472 -4.61524 1.5763 0
M  V30 2506 H 227.477 -3.9809 3.79215 0
M  V30 2507 H 228.702 -4.96834 4.62961 0
M  V30 2508 H 226.648 -6.00549 2.63965 0
M  V30 2509 H 226.565 -6.17428 4.36255 0
M  V30 2510 H 227.833 -6.9739 3.48236 0
M  V30 2511 N 232.062 -1.29571 -0.897171 0
M  V30 2512 C 233.009 -1.14916 -2.00158 0
M  V30 2513 C 233.979 -0.0418149 -1.66047 0
M  V30 2514 O 235.164 -0.209793 -1.89643 0
M  V30 2515 C 232.304 -0.834307 -3.34863 0
M  V30 2516 C 231.417 -2.02234 -3.8174 0
M  V30 2517 C 230.552 -1.64664 -5.05034 0
M  V30 2518 C 229.591 -2.80033 -5.44286 0
M  V30 2519 N 228.728 -2.42843 -6.58765 0
M  V30 2520 H 233.568 -2.09403 -2.12025 0
M  V30 2521 H 231.105 -1.042 -1.0383 0
M  V30 2522 H 233.063 -0.632436 -4.12379 0
M  V30 2523 H 231.693 0.0736656 -3.22716 0
M  V30 2524 H 230.745 -2.33583 -3.00238 0
M  V30 2525 H 232.057 -2.88673 -4.06779 0
M  V30 2526 H 231.211 -1.4078 -5.9014 0
M  V30 2527 H 229.95 -0.753766 -4.8184 0
M  V30 2528 H 228.955 -3.04596 -4.57713 0
M  V30 2529 H 230.18 -3.69989 -5.6946 0
M  V30 2530 H 228.126 -1.56046 -6.3717 0
M  V30 2531 H 228.043 -3.22815 -6.83613 0
M  V30 2532 H 229.311 -2.22285 -7.47134 0
M  V30 2533 N 233.54 1.10788 -1.12088 0
M  V30 2534 C 234.45 2.20599 -0.798338 0
M  V30 2535 C 235.466 1.72712 0.21135 0
M  V30 2536 O 236.642 2.01348 0.0458477 0
M  V30 2537 C 233.707 3.45771 -0.253674 0
M  V30 2538 C 232.768 4.08411 -1.32283 0
M  V30 2539 C 232.001 5.27608 -0.80406 0
M  V30 2540 O 232.224 5.69241 0.363478 0
M  V30 2541 O 231.158 5.8101 -1.57198 0
M  V30 2542 H 234.984 2.50614 -1.7154 0
M  V30 2543 H 232.569 1.19454 -0.897275 0
M  V30 2544 H 234.451 4.21376 0.0453691 0
M  V30 2545 H 233.126 3.1739 0.636005 0
M  V30 2546 H 232.033 3.34507 -1.67499 0
M  V30 2547 H 233.366 4.40986 -2.18614 0
M  V30 2548 N 235.018 0.912232 1.28515 0
M  V30 2549 C 235.951 0.343928 2.25593 0
M  V30 2550 C 236.929 -0.550994 1.5298 0
M  V30 2551 O 238.113 -0.494991 1.81885 0
M  V30 2552 C 235.24 -0.508525 3.34861 0
M  V30 2553 C 234.286 0.320808 4.25292 0
M  V30 2554 S 235.119 1.72658 5.06902 0
M  V30 2555 C 236.275 0.881394 6.19663 0
M  V30 2556 H 236.508 1.16674 2.73449 0
M  V30 2557 H 234.041 0.713384 1.36931 0
M  V30 2558 H 235.999 -0.994539 3.9827 0
M  V30 2559 H 234.66 -1.30571 2.85675 0
M  V30 2560 H 233.853 -0.330941 5.02912 0
M  V30 2561 H 233.455 0.74042 3.66598 0
M  V30 2562 H 235.747 0.110359 6.7741 0
M  V30 2563 H 236.69 1.63009 6.89082 0
M  V30 2564 H 237.098 0.430239 5.62858 0
M  V30 2565 N 236.496 -1.42363 0.676048 0
M  V30 2566 C 237.428 -2.29164 -0.0404605 0
M  V30 2567 C 238.441 -1.43747 -0.764245 0
M  V30 2568 O 239.63 -1.67453 -0.618195 0
M  V30 2569 C 236.73 -3.21196 -1.08103 0
M  V30 2570 C 235.903 -4.35273 -0.430812 0
M  V30 2571 C 234.962 -5.08017 -1.37133 0
M  V30 2572 O 233.988 -5.62494 -0.87116 0
M  V30 2573 N 235.19 -5.13647 -2.70456 0
M  V30 2574 H 237.955 -2.91298 0.704667 0
M  V30 2575 H 235.516 -1.53303 0.520559 0
M  V30 2576 H 237.508 -3.66728 -1.71152 0
M  V30 2577 H 236.078 -2.60505 -1.72788 0
M  V30 2578 H 235.298 -3.92372 0.379209 0
M  V30 2579 H 236.586 -5.08795 0.0221132 0
M  V30 2580 H 235.984 -4.708 -3.1363 0
M  V30 2581 H 234.541 -5.62821 -3.28749 0
M  V30 2582 N 237.974 -0.419461 -1.51915 0
M  V30 2583 C 239.385 0.0477853 -1.86639 0
M  V30 2584 C 239.736 1.43531 -1.33766 0
M  V30 2585 O 238.861 2.05401 -0.68113 0
M  V30 2586 C 239.456 0.0934885 -3.38671 0
M  V30 2587 C 238.015 0.505097 -3.72996 0
M  V30 2588 C 237.162 -0.313792 -2.75519 0
M  V30 2589 H 240.113 -0.636088 -1.45395 0
M  V30 2590 H 240.134 0.906667 -3.6954 0
M  V30 2591 H 239.646 -0.916501 -3.77123 0
M  V30 2592 H 237.747 1.52135 -3.40126 0
M  V30 2593 H 237.86 0.242309 -4.78487 0
M  V30 2594 H 236.224 0.225363 -2.53701 0
M  V30 2595 H 237.007 -1.32232 -3.16812 0
M  V30 2596 N 239.452 1.56882 -0.150215 0
M  V30 2597 C 240.68 2.00593 0.506948 0
M  V30 2598 C 241.095 1.03033 1.58208 0
M  V30 2599 O 240.452 0.0278396 1.82479 0
M  V30 2600 C 240.503 3.44209 1.10465 0
M  V30 2601 O 240.224 4.3804 0.0724636 0
M  V30 2602 C 241.725 4.03214 1.84211 0
M  V30 2603 H 238.945 0.65795 0.13169 0
M  V30 2604 H 241.489 2.03018 -0.245743 0
M  V30 2605 H 239.644 3.42625 1.80795 0
M  V30 2606 H 240.058 5.22007 0.510793 0
M  V30 2607 H 241.532 5.0569 2.21318 0
M  V30 2608 H 242.009 3.44107 2.72923 0
M  V30 2609 H 242.615 4.08437 1.18572 0
M  V30 2610 N 240.93 -0.123565 1.57115 0
M  V30 2611 C 241.88 -1.1575 1.96433 0
M  V30 2612 C 242.864 -1.37313 0.838686 0
M  V30 2613 O 244.056 -1.38482 1.10235 0
M  V30 2614 C 241.185 -2.48526 2.36833 0
M  V30 2615 C 240.271 -2.30457 3.5602 0
M  V30 2616 N 240.662 -1.8219 4.71848 0
M  V30 2617 C 238.96 -2.61129 3.61563 0
M  V30 2618 C 239.661 -1.77721 5.53886 0
M  V30 2619 N 238.637 -2.21899 4.96248 0
M  V30 2620 H 242.439 -0.776797 2.83449 0
M  V30 2621 H 239.953 -0.331364 1.58983 0
M  V30 2622 H 241.95 -3.233 2.63216 0
M  V30 2623 H 240.61 -2.87358 1.5118 0
M  V30 2624 H 241.621 -1.51805 4.95152 0
M  V30 2625 H 238.298 -3.03678 2.86507 0
M  V30 2626 H 239.688 -1.41697 6.56789 0
M  V30 2627 N 242.408 -1.52605 -0.393616 0
M  V30 2628 C 243.819 -1.59417 -0.971761 0
M  V30 2629 C 244.17 -0.444173 -1.91106 0
M  V30 2630 O 243.295 0.433382 -2.12016 0
M  V30 2631 C 243.89 -2.88936 -1.76921 0
M  V30 2632 C 242.449 -2.98175 -2.29714 0
M  V30 2633 C 241.596 -2.54491 -1.10135 0
M  V30 2634 H 244.547 -1.57751 -0.173317 0
M  V30 2635 H 244.568 -2.75163 -2.62804 0
M  V30 2636 H 244.08 -3.72616 -1.08532 0
M  V30 2637 H 242.181 -2.19024 -3.01429 0
M  V30 2638 H 242.294 -4.02726 -2.59517 0
M  V30 2639 H 240.658 -2.08702 -1.45999 0
M  V30 2640 H 241.441 -3.4056 -0.432874 0
M  V30 2641 N 243.887 0.651787 -1.4349 0
M  V30 2642 C 245.136 1.40754 -1.44469 0
M  V30 2643 C 245.449 1.95463 -0.0731845 0
M  V30 2644 O 246.655 2.71471 0.0395721 0
M  V30 2645 C 245.111 2.54735 -2.5424 0
M  V30 2646 C 244.719 2.06628 -3.97504 0
M  V30 2647 C 246.463 3.32092 -2.64414 0
M  V30 2648 C 244.37 3.17829 -4.98737 0
M  V30 2649 H 243.3 0.528862 -0.53742 0
M  V30 2650 H 245.951 0.703365 -1.69485 0
M  V30 2651 H 244.333 3.2763 -2.22428 0
M  V30 2652 H 245.507 1.40734 -4.38783 0
M  V30 2653 H 243.822 1.42146 -3.91387 0
M  V30 2654 H 246.419 4.14952 -3.37223 0
M  V30 2655 H 246.762 3.80217 -1.69532 0
M  V30 2656 H 247.295 2.66279 -2.95534 0
M  V30 2657 H 244.034 2.74671 -5.95177 0
M  V30 2658 H 243.554 3.82429 -4.62069 0
M  V30 2659 H 245.233 3.82937 -5.21505 0
M  V30 2660 N 245.365 1.30045 0.890287 0
M  V30 2661 C 246.781 1.08261 1.17268 0
M  V30 2662 C 246.981 -0.160063 2.00863 0
M  V30 2663 O 246.037 -0.855181 2.37577 0
M  V30 2664 C 247.35 2.34323 1.8845 0
M  V30 2665 C 248.898 2.39735 2.01237 0
M  V30 2666 C 249.373 3.65625 2.7583 0
M  V30 2667 N 250.864 3.66402 2.83379 0
M  V30 2668 C 251.599 4.60498 3.41657 0
M  V30 2669 N 251.095 5.64933 4.01026 0
M  V30 2670 N 252.888 4.48051 3.39421 0
M  V30 2671 H 245.039 2.09777 0.332762 0
M  V30 2672 H 247.302 0.92446 0.209948 0
M  V30 2673 H 247.008 3.2498 1.34465 0
M  V30 2674 H 246.882 2.4256 2.88867 0
M  V30 2675 H 249.269 1.4956 2.54393 0
M  V30 2676 H 249.35 2.35476 0.999232 0
M  V30 2677 H 248.994 4.56156 2.23347 0
M  V30 2678 H 248.924 3.67144 3.77509 0
M  V30 2679 H 251.415 2.90896 2.41222 0
M  V30 2680 H 251.728 6.32841 4.43545 0
M  V30 2681 H 250.073 5.68732 3.99461 0
M  V30 2682 H 253.264 3.65649 2.92264 0
M  V30 2683 H 253.437 5.21565 3.84544 0
M  V30 2684 N 246.843 -1.10192 1.12674 0
M  V30 2685 C 247.773 -2.18652 0.819362 0
M  V30 2686 C 248.754 -1.68698 -0.217915 0
M  V30 2687 O 249.939 -1.94041 -0.0785581 0
M  V30 2688 C 247.069 -3.46202 0.27594 0
M  V30 2689 C 246.023 -4.09444 1.24656 0
M  V30 2690 C 245.349 -5.31725 0.563258 0
M  V30 2691 C 246.649 -4.52863 2.60217 0
M  V30 2692 H 248.343 -2.44622 1.72628 0
M  V30 2693 H 245.889 -1.17571 0.831451 0
M  V30 2694 H 247.842 -4.21372 0.0486149 0
M  V30 2695 H 246.566 -3.1973 -0.666331 0
M  V30 2696 H 245.225 -3.36284 1.45974 0
M  V30 2697 H 244.873 -5.0153 -0.384235 0
M  V30 2698 H 244.573 -5.74991 1.21075 0
M  V30 2699 H 246.097 -6.09624 0.34503 0
M  V30 2700 H 247.511 -5.19294 2.42913 0
M  V30 2701 H 245.908 -5.06986 3.21068 0
M  V30 2702 H 246.978 -3.65656 3.18471 0
M  V30 2703 N 248.321 -0.919034 -1.28029 0
M  V30 2704 C 249.569 -0.553838 -1.94363 0
M  V30 2705 C 249.89 0.906357 -1.72656 0
M  V30 2706 O 249.16 1.64143 -1.0693 0
M  V30 2707 H 247.74 -0.201834 -0.719216 0
M  V30 2708 H 250.402 -1.16954 -1.55909 0
M  V30 2709 H 249.498 -0.752758 -3.02886 0
M  V30 2710 N 249.799 1.42003 -0.683588 0
M  V30 2711 C 250.729 2.33487 -0.024866 0
M  V30 2712 C 251.71 1.51163 0.779975 0
M  V30 2713 O 252.895 1.79739 0.735362 0
M  V30 2714 C 250.025 3.3487 0.920836 0
M  V30 2715 C 248.979 4.27414 0.223958 0
M  V30 2716 C 248.305 5.19074 1.2832 0
M  V30 2717 C 249.605 5.14445 -0.90242 0
M  V30 2718 H 251.299 2.88819 -0.788921 0
M  V30 2719 H 248.845 1.38873 -0.38083 0
M  V30 2720 H 250.798 3.97787 1.39081 0
M  V30 2721 H 249.522 2.77861 1.71642 0
M  V30 2722 H 248.181 3.65904 -0.225864 0
M  V30 2723 H 247.829 4.58387 2.071 0
M  V30 2724 H 247.529 5.81822 0.821995 0
M  V30 2725 H 249.053 5.84867 1.75392 0
M  V30 2726 H 250.467 5.70998 -0.513272 0
M  V30 2727 H 248.864 5.86072 -1.28997 0
M  V30 2728 H 249.934 4.52322 -1.74737 0
M  V30 2729 N 251.277 0.427512 1.51691 0
M  V30 2730 C 252.24 -0.377132 2.26076 0
M  V30 2731 C 253.24 -0.958089 1.29141 0
M  V30 2732 O 254.43 -0.83408 1.52934 0
M  V30 2733 C 251.562 -1.53262 3.04506 0
M  V30 2734 H 252.755 0.27464 2.9864 0
M  V30 2735 H 250.308 0.180445 1.55255 0
M  V30 2736 H 251.043 -2.22072 2.36335 0
M  V30 2737 H 250.828 -1.12232 3.75694 0
M  V30 2738 H 252.318 -2.10135 3.60878 0
M  V30 2739 N 252.755 -1.56801 0.158532 0
M  V30 2740 C 253.685 -2.20347 -0.772609 0
M  V30 2741 C 254.666 -1.15518 -1.24859 0
M  V30 2742 O 255.851 -1.43902 -1.30406 0
M  V30 2743 C 252.981 -2.83417 -2.00729 0
M  V30 2744 C 251.935 -3.94174 -1.66765 0
M  V30 2745 C 251.261 -4.44233 -2.97592 0
M  V30 2746 C 252.561 -5.14392 -0.905447 0
M  V30 2747 H 254.255 -2.98413 -0.242959 0
M  V30 2748 H 251.801 -1.43537 -0.115419 0
M  V30 2749 H 253.754 -3.26543 -2.6636 0
M  V30 2750 H 252.478 -2.02701 -2.56086 0
M  V30 2751 H 251.137 -3.51684 -1.03508 0
M  V30 2752 H 250.785 -3.60325 -3.50963 0
M  V30 2753 H 250.485 -5.18945 -2.75626 0
M  V30 2754 H 252.009 -4.90037 -3.64274 0
M  V30 2755 H 253.423 -5.5429 -1.46408 0
M  V30 2756 H 251.82 -5.9494 -0.7853 0
M  V30 2757 H 252.89 -4.84795 0.100668 0
M  V30 2758 N 254.233 0.115231 -1.57178 0
M  V30 2759 C 255.181 1.16014 -2.01602 0
M  V30 2760 C 256.175 1.42653 -0.913587 0
M  V30 2761 O 257.381 1.42571 -1.09879 0
M  V30 2762 H 253.756 0.391252 -0.642204 0
M  V30 2763 H 255.727 0.758998 -2.88586 0
M  V30 2764 C 254.476 2.47767 -2.4394 0
M  V30 2765 H 253.799 2.28108 -3.28339 0
M  V30 2766 H 255.239 3.19432 -2.78818 0
M  V30 2767 C 253.698 3.10617 -1.30455 0
M  V30 2768 O 254.228 3.96846 -0.622585 0
M  V30 2769 N 252.434 2.70553 -1.06064 0
M  V30 2770 H 251.981 2.00527 -1.61699 0
M  V30 2771 H 251.939 3.12934 -0.303284 0
M  V30 2772 N 255.711 1.52812 0.385517 0
M  V30 2773 C 256.958 1.68026 1.1302 0
M  V30 2774 C 257.286 0.421934 1.89868 0
M  V30 2775 O 256.541 -0.595749 1.86412 0
M  V30 2776 C 256.84 2.86856 2.13187 0
M  V30 2777 C 256.506 4.24159 1.5297 0
M  V30 2778 C 255.168 4.61501 1.36274 0
M  V30 2779 C 257.52 5.09627 1.09223 0
M  V30 2780 C 254.848 5.81966 0.743837 0
M  V30 2781 C 257.2 6.30719 0.487411 0
M  V30 2782 C 255.864 6.6679 0.307777 0
M  V30 2783 H 255.134 0.614849 0.413571 0
M  V30 2784 H 257.781 1.86962 0.414405 0
M  V30 2785 H 256.086 2.6235 2.90998 0
M  V30 2786 H 257.783 2.95821 2.70722 0
M  V30 2787 H 254.373 3.94746 1.66954 0
M  V30 2788 H 258.557 4.81343 1.20922 0
M  V30 2789 H 253.813 6.08519 0.592891 0
M  V30 2790 H 257.987 6.96259 0.140143 0
M  V30 2791 H 255.614 7.60001 -0.173879 0
M  V30 2792 N 257.189 -0.644168 1.43834 0
M  V30 2793 C 258.414 -1.43642 1.49605 0
M  V30 2794 C 258.839 -1.8773 0.117913 0
M  V30 2795 O 258.197 -1.57938 -0.890239 0
M  V30 2796 C 258.245 -2.6416 2.45463 0
M  V30 2797 O 257.349 -3.63538 1.94714 0
M  V30 2798 H 256.69 -0.430329 0.50568 0
M  V30 2799 H 259.22 -0.787448 1.8884 0
M  V30 2800 H 259.23 -3.11864 2.63068 0
M  V30 2801 H 257.905 -2.31414 3.45572 0
M  V30 2802 H 256.482 -3.2273 1.86814 0
M  V30 2803 N 258.668 -1.30515 -0.883378 0
M  V30 2804 C 259.914 -1.19607 -1.63774 0
M  V30 2805 C 260.247 0.248314 -1.92606 0
M  V30 2806 O 259.522 1.17742 -1.54813 0
M  V30 2807 C 259.805 -2.02669 -2.97653 0
M  V30 2808 C 259.658 -3.55335 -2.75784 0
M  V30 2809 C 260.977 -1.86573 -3.98596 0
M  V30 2810 H 258.096 -0.435856 -0.594305 0
M  V30 2811 H 260.738 -1.60165 -1.02212 0
M  V30 2812 H 258.888 -1.68208 -3.50197 0
M  V30 2813 H 260.56 -3.99863 -2.30016 0
M  V30 2814 H 258.803 -3.79438 -2.1026 0
M  V30 2815 H 259.474 -4.08745 -3.70988 0
M  V30 2816 H 261.95 -2.16703 -3.55217 0
M  V30 2817 H 260.826 -2.47014 -4.90179 0
M  V30 2818 H 261.087 -0.825321 -4.34328 0
M  V30 2819 N 260.146 1.09593 -1.13257 0
M  V30 2820 C 261.393 1.81734 -0.893257 0
M  V30 2821 C 261.721 1.8563 0.580656 0
M  V30 2822 O 260.976 1.31906 1.44566 0
M  V30 2823 C 261.275 3.27802 -1.42411 0
M  V30 2824 C 260.941 3.44041 -2.91456 0
M  V30 2825 C 259.603 3.48181 -3.3215 0
M  V30 2826 C 261.955 3.48719 -3.87356 0
M  V30 2827 C 259.283 3.54575 -4.67433 0
M  V30 2828 C 261.635 3.56648 -5.2248 0
M  V30 2829 C 260.299 3.59055 -5.62704 0
M  V30 2830 H 259.569 0.665011 -0.326866 0
M  V30 2831 H 262.216 1.2912 -1.41422 0
M  V30 2832 H 260.521 3.83042 -0.823795 0
M  V30 2833 H 262.218 3.82149 -1.21503 0
M  V30 2834 H 258.808 3.41502 -2.58987 0
M  V30 2835 H 262.992 3.44763 -3.57004 0
M  V30 2836 H 258.248 3.54725 -4.97976 0
M  V30 2837 H 262.422 3.59212 -5.96607 0
M  V30 2838 H 260.049 3.63763 -6.67518 0
M  V30 2839 N 261.624 0.925811 1.2754 0
M  V30 2840 C 262.854 0.580666 1.98272 0
M  V30 2841 C 263.262 -0.845207 1.69272 0
M  V30 2842 O 262.605 -1.57306 0.948707 0
M  V30 2843 C 262.667 0.724418 3.52126 0
M  V30 2844 C 262.331 2.12206 4.04744 0
M  V30 2845 C 263.328 3.09604 4.17662 0
M  V30 2846 C 261.013 2.4385 4.39138 0
M  V30 2847 C 263.007 4.36755 4.64246 0
M  V30 2848 C 260.694 3.71237 4.85414 0
M  V30 2849 C 261.692 4.67503 4.97926 0
M  V30 2850 O 261.38 5.92624 5.43187 0
M  V30 2851 H 261.112 0.218987 0.639547 0
M  V30 2852 H 263.666 1.24452 1.63404 0
M  V30 2853 H 261.896 0.0034663 3.867 0
M  V30 2854 H 263.585 0.384607 4.04074 0
M  V30 2855 H 264.351 2.86478 3.91351 0
M  V30 2856 H 260.23 1.69665 4.28643 0
M  V30 2857 H 263.774 5.11898 4.73927 0
M  V30 2858 H 259.671 3.94182 5.11166 0
M  V30 2859 H 260.439 5.95585 5.61445 0
M  V30 2860 N 263.102 -1.41638 0.69111 0
M  V30 2861 C 264.332 -2.0533 0.228758 0
M  V30 2862 C 264.74 -1.52089 -1.12541 0
M  V30 2863 O 264.083 -0.662145 -1.71351 0
M  V30 2864 C 264.145 -3.59349 0.10407 0
M  V30 2865 C 263.809 -4.35362 1.38956 0
M  V30 2866 C 264.806 -4.64942 2.32648 0
M  V30 2867 C 262.491 -4.74714 1.64169 0
M  V30 2868 C 264.485 -5.32828 3.49818 0
M  V30 2869 C 262.172 -5.42338 2.81625 0
M  V30 2870 C 263.17 -5.71322 3.74273 0
M  V30 2871 O 262.858 -6.37554 4.89673 0
M  V30 2872 H 262.59 -0.667796 0.104997 0
M  V30 2873 H 265.144 -1.82477 0.942938 0
M  V30 2874 H 263.374 -3.80924 -0.665839 0
M  V30 2875 H 265.063 -4.04633 -0.320519 0
M  V30 2876 H 265.829 -4.35025 2.14425 0
M  V30 2877 H 261.708 -4.51538 0.929202 0
M  V30 2878 H 265.252 -5.55368 4.22152 0
M  V30 2879 H 261.149 -5.71673 2.99768 0
M  V30 2880 H 261.917 -6.56049 4.8943 0
M  V30 2881 N 264.58 -0.43555 -1.51462 0
M  V30 2882 C 265.49 0.383001 -2.31453 0
M  V30 2883 C 266.506 1.02931 -1.4029 0
M  V30 2884 O 267.682 1.02507 -1.73362 0
M  V30 2885 C 264.747 1.47043 -3.13973 0
M  V30 2886 C 263.808 0.844433 -4.20913 0
M  V30 2887 C 263.041 1.88004 -4.9949 0
M  V30 2888 O 263.264 3.10199 -4.78678 0
M  V30 2889 O 262.198 1.47157 -5.83634 0
M  V30 2890 H 266.024 -0.269964 -3.02498 0
M  V30 2891 H 263.609 -0.19813 -1.4808 0
M  V30 2892 H 265.491 2.10113 -3.65281 0
M  V30 2893 H 264.166 2.10751 -2.45695 0
M  V30 2894 H 263.073 0.175729 -3.73687 0
M  V30 2895 H 264.406 0.250869 -4.9156 0
M  V30 2896 N 266.058 1.56714 -0.166846 0
M  V30 2897 C 267.307 1.95922 0.479318 0
M  V30 2898 C 267.62 1.05529 1.6469 0
M  V30 2899 O 268.826 1.34399 2.35901 0
M  V30 2900 C 267.282 3.48359 0.90412 0
M  V30 2901 C 266.89 4.47369 -0.237621 0
M  V30 2902 C 268.634 3.96394 1.51896 0
M  V30 2903 C 266.541 5.91039 0.206561 0
M  V30 2904 H 265.471 0.731495 0.18284 0
M  V30 2905 H 268.122 1.81728 -0.254363 0
M  V30 2906 H 266.504 3.57955 1.69365 0
M  V30 2907 H 267.678 4.49485 -1.01489 0
M  V30 2908 H 265.993 4.09366 -0.762128 0
M  V30 2909 H 268.59 5.01186 1.86325 0
M  V30 2910 H 268.933 3.39075 2.41524 0
M  V30 2911 H 269.466 3.89796 0.79395 0
M  V30 2912 H 266.205 6.52221 -0.654834 0
M  V30 2913 H 265.725 5.9224 0.949282 0
M  V30 2914 H 267.404 6.43707 0.651939 0
M  V30 2915 N 267.536 -0.106894 1.57237 0
M  V30 2916 C 268.466 -1.13148 2.04254 0
M  V30 2917 C 269.447 -1.42476 0.929224 0
M  V30 2918 O 270.632 -1.52709 1.19973 0
M  V30 2919 C 267.762 -2.4545 2.45706 0
M  V30 2920 C 266.716 -2.30558 3.60592 0
M  V30 2921 C 266.042 -3.67931 3.87983 0
M  V30 2922 C 267.342 -1.75597 4.91897 0
M  V30 2923 H 269.036 -0.740374 2.90101 0
M  V30 2924 H 266.582 -0.354696 1.39563 0
M  V30 2925 H 268.535 -3.17389 2.77205 0
M  V30 2926 H 267.259 -2.86475 1.56843 0
M  V30 2927 H 265.918 -1.61067 3.29322 0
M  V30 2928 H 265.566 -4.06462 2.96306 0
M  V30 2929 H 265.266 -3.58817 4.65322 0
M  V30 2930 H 266.79 -4.41356 4.21945 0
M  V30 2931 H 268.204 -2.37364 5.21854 0
M  V30 2932 H 266.601 -1.77272 5.73319 0
M  V30 2933 H 267.671 -0.714451 4.79608 0
M  V30 2934 N 269.014 -1.53014 -0.377408 0
M  V30 2935 C 269.962 -1.7927 -1.48206 0
M  V30 2936 C 270.956 -0.661195 -1.55963 0
M  V30 2937 O 272.162 -0.843908 -1.58991 0
M  V30 2938 H 268.537 -0.567425 -0.493491 0
M  V30 2939 H 270.508 -2.71753 -1.2326 0
M  V30 2940 C 269.257 -1.98894 -2.85196 0
M  V30 2941 H 268.58 -2.85395 -2.79981 0
M  V30 2942 H 270.02 -2.21249 -3.61698 0
M  V30 2943 C 268.479 -0.764691 -3.28107 0
M  V30 2944 O 269.009 0.0523226 -4.01666 0
M  V30 2945 N 267.215 -0.591493 -2.84517 0
M  V30 2946 H 266.762 -1.25749 -2.24822 0
M  V30 2947 H 266.72 0.226253 -3.13585 0
M  V30 2948 N 270.492 0.636531 -1.44174 0
M  V30 2949 C 271.717 1.42847 -1.50364 0
M  V30 2950 C 272.142 1.87665 -0.127867 0
M  V30 2951 O 271.5 1.58408 0.88185 0
M  V30 2952 C 271.548 2.62854 -2.4686 0
M  V30 2953 O 270.652 3.62501 -1.9664 0
M  V30 2954 H 269.993 0.427642 -0.507955 0
M  V30 2955 H 272.523 0.777422 -1.89255 0
M  V30 2956 H 272.533 3.10465 -2.64718 0
M  V30 2957 H 271.208 2.29578 -3.46795 0
M  V30 2958 H 269.785 3.21735 -1.88523 0
M  V30 2959 N 271.97 1.30982 0.876444 0
M  V30 2960 C 273.381 1.18277 1.44456 0
M  V30 2961 C 273.732 -0.213265 1.95037 0
M  V30 2962 O 272.857 -1.11057 1.85729 0
M  V30 2963 C 273.452 2.1411 2.62569 0
M  V30 2964 C 272.011 2.05358 3.15444 0
M  V30 2965 C 271.158 2.03706 1.88146 0
M  V30 2966 H 274.109 1.43127 0.685584 0
M  V30 2967 H 274.13 1.72692 3.39054 0
M  V30 2968 H 273.642 3.15706 2.25724 0
M  V30 2969 H 271.743 1.06934 3.56926 0
M  V30 2970 H 271.856 2.94156 3.78166 0
M  V30 2971 H 270.22 1.48629 2.06837 0
M  V30 2972 H 271.003 3.07047 1.53547 0
M  V30 2973 N 273.449 -1.08991 1.13837 0
M  V30 2974 C 274.359 -2.19301 0.833333 0
M  V30 2975 C 275.375 -1.73026 -0.183847 0
M  V30 2976 O 276.551 -2.01395 -0.0138092 0
M  V30 2977 C 273.616 -3.45323 0.308651 0
M  V30 2978 C 272.677 -4.06255 1.38764 0
M  V30 2979 C 271.91 -5.26262 0.887896 0
M  V30 2980 O 272.133 -5.69747 -0.27287 0
M  V30 2981 O 271.067 -5.78435 1.66421 0
M  V30 2982 H 274.893 -2.47854 1.75506 0
M  V30 2983 H 272.478 -1.18012 0.916166 0
M  V30 2984 H 274.36 -4.21394 0.0216739 0
M  V30 2985 H 273.035 -3.18362 -0.585431 0
M  V30 2986 H 271.942 -3.318 1.72799 0
M  V30 2987 H 273.275 -4.37452 2.25602 0
M  V30 2988 N 274.927 -0.932562 -1.27047 0
M  V30 2989 C 275.874 -0.434072 -2.26681 0
M  V30 2990 C 276.844 0.501639 -1.58344 0
M  V30 2991 O 278.029 0.419734 -1.86126 0
M  V30 2992 C 275.169 0.30261 -3.43771 0
M  V30 2993 C 274.282 -0.667774 -4.26808 0
M  V30 2994 C 273.417 0.0892393 -5.31125 0
M  V30 2995 C 272.456 -0.873532 -6.05835 0
M  V30 2996 N 271.593 -0.148832 -7.01942 0
M  V30 2997 H 276.433 -1.28868 -2.68695 0
M  V30 2998 H 273.97 -0.646713 -1.32121 0
M  V30 2999 H 275.928 0.746092 -4.10474 0
M  V30 3000 H 274.558 1.12142 -3.02695 0
M  V30 3001 H 273.61 -1.22978 -3.59973 0
M  V30 3002 H 274.922 -1.40337 -4.78651 0
M  V30 3003 H 274.076 0.592409 -6.03801 0
M  V30 3004 H 272.815 0.85777 -4.80097 0
M  V30 3005 H 271.82 -1.38791 -5.31994 0
M  V30 3006 H 273.045 -1.64193 -6.58952 0
M  V30 3007 H 270.991 0.601365 -6.53238 0
M  V30 3008 H 270.908 -0.82391 -7.51497 0
M  V30 3009 H 272.176 0.333527 -7.78786 0
M  V30 3010 N 276.405 1.4127 -0.698611 0
M  V30 3011 C 277.368 2.29158 -0.044132 0
M  V30 3012 C 278.368 1.44529 0.704841 0
M  V30 3013 O 279.558 1.65643 0.539276 0
M  V30 3014 C 276.69 3.27459 0.947809 0
M  V30 3015 H 277.883 2.88529 -0.817994 0
M  V30 3016 H 275.436 1.49307 -0.46228 0
M  V30 3017 H 276.171 2.73073 1.74933 0
M  V30 3018 H 275.956 3.8991 0.41385 0
M  V30 3019 H 277.446 3.93311 1.40344 0
M  V30 3020 N 277.883 0.443576 1.51229 0
M  V30 3021 C 279.123 -0.119889 2.04048 0
M  V30 3022 C 279.487 -1.39418 1.32009 0
M  V30 3023 O 280.688 -2.03829 1.75235 0
M  V30 3024 C 278.959 -0.327233 3.55899 0
M  V30 3025 S 280.518 -0.853208 4.30425 0
M  V30 3026 H 277.336 -0.028921 0.710412 0
M  V30 3027 H 279.938 0.604413 1.85922 0
M  V30 3028 H 278.642 0.606445 4.05895 0
M  V30 3029 H 278.173 -1.07844 3.7833 0
M  V30 3030 H 280.188 -2.13005 4.48155 0
M  V30 3031 N 279.361 -1.56624 0.175154 0
M  V30 3032 C 280.586 -2.01813 -0.478137 0
M  V30 3033 C 281.011 -1.05457 -1.55757 0
M  V30 3034 O 280.369 -0.0347439 -1.81267 0
M  V30 3035 C 280.417 -3.45581 -1.02987 0
M  V30 3036 O 279.521 -3.52305 -2.14371 0
M  V30 3037 H 278.862 -0.65413 -0.114059 0
M  V30 3038 H 281.392 -2.02673 0.280173 0
M  V30 3039 H 281.402 -3.84965 -1.35151 0
M  V30 3040 H 280.077 -4.1521 -0.239556 0
M  V30 3041 H 278.654 -3.24783 -1.83222 0
M  V30 3042 N 280.839 0.0985539 -1.57292 0
M  V30 3043 C 281.769 1.12064 -2.04851 0
M  V30 3044 C 282.75 1.41981 -0.936767 0
M  V30 3045 O 283.935 1.52071 -1.20781 0
M  V30 3046 C 281.065 2.44144 -2.47004 0
M  V30 3047 C 280.019 2.28643 -3.6181 0
M  V30 3048 C 279.345 3.65869 -3.89929 0
M  V30 3049 C 280.645 1.72986 -4.92822 0
M  V30 3050 H 282.339 0.724979 -2.9049 0
M  V30 3051 H 279.885 0.34729 -1.39749 0
M  V30 3052 H 281.838 3.15914 -2.78884 0
M  V30 3053 H 280.562 2.85639 -1.5836 0
M  V30 3054 H 279.221 1.59318 -3.30172 0
M  V30 3055 H 278.869 4.04885 -2.98458 0
M  V30 3056 H 278.569 3.56344 -4.67218 0
M  V30 3057 H 280.093 4.39112 -4.2428 0
M  V30 3058 H 281.507 2.34593 -5.23105 0
M  V30 3059 H 279.904 1.74229 -5.74251 0
M  V30 3060 H 280.974 0.689007 -4.7998 0
M  V30 3061 N 282.317 1.53212 0.369288 0
M  V30 3062 C 283.28 1.7872 1.43498 0
M  V30 3063 C 284.28 0.657554 1.46741 0
M  V30 3064 O 285.47 0.925736 1.47566 0
M  V30 3065 C 282.602 1.90591 2.82645 0
M  V30 3066 H 283.795 2.73894 1.22156 0
M  V30 3067 H 281.348 1.44233 0.602203 0
M  V30 3068 H 282.083 0.974709 3.09306 0
M  V30 3069 H 281.868 2.72751 2.8169 0
M  V30 3070 H 283.358 2.11931 3.59826 0
M  V30 3071 N 283.795 -0.628877 1.44509 0
M  V30 3072 C 284.742 -1.74074 1.51549 0
M  V30 3073 C 285.712 -1.62084 0.363021 0
M  V30 3074 O 286.897 -1.81975 0.573567 0
M  V30 3075 C 284.037 -3.12328 1.46784 0
M  V30 3076 C 283.15 -3.35277 2.72422 0
M  V30 3077 C 282.285 -4.63515 2.59475 0
M  V30 3078 C 281.324 -4.7965 3.80266 0
M  V30 3079 N 280.461 -5.99168 3.65981 0
M  V30 3080 H 285.301 -1.67392 2.46544 0
M  V30 3081 H 282.838 -0.816527 1.22357 0
M  V30 3082 H 284.796 -3.92286 1.42012 0
M  V30 3083 H 283.426 -3.18018 0.553544 0
M  V30 3084 H 282.478 -2.49242 2.87372 0
M  V30 3085 H 283.79 -3.43078 3.62076 0
M  V30 3086 H 282.944 -5.51638 2.52548 0
M  V30 3087 H 281.683 -4.58076 1.67384 0
M  V30 3088 H 280.688 -3.89957 3.87574 0
M  V30 3089 H 281.913 -4.86902 4.73395 0
M  V30 3090 H 279.859 -5.94814 2.76644 0
M  V30 3091 H 279.776 -6.08035 4.49254 0
M  V30 3092 H 281.044 -6.89846 3.6295 0
M  V30 3093 N 285.273 -1.31445 -0.869486 0
M  V30 3094 C 286.501 -1.24122 -1.65534 0
M  V30 3095 C 286.916 0.193387 -1.87807 0
M  V30 3096 O 286.273 1.12557 -1.43656 0
M  V30 3097 C 286.324 -1.98229 -3.02304 0
M  V30 3098 O 286.045 -3.3609 -2.81026 0
M  V30 3099 C 287.546 -1.97751 -3.96749 0
M  V30 3100 H 284.766 -0.428868 -0.516055 0
M  V30 3101 H 287.31 -1.73328 -1.08525 0
M  V30 3102 H 285.465 -1.52782 -3.56001 0
M  V30 3103 H 285.879 -3.7383 -3.67902 0
M  V30 3104 H 287.353 -2.54114 -4.90031 0
M  V30 3105 H 287.83 -0.960137 -4.28577 0
M  V30 3106 H 288.436 -2.43079 -3.48988 0
M  V30 3107 N 286.751 1.08385 -1.14413 0
M  V30 3108 C 287.714 2.13486 -0.834048 0
M  V30 3109 C 288.714 1.59988 0.161418 0
M  V30 3110 O 289.904 1.74071 -0.0669575 0
M  V30 3111 C 287.036 3.4003 -0.243354 0
M  V30 3112 H 288.229 2.42425 -1.7655 0
M  V30 3113 H 285.782 1.24101 -0.950189 0
M  V30 3114 H 286.517 3.16726 0.696807 0
M  V30 3115 H 286.302 3.80157 -0.960367 0
M  V30 3116 H 287.792 4.17577 -0.0436242 0
M  V30 3117 N 288.23 0.939286 1.26551 0
M  V30 3118 C 289.477 0.585847 1.9384 0
M  V30 3119 C 289.805 -0.874784 1.73718 0
M  V30 3120 O 289.06 -1.64092 1.06642 0
M  V30 3121 C 289.359 0.872106 3.46596 0
M  V30 3122 C 289.025 2.31632 3.86856 0
M  V30 3123 C 287.687 2.71111 3.97558 0
M  V30 3124 C 290.039 3.25494 4.07066 0
M  V30 3125 C 287.367 4.03553 4.25866 0
M  V30 3126 C 289.719 4.57531 4.36862 0
M  V30 3127 C 288.383 4.96828 4.45778 0
M  V30 3128 H 287.653 0.214377 0.709312 0
M  V30 3129 H 290.3 1.18544 1.50398 0
M  V30 3130 H 288.605 0.18996 3.91339 0
M  V30 3131 H 290.302 0.577442 3.96821 0
M  V30 3132 H 286.892 2.00008 3.79071 0
M  V30 3133 H 291.076 2.9619 3.98227 0
M  V30 3134 H 286.332 4.33665 4.30981 0
M  V30 3135 H 290.506 5.30254 4.51446 0
M  V30 3136 H 288.133 5.99482 4.67468 0
M  V30 3137 N 289.708 -1.40897 0.706093 0
M  V30 3138 C 290.985 -1.94868 0.169099 0
M  V30 3139 C 291.365 -1.64485 -1.32318 0
M  V30 3140 O 290.713 -0.95744 -2.07474 0
M  V30 3141 C 290.923 -3.45798 0.471654 0
M  V30 3142 C 292.271 -4.22663 0.405127 0
M  V30 3143 O 293.295 -3.53865 0.407168 0
M  V30 3144 O 292.154 -5.45216 0.374383 0
M  V30 3145 H 289.248 -0.82673 0.0211352 0
M  V30 3146 H 291.794 -1.50558 0.782976 0
M  V30 3147 H 290.566 -3.61235 1.50416 0
M  V30 3148 H 290.189 -3.97225 -0.172666 0
M  V30 3149 N 291.186 -0.45159 -1.50991 0
M  V30 3150 C 292.096 0.358431 -2.31846 0
M  V30 3151 C 293.112 1.01438 -1.41373 0
M  V30 3152 O 294.288 1.00663 -1.74439 0
M  V30 3153 C 291.353 1.43704 -3.15515 0
M  V30 3154 C 290.414 0.799742 -4.21785 0
M  V30 3155 C 289.647 1.82696 -5.01456 0
M  V30 3156 O 289.87 3.05105 -4.81941 0
M  V30 3157 O 288.804 1.40958 -5.85162 0
M  V30 3158 H 292.63 -0.302032 -3.02194 0
M  V30 3159 H 290.215 -0.213825 -1.47862 0
M  V30 3160 H 292.097 2.06227 -3.67489 0
M  V30 3161 H 290.772 2.08133 -2.47916 0
M  V30 3162 H 289.679 0.136084 -3.73852 0
M  V30 3163 H 291.012 0.198718 -4.91799 0
M  V30 3164 N 292.664 1.56529 -0.183458 0
M  V30 3165 C 293.627 2.17324 0.728223 0
M  V30 3166 C 294.627 1.12453 1.14939 0
M  V30 3167 O 295.817 1.37902 1.06437 0
M  V30 3168 C 292.949 2.76591 1.99274 0
M  V30 3169 H 294.142 2.99241 0.198772 0
M  V30 3170 H 291.695 1.5616 0.0661391 0
M  V30 3171 H 292.43 1.98441 2.56499 0
M  V30 3172 H 292.215 3.5335 1.69959 0
M  V30 3173 H 293.705 3.23311 2.6431 0
M  V30 3174 N 294.142 -0.090211 1.57342 0
M  V30 3175 C 295.391 -0.791531 1.8552 0
M  V30 3176 C 295.704 -1.79659 0.773441 0
M  V30 3177 O 296.91 -2.54616 0.942497 0
M  V30 3178 C 295.366 -1.45856 3.2902 0
M  V30 3179 C 294.974 -0.493017 4.45279 0
M  V30 3180 C 296.718 -2.14332 3.66418 0
M  V30 3181 C 294.625 -1.16491 5.79814 0
M  V30 3182 H 293.555 -0.299356 0.692027 0
M  V30 3183 H 296.206 -0.0445343 1.83446 0
M  V30 3184 H 294.588 -2.25318 3.2565 0
M  V30 3185 H 295.762 0.270464 4.60006 0
M  V30 3186 H 294.077 0.0863061 4.16311 0
M  V30 3187 H 296.674 -2.65344 4.64216 0
M  V30 3188 H 297.017 -2.93447 2.95287 0
M  V30 3189 H 297.55 -1.41724 3.71698 0
M  V30 3190 H 294.289 -0.41447 6.54188 0
M  V30 3191 H 293.809 -1.8997 5.68921 0
M  V30 3192 H 295.488 -1.69001 6.24538 0
M  V30 3193 N 295.62 -1.53406 -0.361157 0
M  V30 3194 C 296.583 -1.79479 -1.42548 0
M  V30 3195 C 297.583 -0.665327 -1.4639 0
M  V30 3196 O 298.773 -0.933549 -1.47073 0
M  V30 3197 C 295.905 -1.92087 -2.8163 0
M  V30 3198 H 297.098 -2.74538 -1.20701 0
M  V30 3199 H 294.651 -1.4455 -0.594546 0
M  V30 3200 H 295.386 -0.991099 -3.08784 0
M  V30 3201 H 295.171 -2.74241 -2.80239 0
M  V30 3202 H 296.661 -2.13836 -3.58697 0
M  V30 3203 N 297.098 0.621204 -1.44841 0
M  V30 3204 C 298.008 1.7612 -1.5498 0
M  V30 3205 C 299.024 1.68477 -0.434927 0
M  V30 3206 O 300.2 1.89076 -0.693693 0
M  V30 3207 C 297.265 3.1254 -1.50065 0
M  V30 3208 C 296.326 3.31741 -2.72482 0
M  V30 3209 C 295.559 4.61653 -2.67792 0
M  V30 3210 O 295.782 5.431 -1.74352 0
M  V30 3211 O 294.716 4.83271 -3.58794 0
M  V30 3212 H 298.542 1.70518 -2.51311 0
M  V30 3213 H 296.127 0.783643 -1.27198 0
M  V30 3214 H 298.009 3.93844 -1.49882 0
M  V30 3215 H 296.684 3.18663 -0.568806 0
M  V30 3216 H 295.591 2.50077 -2.7823 0
M  V30 3217 H 296.924 3.30486 -3.64746 0
M  V30 3218 N 298.576 1.31904 0.862503 0
M  V30 3219 C 299.506 1.22782 1.98612 0
M  V30 3220 C 300.487 0.113362 1.69722 0
M  V30 3221 O 301.672 0.299218 1.91881 0
M  V30 3222 C 298.802 0.942058 3.34279 0
M  V30 3223 C 297.756 2.0169 3.77499 0
M  V30 3224 C 297.082 1.58369 5.10709 0
M  V30 3225 C 298.382 3.43096 3.93805 0
M  V30 3226 H 300.076 2.16788 2.06502 0
M  V30 3227 H 297.622 1.04366 0.992154 0
M  V30 3228 H 299.575 0.864818 4.1243 0
M  V30 3229 H 298.299 -0.0336603 3.26583 0
M  V30 3230 H 296.958 2.08416 3.01593 0
M  V30 3231 H 296.606 0.595628 4.99461 0
M  V30 3232 H 296.306 2.30279 5.40597 0
M  V30 3233 H 297.83 1.52067 5.91361 0
M  V30 3234 H 299.244 3.39003 4.62331 0
M  V30 3235 H 297.641 4.13288 4.35101 0
M  V30 3236 H 298.711 3.83334 2.96957 0
M  V30 3237 N 300.054 -1.07777 1.14986 0
M  V30 3238 C 301.331 -1.7699 0.832695 0
M  V30 3239 C 301.711 -2.001 -0.672561 0
M  V30 3240 O 301.059 -1.61598 -1.6155 0
M  V30 3241 C 301.269 -3.08139 1.63863 0
M  V30 3242 C 302.617 -3.8256 1.84208 0
M  V30 3243 O 303.641 -3.17939 1.60603 0
M  V30 3244 O 302.5 -4.98612 2.23714 0
M  V30 3245 H 299.594 -0.768389 0.305791 0
M  V30 3246 H 302.14 -1.14182 1.25541 0
M  V30 3247 H 300.912 -2.86909 2.6608 0
M  V30 3248 H 300.535 -3.78678 1.21197 0
M  V30 3249 N 301.532 -0.945985 -1.26051 0
M  V30 3250 C 302.76 -0.613025 -1.9761 0
M  V30 3251 C 303.175 0.813035 -1.70397 0
M  V30 3252 O 302.532 1.54274 -0.974979 0
M  V30 3253 C 302.583 -0.85159 -3.51326 0
M  V30 3254 O 302.304 -2.22157 -3.77595 0
M  V30 3255 C 303.805 -0.529831 -4.40122 0
M  V30 3256 H 301.025 -0.230593 -0.630133 0
M  V30 3257 H 303.569 -1.268 -1.60443 0
M  V30 3258 H 301.724 -0.243151 -3.86636 0
M  V30 3259 H 302.138 -2.2852 -4.721 0
M  V30 3260 H 303.612 -0.747348 -5.46917 0
M  V30 3261 H 304.089 0.535341 -4.35925 0
M  V30 3262 H 304.695 -1.11721 -4.10364 0
M  V30 3263 N 303.011 1.40521 -0.713556 0
M  V30 3264 C 303.941 2.33381 -0.0743864 0
M  V30 3265 C 304.922 1.52784 0.747735 0
M  V30 3266 O 306.107 1.81258 0.697071 0
M  V30 3267 C 303.237 3.36748 0.849598 0
M  V30 3268 C 302.191 4.27793 0.133247 0
M  V30 3269 C 301.517 5.21679 1.17281 0
M  V30 3270 C 302.817 5.12415 -1.01134 0
M  V30 3271 H 304.511 2.87081 -0.850007 0
M  V30 3272 H 302.057 1.38034 -0.410201 0
M  V30 3273 H 304.01 4.00648 1.30612 0
M  V30 3274 H 302.734 2.81439 1.65709 0
M  V30 3275 H 301.393 3.65342 -0.303426 0
M  V30 3276 H 301.041 4.62677 1.9733 0
M  V30 3277 H 300.741 5.83435 0.698397 0
M  V30 3278 H 302.265 5.88456 1.62947 0
M  V30 3279 H 303.679 5.69781 -0.634274 0
M  V30 3280 H 302.076 5.83203 -1.41399 0
M  V30 3281 H 303.146 4.48514 -1.84292 0
M  V30 3282 N 304.489 0.459591 1.5075 0
M  V30 3283 C 305.714 -0.0996819 2.0716 0
M  V30 3284 C 306.139 -1.33761 1.32249 0
M  V30 3285 O 305.497 -1.77551 0.366786 0
M  V30 3286 C 305.545 -0.378226 3.58611 0
M  V30 3287 O 304.649 -1.46081 3.85661 0
M  V30 3288 H 303.99 0.00791392 0.663953 0
M  V30 3289 H 306.52 0.647329 1.9409 0
M  V30 3290 H 306.53 -0.622135 4.03229 0
M  V30 3291 H 305.205 0.526439 4.12555 0
M  V30 3292 H 303.782 -1.20511 3.5289 0
M  V30 3293 N 305.967 -1.56429 0.191757 0
M  V30 3294 C 306.877 -2.22541 -0.742481 0
M  V30 3295 C 307.893 -1.22342 -1.23727 0
M  V30 3296 O 309.069 -1.55069 -1.28513 0
M  V30 3297 C 306.134 -2.8692 -1.94623 0
M  V30 3298 C 305.195 -4.02378 -1.49633 0
M  V30 3299 C 304.428 -4.63678 -2.6427 0
M  V30 3300 O 304.651 -4.23895 -3.81666 0
M  V30 3301 O 303.585 -5.53202 -2.37174 0
M  V30 3302 H 307.411 -3.02977 -0.209462 0
M  V30 3303 H 304.996 -1.49353 -0.0373832 0
M  V30 3304 H 306.878 -3.27663 -2.64982 0
M  V30 3305 H 305.553 -2.09466 -2.46791 0
M  V30 3306 H 304.46 -3.66265 -0.761636 0
M  V30 3307 H 305.793 -4.81487 -1.02134 0
M  V30 3308 N 307.445 0.0818655 -1.57387 0
M  V30 3309 C 308.355 1.11642 -2.06333 0
M  V30 3310 C 309.371 1.43033 -0.99083 0
M  V30 3311 O 310.547 1.53411 -1.30488 0
M  V30 3312 C 307.612 2.41342 -2.48907 0
M  V30 3313 C 306.673 2.17014 -3.7041 0
M  V30 3314 C 305.906 3.4053 -4.10944 0
M  V30 3315 O 306.129 4.4927 -3.51444 0
M  V30 3316 O 305.063 3.29336 -5.03807 0
M  V30 3317 H 308.889 0.730657 -2.9478 0
M  V30 3318 H 306.474 0.295301 -1.46452 0
M  V30 3319 H 308.356 3.17691 -2.76858 0
M  V30 3320 H 307.031 2.79319 -1.63593 0
M  V30 3321 H 305.938 1.38403 -3.47556 0
M  V30 3322 H 307.271 1.83923 -4.56545 0
M  V30 3323 N 308.923 1.53595 0.353017 0
M  V30 3324 C 310.148 1.7462 1.11904 0
M  V30 3325 C 310.573 0.479721 1.8188 0
M  V30 3326 O 309.931 -0.567066 1.72204 0
M  V30 3327 C 309.979 2.92029 2.11545 0
M  V30 3328 O 309.083 2.61516 3.18878 0
M  V30 3329 H 308.424 0.579531 0.324099 0
M  V30 3330 H 310.954 2.00525 0.406301 0
M  V30 3331 H 310.964 3.18551 2.5493 0
M  V30 3332 H 309.639 3.83888 1.60008 0
M  V30 3333 H 308.216 2.45852 2.80377 0
M  V30 3334 N 310.401 -0.613514 1.45168 0
M  V30 3335 C 311.631 -1.39743 1.52169 0
M  V30 3336 C 312.039 -1.88596 0.151086 0
M  V30 3337 O 311.382 -1.6251 -0.856521 0
M  V30 3338 C 311.444 -2.64035 2.43979 0
M  V30 3339 C 311.108 -2.36861 3.90827 0
M  V30 3340 C 312.105 -1.97591 4.80889 0
M  V30 3341 C 309.79 -2.49956 4.35692 0
M  V30 3342 C 311.784 -1.71768 6.1382 0
M  V30 3343 C 309.471 -2.23747 5.68665 0
M  V30 3344 C 310.469 -1.84714 6.57548 0
M  V30 3345 O 310.157 -1.58809 7.88058 0
M  V30 3346 H 309.889 -0.434382 0.517966 0
M  V30 3347 H 312.443 -0.75587 1.90986 0
M  V30 3348 H 310.673 -3.3089 2.00122 0
M  V30 3349 H 312.362 -3.26069 2.41731 0
M  V30 3350 H 313.128 -1.87015 4.47493 0
M  V30 3351 H 309.007 -2.79305 3.66756 0
M  V30 3352 H 312.551 -1.41227 6.83155 0
M  V30 3353 H 308.448 -2.33938 6.01617 0
M  V30 3354 H 309.216 -1.7291 8.00028 0
M  V30 3355 N 311.879 -1.3236 -0.855495 0
M  V30 3356 C 312.826 -1.21225 -1.964 0
M  V30 3357 C 313.796 -0.0946204 -1.6583 0
M  V30 3358 O 314.981 -0.27002 -1.8888 0
M  V30 3359 C 312.121 -0.940419 -3.32039 0
M  V30 3360 C 311.234 -2.14276 -3.75113 0
M  V30 3361 C 310.369 -1.80648 -4.9954 0
M  V30 3362 C 309.408 -2.97208 -5.35102 0
M  V30 3363 N 308.545 -2.63678 -6.50706 0
M  V30 3364 H 313.385 -2.16042 -2.05255 0
M  V30 3365 H 310.922 -1.07451 -1.00463 0
M  V30 3366 H 312.88 -0.763311 -4.10158 0
M  V30 3367 H 311.51 -0.0290413 -3.22787 0
M  V30 3368 H 310.562 -2.43017 -2.92655 0
M  V30 3369 H 311.874 -3.01468 -3.97389 0
M  V30 3370 H 311.028 -1.59484 -5.85363 0
M  V30 3371 H 309.767 -0.906678 -4.79198 0
M  V30 3372 H 308.772 -3.19004 -4.47791 0
M  V30 3373 H 309.997 -3.87918 -5.57401 0
M  V30 3374 H 307.943 -1.76238 -6.31883 0
M  V30 3375 H 307.86 -3.444 -6.72997 0
M  V30 3376 H 309.128 -2.45942 -7.39684 0
M  V30 3377 N 313.357 1.07166 -1.15556 0
M  V30 3378 C 314.634 1.76546 -0.842069 0
M  V30 3379 C 315.014 2.00453 0.661939 0
M  V30 3380 O 314.362 1.62452 1.60691 0
M  V30 3381 C 314.572 3.07266 -1.65495 0
M  V30 3382 C 315.92 3.81578 -1.86234 0
M  V30 3383 O 316.944 3.17083 -1.62287 0
M  V30 3384 O 315.803 4.97419 -2.26355 0
M  V30 3385 H 312.897 0.766756 -0.309862 0
M  V30 3386 H 315.443 1.13514 -1.26145 0
M  V30 3387 H 314.215 2.85494 -2.67598 0
M  V30 3388 H 313.838 3.7803 -1.23203 0
M  V30 3389 N 314.835 0.952656 1.25548 0
M  V30 3390 C 316.06 0.623025 1.97821 0
M  V30 3391 C 316.485 -0.7976 1.70352 0
M  V30 3392 O 315.843 -1.53905 0.958283 0
M  V30 3393 C 315.891 0.885532 3.49558 0
M  V30 3394 O 314.995 -0.0366641 4.12384 0
M  V30 3395 H 314.336 0.237082 0.620232 0
M  V30 3396 H 316.866 1.27871 1.59719 0
M  V30 3397 H 316.876 0.811009 3.99858 0
M  V30 3398 H 315.551 1.92094 3.6888 0
M  V30 3399 H 314.128 0.0898954 3.72792 0
M  V30 3400 N 316.313 -1.40141 0.720998 0
M  V30 3401 C 317.541 -2.05096 0.272656 0
M  V30 3402 C 317.956 -1.54334 -1.0875 0
M  V30 3403 O 317.313 -0.702211 -1.6845 0
M  V30 3404 C 317.364 -3.60636 0.249835 0
M  V30 3405 O 317.085 -4.09526 1.55629 0
M  V30 3406 C 318.586 -4.42772 -0.216396 0
M  V30 3407 H 315.806 -0.659897 0.121558 0
M  V30 3408 H 318.35 -1.79449 0.980723 0
M  V30 3409 H 316.505 -3.85232 -0.409237 0
M  V30 3410 H 316.919 -5.03758 1.4604 0
M  V30 3411 H 318.393 -5.51702 -0.181212 0
M  V30 3412 H 318.87 -4.20756 -1.25941 0
M  V30 3413 H 319.476 -4.23294 0.412596 0
M  V30 3414 N 317.792 -0.46758 -1.50504 0
M  V30 3415 C 318.722 0.318381 -2.31319 0
M  V30 3416 C 319.703 0.993564 -1.38066 0
M  V30 3417 O 320.888 0.991411 -1.66987 0
M  V30 3418 C 318.018 1.40275 -3.17711 0
M  V30 3419 C 316.972 0.849373 -4.19487 0
M  V30 3420 C 316.298 2.03177 -4.94594 0
M  V30 3421 C 317.598 -0.136942 -5.2212 0
M  V30 3422 H 319.292 -0.356106 -2.97275 0
M  V30 3423 H 316.838 -0.172703 -1.42961 0
M  V30 3424 H 318.791 1.96004 -3.73042 0
M  V30 3425 H 317.515 2.10596 -2.49634 0
M  V30 3426 H 316.174 0.314076 -3.65252 0
M  V30 3427 H 315.822 2.72187 -4.22993 0
M  V30 3428 H 315.522 1.66774 -5.63436 0
M  V30 3429 H 317.046 2.59403 -5.52759 0
M  V30 3430 H 318.46 0.331056 -5.72343 0
M  V30 3431 H 316.857 -0.41507 -5.98663 0
M  V30 3432 H 317.927 -1.06398 -4.73083 0
M  V30 3433 N 319.27 1.56325 -0.20005 0
M  V30 3434 C 320.519 1.96895 0.437652 0
M  V30 3435 C 320.832 1.08999 1.62415 0
M  V30 3436 O 322.038 1.39372 2.32997 0
M  V30 3437 C 320.494 3.50198 0.830025 0
M  V30 3438 C 320.102 4.46765 -0.332461 0
M  V30 3439 C 321.846 3.99526 1.43453 0
M  V30 3440 C 319.753 5.91344 0.0811468 0
M  V30 3441 H 318.683 0.735209 0.167282 0
M  V30 3442 H 321.334 1.81148 -0.292853 0
M  V30 3443 H 319.716 3.61467 1.61734 0
M  V30 3444 H 320.89 4.47231 -1.11 0
M  V30 3445 H 319.205 4.07657 -0.848789 0
M  V30 3446 H 321.802 5.05025 1.75652 0
M  V30 3447 H 322.145 3.44122 2.34277 0
M  V30 3448 H 322.678 3.91393 0.71109 0
M  V30 3449 H 319.417 6.50685 -0.793033 0
M  V30 3450 H 318.937 5.94121 0.823445 0
M  V30 3451 H 320.616 6.44945 0.515252 0
M  V30 3452 N 320.748 -0.0735177 1.57428 0
M  V30 3453 C 321.681 -1.11932 1.98863 0
M  V30 3454 C 322.659 -1.37666 0.865266 0
M  V30 3455 O 323.843 -1.51068 1.12742 0
M  V30 3456 C 320.97 -2.46403 2.32386 0
M  V30 3457 C 320.016 -2.36815 3.54713 0
M  V30 3458 S 320.849 -1.76392 5.05614 0
M  V30 3459 C 322.005 -3.12444 5.42337 0
M  V30 3460 H 322.238 -0.766212 2.87257 0
M  V30 3461 H 319.771 -0.281987 1.51803 0
M  V30 3462 H 321.729 -3.23755 2.52375 0
M  V30 3463 H 320.39 -2.78876 1.44524 0
M  V30 3464 H 319.583 -3.35977 3.7568 0
M  V30 3465 H 319.185 -1.67598 3.34345 0
M  V30 3466 H 321.477 -4.08753 5.40303 0
M  V30 3467 H 322.42 -2.96258 6.43146 0
M  V30 3468 H 322.828 -3.1297 4.69798 0
M  V30 3469 N 322.226 -1.5378 -0.344866 0
M  V30 3470 C 323.158 -1.77988 -1.44406 0
M  V30 3471 C 324.171 -0.661138 -1.48771 0
M  V30 3472 O 325.36 -0.937842 -1.51877 0
M  V30 3473 C 322.46 -1.86345 -2.8307 0
M  V30 3474 C 321.633 -3.16256 -3.0216 0
M  V30 3475 C 320.692 -3.15588 -4.21059 0
M  V30 3476 O 319.718 -3.89314 -4.15239 0
M  V30 3477 N 320.92 -2.37864 -5.29529 0
M  V30 3478 H 323.685 -2.72839 -1.24012 0
M  V30 3479 H 321.246 -1.52814 -0.534737 0
M  V30 3480 H 323.238 -1.83351 -3.60783 0
M  V30 3481 H 321.808 -0.986858 -2.96614 0
M  V30 3482 H 321.028 -3.32385 -2.11929 0
M  V30 3483 H 322.316 -4.0207 -3.11797 0
M  V30 3484 H 321.714 -1.77514 -5.37127 0
M  V30 3485 H 320.271 -2.40668 -6.05741 0
M  V30 3486 N 323.704 0.605807 -1.45491 0
M  V30 3487 C 324.634 1.72709 -1.57143 0
M  V30 3488 C 325.615 1.6476 -0.422884 0
M  V30 3489 O 326.8 1.83132 -0.646247 0
M  V30 3490 C 323.93 3.11316 -1.53948 0
M  V30 3491 C 322.884 3.34077 -2.67537 0
M  V30 3492 C 322.21 4.72975 -2.49397 0
M  V30 3493 C 323.51 3.24158 -4.09535 0
M  V30 3494 H 325.204 1.63214 -2.51001 0
M  V30 3495 H 322.75 0.78379 -1.208 0
M  V30 3496 H 324.703 3.89557 -1.60696 0
M  V30 3497 H 323.427 3.21655 -0.566205 0
M  V30 3498 H 322.086 2.58227 -2.6022 0
M  V30 3499 H 321.734 4.8005 -1.50205 0
M  V30 3500 H 321.434 4.8916 -3.25571 0
M  V30 3501 H 322.958 5.53414 -2.58002 0
M  V30 3502 H 324.372 3.92271 -4.18086 0
M  V30 3503 H 322.769 3.51872 -4.86113 0
M  V30 3504 H 323.839 2.2157 -4.31317 0
M  V30 3505 N 325.182 1.32811 0.848464 0
M  V30 3506 C 326.112 1.24882 1.97299 0
M  V30 3507 C 327.093 0.131357 1.69592 0
M  V30 3508 O 328.278 0.319553 1.91553 0
M  V30 3509 C 325.408 0.97746 3.33261 0
M  V30 3510 C 324.362 2.05682 3.75338 0
M  V30 3511 C 323.688 1.63777 5.09 0
M  V30 3512 C 324.988 3.47254 3.90144 0
M  V30 3513 H 326.682 2.18966 2.04191 0
M  V30 3514 H 324.228 1.05413 0.981029 0
M  V30 3515 H 326.181 0.908513 4.1149 0
M  V30 3516 H 324.905 0.000980011 3.266 0
M  V30 3517 H 323.564 2.11603 2.99366 0
M  V30 3518 H 323.212 0.648569 4.98801 0
M  V30 3519 H 322.912 2.36 5.38124 0
M  V30 3520 H 324.436 1.5833 5.89715 0
M  V30 3521 H 325.85 3.43888 4.58709 0
M  V30 3522 H 324.247 4.1788 4.30693 0
M  V30 3523 H 325.317 3.86462 2.92874 0
M  V30 3524 N 326.66 -1.06551 1.16123 0
M  V30 3525 C 328.076 -1.3142 0.905585 0
M  V30 3526 C 328.276 -1.96571 -0.442964 0
M  V30 3527 O 327.332 -2.23068 -1.18308 0
M  V30 3528 C 328.645 -2.19741 2.05267 0
M  V30 3529 C 330.193 -2.33165 2.08813 0
M  V30 3530 C 330.668 -3.24838 3.22868 0
M  V30 3531 N 332.159 -3.32421 3.22568 0
M  V30 3532 C 332.894 -4.0344 4.0746 0
M  V30 3533 N 332.39 -4.77003 5.02434 0
M  V30 3534 N 334.183 -3.99464 3.95456 0
M  V30 3535 H 326.334 -0.626548 2.02949 0
M  V30 3536 H 328.597 -0.338777 0.8854 0
M  V30 3537 H 328.303 -1.79142 3.02657 0
M  V30 3538 H 328.177 -3.20313 1.99198 0
M  V30 3539 H 330.564 -2.73013 1.12018 0
M  V30 3540 H 330.645 -1.3227 2.18948 0
M  V30 3541 H 330.289 -2.85708 4.19921 0
M  V30 3542 H 330.219 -4.25707 3.0997 0
M  V30 3543 H 332.71 -2.79994 2.53795 0
M  V30 3544 H 333.023 -5.28712 5.63634 0
M  V30 3545 H 331.368 -4.75992 5.06415 0
M  V30 3546 H 334.559 -3.4111 3.20564 0
M  V30 3547 H 334.732 -4.54544 4.61837 0
M  V30 3548 N 328.138 -0.959301 -1.25041 0
M  V30 3549 C 329.415 -0.533805 -1.88175 0
M  V30 3550 C 329.795 0.988994 -1.865 0
M  V30 3551 O 329.143 1.85677 -1.33177 0
M  V30 3552 C 329.353 -1.11575 -3.30684 0
M  V30 3553 C 330.701 -1.19548 -4.07423 0
M  V30 3554 O 331.725 -1.06765 -3.39823 0
M  V30 3555 O 330.584 -1.39656 -5.28354 0
M  V30 3556 H 327.678 -0.176772 -0.807887 0
M  V30 3557 H 330.224 -1.05303 -1.33076 0
M  V30 3558 H 328.996 -2.15884 -3.26358 0
M  V30 3559 H 328.619 -0.580059 -3.93346 0
M  V30 3560 N 329.616 1.39756 -0.72842 0
M  V30 3561 C 330.564 2.32485 -0.0731849 0
M  V30 3562 C 331.558 1.52717 0.733063 0
M  V30 3563 O 332.764 1.68428 0.634988 0
M  V30 3564 H 329.139 0.751984 -0.00486469 0
M  V30 3565 H 331.11 2.85382 -0.871761 0
M  V30 3566 C 329.859 3.37773 0.824908 0
M  V30 3567 H 329.182 3.99227 0.213915 0
M  V30 3568 H 330.622 4.05121 1.25111 0
M  V30 3569 C 329.081 2.74287 1.95622 0
M  V30 3570 O 329.611 2.61618 3.04826 0
M  V30 3571 N 327.817 2.32475 1.74367 0
M  V30 3572 H 327.364 2.4298 0.855494 0
M  V30 3573 H 327.322 1.90337 2.50238 0
M  V30 3574 N 331.094 0.475555 1.50254 0
M  V30 3575 C 332.024 -0.30611 2.31485 0
M  V30 3576 C 333.005 -0.986228 1.38591 0
M  V30 3577 O 334.19 -0.982541 1.67511 0
M  V30 3578 C 331.32 -1.38588 3.1845 0
M  V30 3579 C 330.274 -0.827115 4.19932 0
M  V30 3580 C 329.6 -2.00551 4.95665 0
M  V30 3581 C 330.9 0.16463 5.2204 0
M  V30 3582 H 332.594 0.371866 2.97082 0
M  V30 3583 H 330.14 0.180282 1.42867 0
M  V30 3584 H 332.093 -1.94023 3.74076 0
M  V30 3585 H 330.817 -2.09269 2.50747 0
M  V30 3586 H 329.476 -0.294702 3.65414 0
M  V30 3587 H 329.124 -2.6994 4.2443 0
M  V30 3588 H 328.824 -1.63784 5.64313 0
M  V30 3589 H 330.348 -2.56468 5.54127 0
M  V30 3590 H 331.762 -0.300699 5.72511 0
M  V30 3591 H 330.159 0.446813 5.98434 0
M  V30 3592 H 331.229 1.08905 4.72512 0
M  V30 3593 N 332.573 -1.56217 0.208337 0
M  V30 3594 C 333.801 -2.02337 -0.43215 0
M  V30 3595 C 334.216 -1.08834 -1.54275 0
M  V30 3596 O 333.573 -0.0955462 -1.8225 0
M  V30 3597 C 333.624 -3.48072 -0.976138 0
M  V30 3598 O 333.345 -4.38007 0.0901621 0
M  V30 3599 C 334.846 -4.09773 -1.69119 0
M  V30 3600 H 332.066 -0.662385 -0.10718 0
M  V30 3601 H 334.61 -2.01966 0.320923 0
M  V30 3602 H 332.765 -3.49099 -1.67954 0
M  V30 3603 H 333.179 -5.23543 -0.316701 0
M  V30 3604 H 334.653 -5.13556 -2.02397 0
M  V30 3605 H 335.13 -3.53999 -2.59964 0
M  V30 3606 H 335.736 -4.12556 -1.03332 0
M  V30 3607 N 334.051 0.0651679 -1.57465 0
M  V30 3608 C 334.981 1.07693 -2.07182 0
M  V30 3609 C 335.962 1.39962 -0.966673 0
M  V30 3610 O 337.147 1.49475 -1.2398 0
M  V30 3611 C 334.277 2.3885 -2.52127 0
M  V30 3612 C 333.231 2.20917 -3.66579 0
M  V30 3613 C 332.557 3.57515 -3.97601 0
M  V30 3614 C 333.857 1.62493 -4.9638 0
M  V30 3615 H 335.551 0.663199 -2.91962 0
M  V30 3616 H 333.097 0.317569 -1.40455 0
M  V30 3617 H 335.05 3.09928 -2.85522 0
M  V30 3618 H 333.774 2.82215 -1.64384 0
M  V30 3619 H 332.433 1.52279 -3.33477 0
M  V30 3620 H 332.081 3.98463 -3.06979 0
M  V30 3621 H 331.781 3.46353 -4.74672 0
M  V30 3622 H 333.305 4.30013 -4.33499 0
M  V30 3623 H 334.719 2.23445 -5.27963 0
M  V30 3624 H 333.116 1.62009 -5.77818 0
M  V30 3625 H 334.186 0.587041 -4.81333 0
M  V30 3626 N 335.529 1.53961 0.336706 0
M  V30 3627 C 336.775 1.7273 1.07406 0
M  V30 3628 C 337.13 0.488095 1.86106 0
M  V30 3629 O 336.423 -0.519379 1.84426 0
M  V30 3630 C 336.617 2.93493 2.03953 0
M  V30 3631 C 336.446 4.29039 1.34744 0
M  V30 3632 C 335.216 4.93416 1.08942 0
M  V30 3633 C 337.414 5.08501 0.770115 0
M  V30 3634 N 335.396 6.12821 0.363864 0
M  V30 3635 C 336.767 6.19752 0.175472 0
M  V30 3636 C 338.822 4.93349 0.671633 0
M  V30 3637 C 337.525 7.17503 -0.508081 0
M  V30 3638 C 339.551 5.914 0.0018076 0
M  V30 3639 C 338.913 7.01993 -0.581835 0
M  V30 3640 H 335.012 0.685026 0.377177 0
M  V30 3641 H 337.596 1.91403 0.356815 0
M  V30 3642 H 335.767 2.76308 2.72962 0
M  V30 3643 H 337.499 3.00949 2.70577 0
M  V30 3644 H 334.254 4.53099 1.37833 0
M  V30 3645 H 334.678 6.76998 0.0156092 0
M  V30 3646 H 339.32 4.08007 1.1086 0
M  V30 3647 H 337.038 8.02414 -0.956918 0
M  V30 3648 H 340.624 5.81753 -0.0738538 0
M  V30 3649 H 339.504 7.76561 -1.09192 0
M  V30 3650 N 337.007 -0.598083 1.45811 0
M  V30 3651 C 338.235 -1.38322 1.53866 0
M  V30 3652 C 338.65 -1.87992 0.174479 0
M  V30 3653 O 338.007 -1.62756 -0.825627 0
M  V30 3654 C 338.058 -2.58125 2.53089 0
M  V30 3655 O 337.779 -2.10516 3.84206 0
M  V30 3656 C 339.28 -3.50869 2.70935 0
M  V30 3657 H 336.5 -0.423093 0.520801 0
M  V30 3658 H 339.044 -0.728527 1.91083 0
M  V30 3659 H 337.199 -3.19615 2.18917 0
M  V30 3660 H 337.613 -2.88425 4.38077 0
M  V30 3661 H 339.087 -4.31451 3.44317 0
M  V30 3662 H 339.564 -4.01822 1.77301 0
M  V30 3663 H 340.17 -2.95225 3.06141 0
M  V30 3664 N 338.485 -1.33259 -0.841409 0
M  V30 3665 C 339.71 -1.2775 -1.63385 0
M  V30 3666 C 340.135 0.149188 -1.87507 0
M  V30 3667 O 339.493 1.10498 -1.43736 0
M  V30 3668 C 339.541 -2.05571 -2.96265 0
M  V30 3669 O 338.645 -1.41257 -3.87453 0
M  V30 3670 H 337.986 -0.439627 -0.497618 0
M  V30 3671 H 340.516 -1.75782 -1.04699 0
M  V30 3672 H 340.526 -2.16241 -3.45982 0
M  V30 3673 H 339.201 -3.09309 -2.7803 0
M  V30 3674 H 337.778 -1.39217 -3.45938 0
M  V30 3675 N 339.963 1.05934 -1.16686 0
M  V30 3676 C 341.24 1.75643 -0.860747 0
M  V30 3677 C 341.62 2.01144 0.640641 0
M  V30 3678 O 340.968 1.64147 1.58959 0
M  V30 3679 C 341.178 3.05493 -1.68745 0
M  V30 3680 C 342.526 3.79581 -1.90271 0
M  V30 3681 O 343.55 3.15344 -1.65641 0
M  V30 3682 O 342.409 4.9499 -2.31618 0
M  V30 3683 H 339.503 0.763426 -0.317977 0
M  V30 3684 H 342.049 1.1217 -1.27342 0
M  V30 3685 H 340.821 2.8264 -2.70611 0
M  V30 3686 H 340.444 3.76702 -1.27206 0
M  V30 3687 N 341.441 0.965919 1.2453 0
M  V30 3688 C 342.669 0.644385 1.96609 0
M  V30 3689 C 343.084 -0.785823 1.71669 0
M  V30 3690 O 342.441 -1.52703 0.999399 0
M  V30 3691 C 342.492 0.907375 3.49927 0
M  V30 3692 O 342.213 2.28136 3.74013 0
M  V30 3693 C 343.714 0.599784 4.39224 0
M  V30 3694 H 340.934 0.240588 0.626385 0
M  V30 3695 H 343.478 1.29337 1.58405 0
M  V30 3696 H 341.633 0.304631 3.862 0
M  V30 3697 H 342.047 2.36002 4.68405 0
M  V30 3698 H 343.521 0.834263 5.45659 0
M  V30 3699 H 343.998 -0.465921 4.36722 0
M  V30 3700 H 344.604 1.18235 4.08535 0
M  V30 3701 N 342.919 -1.39368 0.735821 0
M  V30 3702 C 343.851 -2.2913 0.0567723 0
M  V30 3703 C 344.864 -1.46859 -0.702589 0
M  V30 3704 O 346.053 -1.69925 -0.546616 0
M  V30 3705 C 343.153 -3.25492 -0.943823 0
M  V30 3706 C 342.326 -4.36709 -0.24581 0
M  V30 3707 C 341.385 -5.13376 -1.15463 0
M  V30 3708 O 340.411 -5.65683 -0.631803 0
M  V30 3709 N 341.613 -5.24656 -2.48427 0
M  V30 3710 H 344.378 -2.88047 0.827582 0
M  V30 3711 H 341.939 -1.50957 0.585112 0
M  V30 3712 H 343.931 -3.73657 -1.55443 0
M  V30 3713 H 342.501 -2.676 -1.61583 0
M  V30 3714 H 341.721 -3.9041 0.545286 0
M  V30 3715 H 343.009 -5.08244 0.237891 0
M  V30 3716 H 342.407 -4.83679 -2.93379 0
M  V30 3717 H 340.964 -5.76258 -3.04582 0
M  V30 3718 N 344.397 -0.483516 -1.5 0
M  V30 3719 C 345.645 0.067027 -2.01989 0
M  V30 3720 C 345.966 1.3909 -1.36671 0
M  V30 3721 O 345.236 1.88978 -0.516152 0
M  V30 3722 H 343.816 0.0277606 -0.746484 0
M  V30 3723 H 346.478 -0.636773 -1.84204 0
M  V30 3724 H 345.574 0.209484 -3.11396 0
M  V30 3725 N 345.875 1.56104 -0.216619 0
M  V30 3726 C 347.152 1.89988 0.465165 0
M  V30 3727 C 347.532 1.13326 1.78102 0
M  V30 3728 O 346.88 0.241033 2.27225 0
M  V30 3729 C 347.09 3.42646 0.662939 0
M  V30 3730 C 348.438 4.13311 0.972602 0
M  V30 3731 O 349.462 3.48217 0.749901 0
M  V30 3732 O 348.321 5.28396 1.39499 0
M  V30 3733 H 345.415 0.78979 0.245276 0
M  V30 3734 H 347.961 1.67721 -0.258436 0
M  V30 3735 H 346.733 3.90399 -0.26543 0
M  V30 3736 H 346.356 3.70677 1.43821 0
M  V30 3737 N 347.353 -0.0568162 1.57498 0
M  V30 3738 C 348.263 -1.08346 2.08083 0
M  V30 3739 C 349.279 -1.41439 1.01346 0
M  V30 3740 O 350.455 -1.51316 1.32912 0
M  V30 3741 C 347.52 -2.37352 2.52715 0
M  V30 3742 C 346.581 -2.11093 3.73816 0
M  V30 3743 C 345.814 -3.33949 4.1631 0
M  V30 3744 O 346.037 -4.43622 3.58547 0
M  V30 3745 O 344.971 -3.21279 5.08983 0
M  V30 3746 H 348.797 -0.683667 2.95905 0
M  V30 3747 H 346.382 -0.271965 1.46904 0
M  V30 3748 H 348.264 -3.13246 2.81877 0
M  V30 3749 H 346.939 -2.76681 1.68016 0
M  V30 3750 H 345.846 -1.32856 3.49714 0
M  V30 3751 H 347.179 -1.76637 4.59413 0
M  V30 3752 N 348.832 -1.54138 -0.328536 0
M  V30 3753 C 349.795 -1.82462 -1.38709 0
M  V30 3754 C 350.795 -0.696229 -1.44946 0
M  V30 3755 O 351.985 -0.964535 -1.4506 0
M  V30 3756 C 349.117 -1.98018 -2.77492 0
M  V30 3757 H 350.31 -2.77037 -1.14851 0
M  V30 3758 H 347.863 -1.45779 -0.563751 0
M  V30 3759 H 348.598 -1.05637 -3.06613 0
M  V30 3760 H 348.383 -2.80124 -2.74359 0
M  V30 3761 H 349.873 -2.21396 -3.54081 0
M  V30 3762 N 350.31 0.590341 -1.46126 0
M  V30 3763 C 351.22 1.72793 -1.58681 0
M  V30 3764 C 352.236 1.67516 -0.470566 0
M  V30 3765 O 353.412 1.87562 -0.733642 0
M  V30 3766 C 350.477 3.09287 -1.5666 0
M  V30 3767 C 349.538 3.25886 -2.79458 0
M  V30 3768 C 348.771 4.55869 -2.77524 0
M  V30 3769 O 348.994 5.3928 -1.85832 0
M  V30 3770 O 347.928 4.75552 -3.68964 0
M  V30 3771 H 351.754 1.65149 -2.54872 0
M  V30 3772 H 349.339 0.756486 -1.28832 0
M  V30 3773 H 351.221 3.90577 -1.58202 0
M  V30 3774 H 349.896 3.17385 -0.636271 0
M  V30 3775 H 348.803 2.44119 -2.83472 0
M  V30 3776 H 350.136 3.22675 -3.71674 0
M  V30 3777 N 351.788 1.33704 0.83433 0
M  V30 3778 C 352.751 1.24244 1.92603 0
M  V30 3779 C 353.751 0.160383 1.59998 0
M  V30 3780 O 354.941 0.412228 1.69252 0
M  V30 3781 C 352.073 0.91555 3.28376 0
M  V30 3782 H 353.266 2.21287 2.02416 0
M  V30 3783 H 350.819 1.17827 1.02696 0
M  V30 3784 H 351.554 -0.0521886 3.24258 0
M  V30 3785 H 351.339 1.69811 3.53422 0
M  V30 3786 H 352.829 0.874231 4.08347 0
M  V30 3787 N 353.266 -1.05314 1.17247 0
M  V30 3788 C 354.514 -1.77941 0.958194 0
M  V30 3789 C 354.835 -1.88089 -0.514556 0
M  V30 3790 O 354.105 -1.39676 -1.37359 0
M  V30 3791 H 352.685 -0.659116 0.351533 0
M  V30 3792 H 355.347 -1.27166 1.47699 0
M  V30 3793 H 354.443 -2.79663 1.38546 0
M  V30 3794 N 354.744 -0.972509 -1.24016 0
M  V30 3795 C 355.654 -0.5143 -2.28893 0
M  V30 3796 C 356.67 0.427078 -1.68677 0
M  V30 3797 O 357.846 0.298939 -1.99169 0
M  V30 3798 C 354.911 0.183598 -3.46214 0
M  V30 3799 C 353.972 -0.798202 -4.21814 0
M  V30 3800 C 353.205 -0.133514 -5.33533 0
M  V30 3801 O 353.428 1.07714 -5.60137 0
M  V30 3802 O 352.362 -0.828103 -5.96176 0
M  V30 3803 H 356.188 -1.38629 -2.70214 0
M  V30 3804 H 353.773 -0.739769 -1.29799 0
M  V30 3805 H 355.655 0.575433 -4.17453 0
M  V30 3806 H 354.33 1.03048 -3.0686 0
M  V30 3807 H 353.237 -1.24059 -3.52931 0
M  V30 3808 H 354.57 -1.61364 -4.64997 0
M  V30 3809 N 356.222 1.38976 -0.743202 0
M  V30 3810 C 357.47 1.99948 -0.29417 0
M  V30 3811 C 357.791 1.59279 1.12495 0
M  V30 3812 O 357.061 0.844808 1.76748 0
M  V30 3813 H 355.641 0.739473 -0.105774 0
M  V30 3814 H 358.303 1.699 -0.954986 0
M  V30 3815 H 357.399 3.10142 -0.349056 0
M  V30 3816 N 357.7 0.491464 1.49741 0
M  V30 3817 C 358.948 -0.0563141 2.02022 0
M  V30 3818 C 359.269 -1.38363 1.37407 0
M  V30 3819 O 358.539 -1.88702 0.526166 0
M  V30 3820 H 357.119 -0.0238014 0.746621 0
M  V30 3821 H 359.781 0.646533 1.83864 0
M  V30 3822 H 358.877 -0.192967 3.11503 0
M  V30 3823 N 359.178 -1.55987 0.224894 0
M  V30 3824 C 360.088 -2.24066 -0.69511 0
M  V30 3825 C 361.104 -1.24939 -1.21104 0
M  V30 3826 O 362.28 -1.5776 -1.25195 0
M  V30 3827 C 359.345 -2.90983 -1.88493 0
M  V30 3828 C 358.406 -4.05462 -1.41064 0
M  V30 3829 C 357.639 -4.69179 -2.54375 0
M  V30 3830 O 357.862 -4.31895 -3.72589 0
M  V30 3831 O 356.796 -5.58108 -2.25386 0
M  V30 3832 H 360.622 -3.03353 -0.145149 0
M  V30 3833 H 358.207 -1.49399 -0.00569476 0
M  V30 3834 H 360.089 -3.33209 -2.57972 0
M  V30 3835 H 358.764 -2.14653 -2.42293 0
M  V30 3836 H 357.671 -3.67798 -0.683774 0
M  V30 3837 H 359.004 -4.83545 -0.918985 0
M  V30 3838 N 360.656 0.0484629 -1.57525 0
M  V30 3839 C 361.604 1.07359 -2.06341 0
M  V30 3840 C 362.598 1.3865 -0.973269 0
M  V30 3841 O 363.804 1.37783 -1.15827 0
M  V30 3842 H 360.179 0.363662 -0.65822 0
M  V30 3843 H 362.15 0.635916 -2.91545 0
M  V30 3844 C 360.899 2.37198 -2.54229 0
M  V30 3845 H 360.222 2.13977 -3.37719 0
M  V30 3846 H 361.662 3.07319 -2.92115 0
M  V30 3847 C 360.121 3.04805 -1.43511 0
M  V30 3848 O 360.651 3.93848 -0.79034 0
M  V30 3849 N 358.857 2.65811 -1.17444 0
M  V30 3850 H 358.404 1.93488 -1.70059 0
M  V30 3851 H 358.362 3.11366 -0.435737 0
M  V30 3852 O 362.173 1.60359 0.191666 0
M  V30 3853 H 362.864 1.75005 0.830227 0
M  V30 END ATOM
M  V30 BEGIN BOND
M  V30 END BOND
M  V30 END CTAB
M  END
$$$$
