drugbank_target|P01552 Enterotoxin type B (DB02379; DB03721)
 OpenBabel12092120023D

  0  0  0     0  0            999 V3000
M  V30 BEGIN CTAB
M  V30 COUNTS 4408 4458 0 0 0
M  V30 BEGIN ATOM
M  V30 1 H -0.908 1.98254 -0.117106 0
M  V30 2 N 0 1.576 0 0
M  V30 3 C 0.933 2.03868 1.02534 0
M  V30 4 C 1.911 0.928543 1.3348 0
M  V30 5 O 3.095 1.19667 1.45644 0
M  V30 6 C 0.222 2.43627 2.35294 0
M  V30 7 C -0.732 3.65373 2.2001 0
M  V30 8 S 0.101 5.13292 1.52614 0
M  V30 9 C 1.257 5.56322 2.86805 0
M  V30 10 H 1.49 2.90518 0.631377 0
M  V30 11 H -0.977 1.52953 0.210867 0
M  V30 12 H 0.981 2.67203 3.11629 0
M  V30 13 H -0.358 1.57376 2.7183 0
M  V30 14 H -1.165 3.90944 3.18086 0
M  V30 15 H -1.563 3.418 1.51819 0
M  V30 16 H 0.729 5.58782 3.83104 0
M  V30 17 H 1.672 6.56266 2.65933 0
M  V30 18 H 2.08 4.83886 2.90714 0
M  V30 19 N 1.4781 -0.272755 1.55222 0
M  V30 20 C 2.7081 -1.02107 1.79604 0
M  V30 21 C 3.1161 -1.80419 0.569693 0
M  V30 22 O 2.4591 -1.77566 -0.470743 0
M  V30 23 C 2.5211 -2.02675 2.96922 0
M  V30 24 C 2.1851 -1.43299 4.33952 0
M  V30 25 C 3.1821 -0.84853 5.12929 0
M  V30 26 C 0.8671 -1.46012 4.8061 0
M  V30 27 C 2.8611 -0.299109 6.36698 0
M  V30 28 C 0.5481 -0.906833 6.04334 0
M  V30 29 C 1.5461 -0.32733 6.82215 0
M  V30 30 O 1.2341 0.217479 8.03606 0
M  V30 31 H 0.9661 -0.307322 0.602104 0
M  V30 32 H 3.5201 -0.308862 2.03065 0
M  V30 33 H 1.7501 -2.77656 2.69155 0
M  V30 34 H 3.4391 -2.63637 3.08626 0
M  V30 35 H 4.2051 -0.820265 4.78013 0
M  V30 36 H 0.0841 -1.90056 4.2 0
M  V30 37 H 3.6281 0.153852 6.9743 0
M  V30 38 H -0.4749 -0.932339 6.38731 0
M  V30 39 H 0.2931 0.106863 8.1843 0
M  V30 40 N 2.9562 -1.48159 -0.537278 0
M  V30 41 C 3.9032 -1.62138 -1.64256 0
M  V30 42 C 4.8732 -0.463668 -1.59497 0
M  V30 43 O 6.0582 -0.686241 -1.78032 0
M  V30 44 C 3.1982 -1.66028 -3.02537 0
M  V30 45 C 2.3112 -2.92855 -3.17585 0
M  V30 46 C 1.4462 -2.87952 -4.46382 0
M  V30 47 C 0.4852 -4.09516 -4.54932 0
M  V30 48 N -0.3778 -4.02733 -5.75109 0
M  V30 49 H 4.4622 -2.56529 -1.51647 0
M  V30 50 H 1.9992 -1.27224 -0.738414 0
M  V30 51 H 3.9572 -1.66265 -3.82638 0
M  V30 52 H 2.5872 -0.751331 -3.13934 0
M  V30 53 H 1.6392 -3.02395 -2.30784 0
M  V30 54 H 2.9512 -3.82822 -3.19764 0
M  V30 55 H 2.1052 -2.8655 -5.34765 0
M  V30 56 H 0.8442 -1.95702 -4.46712 0
M  V30 57 H -0.1508 -4.11201 -3.64957 0
M  V30 58 H 1.0742 -5.02917 -4.56346 0
M  V30 59 H -0.9798 -3.13299 -5.76351 0
M  V30 60 H -1.0628 -4.86397 -5.78752 0
M  V30 61 H 0.2052 -4.05379 -6.65799 0
M  V30 62 N 4.4343 0.785586 -1.36625 0
M  V30 63 C 5.8503 1.08419 -1.17122 0
M  V30 64 C 6.0503 2.015 0.00208491 0
M  V30 65 O 5.1063 2.43551 0.666278 0
M  V30 66 C 6.4193 1.69498 -2.48377 0
M  V30 67 C 7.9673 1.81821 -2.54775 0
M  V30 68 C 8.4423 2.46315 -3.86126 0
M  V30 69 N 9.9333 2.53779 -3.87492 0
M  V30 70 C 10.6683 3.045 -4.85868 0
M  V30 71 N 10.1643 3.55499 -5.94637 0
M  V30 72 N 11.9573 3.03247 -4.73284 0
M  V30 73 H 4.1083 0.167264 -2.1174 0
M  V30 74 H 6.3713 0.13682 -0.938075 0
M  V30 75 H 6.0773 1.08571 -3.34522 0
M  V30 76 H 5.9513 2.6896 -2.64462 0
M  V30 77 H 8.3383 2.41884 -1.69045 0
M  V30 78 H 8.4193 0.811532 -2.42586 0
M  V30 79 H 8.0633 1.86895 -4.72263 0
M  V30 80 H 7.9933 3.47561 -3.95612 0
M  V30 81 H 10.4843 2.17672 -3.08913 0
M  V30 82 H 10.7973 3.92562 -6.65669 0
M  V30 83 H 9.1423 3.5364 -5.98301 0
M  V30 84 H 12.3333 2.62696 -3.87438 0
M  V30 85 H 12.5063 3.42467 -5.50109 0
M  V30 86 N 5.9124 1.20967 1.01018 0
M  V30 87 C 6.8424 0.988272 2.11555 0
M  V30 88 C 7.8234 -0.0849778 1.69888 0
M  V30 89 O 9.0084 0.0738202 1.9406 0
M  V30 90 C 6.1384 0.546528 3.42973 0
M  V30 91 C 5.0924 1.56375 3.9841 0
M  V30 92 C 4.4184 0.97842 5.25672 0
M  V30 93 C 5.7184 2.94922 4.31066 0
M  V30 94 H 7.4124 1.91276 2.30334 0
M  V30 95 H 4.9584 0.921073 1.1069 0
M  V30 96 H 6.9114 0.378839 4.19694 0
M  V30 97 H 5.6354 -0.413598 3.23971 0
M  V30 98 H 4.2944 1.71891 3.23804 0
M  V30 99 H 3.9424 0.0101688 5.02999 0
M  V30 100 H 3.6424 1.65784 5.63728 0
M  V30 101 H 5.1664 0.821939 6.05043 0
M  V30 102 H 6.5804 2.8288 4.9865 0
M  V30 103 H 4.9774 3.5983 4.80253 0
M  V30 104 H 6.0474 3.4616 3.39561 0
M  V30 105 N 7.3905 -1.2043 1.01659 0
M  V30 106 C 8.6375 -1.89797 0.705917 0
M  V30 107 C 8.9655 -1.78848 -0.764439 0
M  V30 108 O 8.2205 -1.16694 -1.57102 0
M  V30 109 C 8.5195 -3.40464 1.08714 0
M  V30 110 C 8.1855 -3.71614 2.5537 0
M  V30 111 C 6.8475 -3.79826 2.95441 0
M  V30 112 C 9.1995 -3.85915 3.50313 0
M  V30 113 C 6.5275 -3.99797 4.29394 0
M  V30 114 C 8.8795 -4.07396 4.83954 0
M  V30 115 C 7.5435 -4.13837 5.23732 0
M  V30 116 H 6.8135 -0.694518 0.258313 0
M  V30 117 H 9.4605 -1.42691 1.27717 0
M  V30 118 H 7.7655 -3.89385 0.434309 0
M  V30 119 H 9.4625 -3.92433 0.824461 0
M  V30 120 H 6.0525 -3.65822 2.23321 0
M  V30 121 H 10.2365 -3.78926 3.20513 0
M  V30 122 H 5.4925 -4.03018 4.59768 0
M  V30 123 H 9.6665 -4.17404 5.57447 0
M  V30 124 H 7.2935 -4.29064 6.27541 0
M  V30 125 N 8.8686 -0.792821 -1.36206 0
M  V30 126 C 10.1176 -0.363353 -1.984 0
M  V30 127 C 10.4306 1.07172 -1.63626 0
M  V30 128 O 11.6366 1.60362 -2.19081 0
M  V30 129 C 10.0926 -0.59872 -3.54885 0
M  V30 130 C 9.7006 -2.04543 -3.9858 0
M  V30 131 C 11.4446 -0.233926 -4.23855 0
M  V30 132 C 9.3516 -2.22727 -5.47856 0
M  V30 133 H 8.2816 -0.13212 -0.742334 0
M  V30 134 H 10.9326 -0.974935 -1.55458 0
M  V30 135 H 9.3146 0.0826222 -3.95914 0
M  V30 136 H 10.4886 -2.76345 -3.68741 0
M  V30 137 H 8.8036 -2.36879 -3.42458 0
M  V30 138 H 11.4006 -0.348027 -5.33566 0
M  V30 139 H 11.7436 0.818351 -4.08177 0
M  V30 140 H 12.2766 -0.868639 -3.882 0
M  V30 141 H 9.0156 -3.2635 -5.68486 0
M  V30 142 H 8.5356 -1.55434 -5.7931 0
M  V30 143 H 10.2146 -2.03607 -6.14128 0
M  V30 144 N 10.3467 1.47872 -0.545128 0
M  V30 145 C 11.5717 2.07391 -0.0190611 0
M  V30 146 C 11.9967 1.39688 1.25971 0
M  V30 147 O 11.3547 0.467816 1.7516 0
M  V30 148 C 11.4027 3.60188 0.172335 0
M  V30 149 O 10.5067 3.9339 1.23766 0
M  V30 150 H 9.8477 0.662411 -0.0459059 0
M  V30 151 H 12.3777 1.90066 -0.757365 0
M  V30 152 H 12.3877 4.06129 0.390305 0
M  V30 153 H 11.0627 4.08865 -0.761725 0
M  V30 154 H 9.6397 3.5921 1.00114 0
M  V30 155 N 11.8248 0.280983 1.55075 0
M  V30 156 C 12.7748 -0.618585 2.19448 0
M  V30 157 C 13.7588 -1.11401 1.16098 0
M  V30 158 O 14.9508 -1.0581 1.41891 0
M  V30 159 C 12.0798 -1.79951 2.92357 0
M  V30 160 C 11.1658 -1.321 4.03002 0
M  V30 161 N 11.5568 -0.559044 5.02701 0
M  V30 162 C 9.8548 -1.60346 4.16179 0
M  V30 163 C 10.5558 -0.306722 5.80891 0
M  V30 164 N 9.5318 -0.880825 5.36416 0
M  V30 165 H 13.3338 -0.0286638 2.93886 0
M  V30 166 H 10.8478 0.0848104 1.62178 0
M  V30 167 H 12.8448 -2.45531 3.36927 0
M  V30 168 H 11.5048 -2.39333 2.19431 0
M  V30 169 H 12.5158 -0.205827 5.17491 0
M  V30 170 H 9.1928 -2.20621 3.54447 0
M  V30 171 H 10.5828 0.30391 6.71212 0
M  V30 172 N 13.3029 -1.57598 0.00835791 0
M  V30 173 C 14.5489 -1.91211 -0.675732 0
M  V30 174 C 14.8819 -0.883139 -1.72958 0
M  V30 175 O 14.1569 0.097016 -1.94258 0
M  V30 176 C 14.4399 -3.35379 -1.31123 0
M  V30 177 C 14.2929 -4.48999 -0.268356 0
M  V30 178 C 15.6119 -3.7912 -2.23508 0
M  V30 179 H 12.7309 -0.695374 -0.244179 0
M  V30 180 H 15.3729 -1.89901 0.0613655 0
M  V30 181 H 13.5229 -3.36626 -1.93946 0
M  V30 182 H 15.1949 -4.59887 0.360844 0
M  V30 183 H 13.4379 -4.31873 0.408482 0
M  V30 184 H 14.1089 -5.46851 -0.752218 0
M  V30 185 H 16.5849 -3.79477 -1.70693 0
M  V30 186 H 15.4609 -4.80729 -2.64936 0
M  V30 187 H 15.7219 -3.13455 -3.11766 0
M  V30 188 N 14.781 0.264519 -1.55364 0
M  V30 189 C 16.03 0.992812 -1.75574 0
M  V30 190 C 16.343 1.87142 -0.568979 0
M  V30 191 O 17.549 2.63513 -0.653682 0
M  V30 192 C 16.005 1.81519 -3.10771 0
M  V30 193 C 15.613 0.984839 -4.37041 0
M  V30 194 C 17.357 2.53727 -3.40327 0
M  V30 195 C 15.264 1.80209 -5.63275 0
M  V30 196 H 14.194 0.374412 -0.65447 0
M  V30 197 H 16.845 0.248138 -1.81815 0
M  V30 198 H 15.227 2.60115 -2.98591 0
M  V30 199 H 16.401 0.242455 -4.60162 0
M  V30 200 H 14.716 0.37691 -4.14691 0
M  V30 201 H 17.313 3.15292 -4.3185 0
M  V30 202 H 17.656 3.24447 -2.60845 0
M  V30 203 H 18.189 1.82156 -3.53644 0
M  V30 204 H 14.928 1.13896 -6.45529 0
M  V30 205 H 14.448 2.52022 -5.44284 0
M  V30 206 H 16.127 2.37364 -6.01887 0
M  V30 207 N 16.2591 1.48442 0.529413 0
M  V30 208 C 17.1891 1.65902 1.64313 0
M  V30 209 C 18.1701 0.507897 1.6234 0
M  V30 210 O 19.3551 0.740503 1.79528 0
M  V30 211 C 16.4851 1.69911 3.02898 0
M  V30 212 C 15.4391 2.8453 3.19729 0
M  V30 213 C 14.7651 2.73629 4.59381 0
M  V30 214 C 16.0651 4.25821 3.02447 0
M  V30 215 H 17.7591 2.5914 1.49955 0
M  V30 216 H 15.3051 1.24709 0.719982 0
M  V30 217 H 17.2581 1.80715 3.80684 0
M  V30 218 H 15.9821 0.732524 3.18279 0
M  V30 219 H 14.6411 2.73283 2.44361 0
M  V30 220 H 14.2891 1.74938 4.71599 0
M  V30 221 H 13.9891 3.50541 4.71588 0
M  V30 222 H 15.5131 2.86401 5.39265 0
M  V30 223 H 16.9271 4.37898 3.70024 0
M  V30 224 H 15.3241 5.03735 3.26146 0
M  V30 225 H 16.3941 4.42244 1.98867 0
M  V30 226 N 17.7372 -0.778329 1.37039 0
M  V30 227 C 18.9862 -1.53189 1.3121 0
M  V30 228 C 19.2992 -1.95328 -0.103095 0
M  V30 229 O 20.5052 -2.70012 -0.283826 0
M  V30 230 C 18.9612 -2.76591 2.30272 0
M  V30 231 C 18.5692 -2.41577 3.77286 0
M  V30 232 C 20.3132 -3.5455 2.33441 0
M  V30 233 C 18.2202 -3.61441 4.68096 0
M  V30 234 H 17.1502 -0.5751 0.487622 0
M  V30 235 H 19.8012 -0.853101 1.62464 0
M  V30 236 H 18.1832 -3.46326 1.92027 0
M  V30 237 H 19.3572 -1.79668 4.2433 0
M  V30 238 H 17.6722 -1.76806 3.76999 0
M  V30 239 H 20.2692 -4.43628 2.98493 0
M  V30 240 H 20.6122 -3.93936 1.34611 0
M  V30 241 H 21.1452 -2.91805 2.7036 0
M  V30 242 H 17.8842 -3.27142 5.6803 0
M  V30 243 H 17.4042 -4.22478 4.25761 0
M  V30 244 H 19.0832 -4.28335 4.8491 0
M  V30 245 N 19.2153 -1.21501 -1.00376 0
M  V30 246 C 20.4623 -1.03299 -1.74171 0
M  V30 247 C 20.7903 0.433326 -1.89612 0
M  V30 248 O 20.0453 1.33779 -1.42834 0
M  V30 249 C 20.3443 -1.67673 -3.15627 0
M  V30 250 C 20.0103 -3.17533 -3.2013 0
M  V30 251 C 18.6723 -3.58427 -3.21067 0
M  V30 252 C 21.0243 -4.13504 -3.17275 0
M  V30 253 C 18.3523 -4.93794 -3.16835 0
M  V30 254 C 20.7043 -5.48834 -3.14585 0
M  V30 255 C 19.3683 -5.89123 -3.13831 0
M  V30 256 H 18.6383 -0.377999 -0.637336 0
M  V30 257 H 21.2853 -1.51111 -1.17634 0
M  V30 258 H 19.5903 -1.12158 -3.75404 0
M  V30 259 H 21.2873 -1.51091 -3.71446 0
M  V30 260 H 17.8773 -2.84965 -3.20145 0
M  V30 261 H 22.0613 -3.82936 -3.15711 0
M  V30 262 H 17.3173 -5.24255 -3.1459 0
M  V30 263 H 21.4913 -6.22934 -3.1133 0
M  V30 264 H 19.1183 -6.93984 -3.10307 0
M  V30 265 N 20.6934 1.19889 -1.02296 0
M  V30 266 C 21.6564 2.21116 -0.603351 0
M  V30 267 C 22.6564 1.5738 0.329884 0
M  V30 268 O 23.8464 1.73802 0.117702 0
M  V30 269 C 20.9784 3.40696 0.117992 0
M  V30 270 H 22.1714 2.59754 -1.49893 0
M  V30 271 H 19.7244 1.33463 -0.813468 0
M  V30 272 H 20.4594 3.07569 1.0282 0
M  V30 273 H 20.2444 3.88188 -0.552511 0
M  V30 274 H 21.7344 4.15692 0.398696 0
M  V30 275 N 22.1715 0.800033 1.35784 0
M  V30 276 C 23.1015 0.220184 2.3246 0
M  V30 277 C 24.0825 -0.65073 1.57161 0
M  V30 278 O 25.2675 -0.582359 1.85263 0
M  V30 279 C 22.3975 -0.637353 3.41402 0
M  V30 280 C 21.3515 0.134531 4.27789 0
M  V30 281 C 20.6775 -0.844285 5.27992 0
M  V30 282 C 21.9775 1.32979 5.05088 0
M  V30 283 H 23.6715 1.02787 2.81203 0
M  V30 284 H 21.2175 0.495717 1.35199 0
M  V30 285 H 23.1705 -1.05302 4.08031 0
M  V30 286 H 21.8945 -1.47785 2.91251 0
M  V30 287 H 20.5535 0.531296 3.6273 0
M  V30 288 H 20.2015 -1.68011 4.74111 0
M  V30 289 H 19.9015 -0.332184 5.8666 0
M  V30 290 H 21.4255 -1.2583 5.97494 0
M  V30 291 H 22.8395 0.98934 5.64699 0
M  V30 292 H 21.2365 1.77593 5.7322 0
M  V30 293 H 22.3065 2.11978 4.36111 0
M  V30 294 N 23.6496 -1.47581 0.552962 0
M  V30 295 C 24.8986 -2.01684 0.0251995 0
M  V30 296 C 25.2116 -1.43317 -1.33115 0
M  V30 297 O 26.4176 -1.89057 -1.94858 0
M  V30 298 C 24.8736 -3.599 -0.00542052 0
M  V30 299 C 24.4816 -4.27257 1.34742 0
M  V30 300 C 26.2256 -4.21768 -0.4808 0
M  V30 301 C 24.1326 -5.77467 1.27614 0
M  V30 302 H 23.0626 -0.753979 0.00565033 0
M  V30 303 H 25.7136 -1.69616 0.70018 0
M  V30 304 H 24.0956 -3.88911 -0.745961 0
M  V30 305 H 25.2696 -4.09893 2.10534 0
M  V30 306 H 23.5846 -3.77358 1.76039 0
M  V30 307 H 26.1816 -5.31838 -0.55246 0
M  V30 308 H 26.5246 -3.88651 -1.49184 0
M  V30 309 H 27.0576 -3.97273 0.204752 0
M  V30 310 H 23.7966 -6.15196 2.26304 0
M  V30 311 H 23.3166 -5.9718 0.55996 0
M  V30 312 H 24.9956 -6.3959 0.976421 0
M  V30 313 N 25.1277 -0.289203 -1.54924 0
M  V30 314 C 26.0577 0.58549 -2.2604 0
M  V30 315 C 27.0387 1.14753 -1.25562 0
M  V30 316 O 28.2237 1.17906 -1.54311 0
M  V30 317 C 25.3537 1.76305 -2.99222 0
M  V30 318 C 24.3077 1.33191 -4.06748 0
M  V30 319 C 23.6337 2.5937 -4.6758 0
M  V30 320 C 24.9337 0.471775 -5.20165 0
M  V30 321 H 26.6277 -0.00763532 -2.99399 0
M  V30 322 H 24.1737 -0.00511229 -1.43999 0
M  V30 323 H 26.1267 2.38097 -3.47689 0
M  V30 324 H 24.8507 2.38223 -2.23422 0
M  V30 325 H 23.5097 0.737121 -3.59113 0
M  V30 326 H 23.1577 3.19576 -3.88433 0
M  V30 327 H 22.8577 2.31228 -5.40192 0
M  V30 328 H 24.3817 3.21985 -5.18804 0
M  V30 329 H 25.7957 0.995056 -5.64599 0
M  V30 330 H 24.1927 0.284639 -5.99425 0
M  V30 331 H 25.2627 -0.506041 -4.82252 0
M  V30 332 N 26.6058 1.57591 -0.0167156 0
M  V30 333 C 27.8518 1.91567 0.665582 0
M  V30 334 C 28.1848 0.892298 1.72487 0
M  V30 335 O 27.4598 -0.0867127 1.94307 0
M  V30 336 C 27.7428 3.36069 1.29342 0
M  V30 337 C 27.5958 4.49135 0.244541 0
M  V30 338 C 28.9148 3.803 2.21495 0
M  V30 339 H 26.0338 0.69666 0.240488 0
M  V30 340 H 28.6758 1.89866 -0.0714356 0
M  V30 341 H 26.8258 3.3765 1.92158 0
M  V30 342 H 28.4978 4.59689 -0.385228 0
M  V30 343 H 26.7408 4.3165 -0.431379 0
M  V30 344 H 27.4118 5.47242 0.723207 0
M  V30 345 H 29.8878 3.80377 1.68678 0
M  V30 346 H 28.7638 4.82127 2.62382 0
M  V30 347 H 29.0248 3.15104 3.101 0
M  V30 348 N 28.0839 -0.256276 1.55502 0
M  V30 349 C 29.3329 -0.983486 1.76098 0
M  V30 350 C 29.6459 -1.86837 0.578896 0
M  V30 351 O 30.8519 -2.63163 0.667648 0
M  V30 352 C 29.3079 -1.79868 3.1173 0
M  V30 353 C 28.9159 -0.961648 4.37557 0
M  V30 354 C 30.6599 -2.51919 3.41668 0
M  V30 355 C 28.5669 -1.77219 5.64223 0
M  V30 356 H 27.4969 -0.370936 0.656447 0
M  V30 357 H 30.1479 -0.238492 1.81944 0
M  V30 358 H 28.5299 -2.58527 2.99966 0
M  V30 359 H 29.7039 -0.218048 4.60284 0
M  V30 360 H 28.0189 -0.354913 4.14885 0
M  V30 361 H 30.6159 -3.12998 4.33516 0
M  V30 362 H 30.9589 -3.23059 2.62562 0
M  V30 363 H 31.4919 -1.80278 3.54605 0
M  V30 364 H 28.2309 -1.10471 6.46124 0
M  V30 365 H 27.7509 -2.49132 5.45613 0
M  V30 366 H 29.4299 -2.34169 6.03137 0
M  V30 367 N 29.562 -1.4872 -0.521534 0
M  V30 368 C 30.787 -1.61101 -1.30618 0
M  V30 369 C 31.212 -0.274611 -1.86085 0
M  V30 370 O 30.57 0.754937 -1.64834 0
M  V30 371 C 30.618 -2.66709 -2.4269 0
M  V30 372 O 29.722 -2.24456 -3.45967 0
M  V30 373 H 29.063 -0.539921 -0.386499 0
M  V30 374 H 31.593 -1.94767 -0.626645 0
M  V30 375 H 31.603 -2.88245 -2.88754 0
M  V30 376 H 30.278 -3.63727 -2.01682 0
M  V30 377 H 28.855 -2.13168 -3.05964 0
M  V30 378 N 31.0401 0.771051 -1.3745 0
M  V30 379 C 32.2681 1.56015 -1.35893 0
M  V30 380 C 32.6831 1.88718 0.0555523 0
M  V30 381 O 32.0401 1.51502 1.01752 0
M  V30 382 C 32.0911 2.87001 -2.19801 0
M  V30 383 O 31.8121 2.557 -3.55738 0
M  V30 384 C 33.3131 3.81228 -2.26231 0
M  V30 385 H 30.5331 0.483317 -0.465453 0
M  V30 386 H 33.0771 0.955611 -1.80799 0
M  V30 387 H 31.2321 3.43877 -1.78402 0
M  V30 388 H 31.6461 3.39584 -3.99729 0
M  V30 389 H 33.1201 4.70139 -2.89263 0
M  V30 390 H 33.5971 4.20409 -1.27093 0
M  V30 391 H 34.2031 3.30281 -2.67945 0
M  V30 392 N 32.5182 1.22032 0.997298 0
M  V30 393 C 33.9292 1.0397 1.55071 0
M  V30 394 C 34.2802 -0.398192 1.92117 0
M  V30 395 O 33.4052 -1.28254 1.74298 0
M  V30 396 C 34.0002 1.88109 2.81781 0
M  V30 397 C 32.5592 1.74357 3.33581 0
M  V30 398 C 31.7062 1.84846 2.06706 0
M  V30 399 H 34.6572 1.35941 0.818883 0
M  V30 400 H 34.6782 1.39589 3.53971 0
M  V30 401 H 34.1902 2.92754 2.54787 0
M  V30 402 H 32.2912 0.72427 3.65493 0
M  V30 403 H 32.4042 2.56772 4.04481 0
M  V30 404 H 30.7682 1.28238 2.20062 0
M  V30 405 H 31.5512 2.91014 1.82114 0
M  V30 406 N 33.9963 -1.19345 1.0293 0
M  V30 407 C 34.9443 -2.24621 0.604001 0
M  V30 408 C 35.9383 -1.65452 -0.363587 0
M  V30 409 O 37.1443 -1.78497 -0.23212 0
M  V30 410 H 33.5193 -0.730858 0.177061 0
M  V30 411 H 35.4903 -2.5781 1.50255 0
M  V30 412 C 34.2393 -3.47688 -0.0289127 0
M  V30 413 H 33.5623 -3.93505 0.706651 0
M  V30 414 H 35.0023 -4.23011 -0.289432 0
M  V30 415 C 33.4613 -3.11817 -1.2756 0
M  V30 416 O 33.9913 -3.2451 -2.36762 0
M  V30 417 N 32.1973 -2.66246 -1.16453 0
M  V30 418 H 31.7443 -2.56118 -0.275914 0
M  V30 419 H 31.7023 -2.42617 -1.99961 0
M  V30 420 N 35.4744 -0.807222 -1.35358 0
M  V30 421 C 36.7204 -0.388463 -1.99045 0
M  V30 422 C 37.0534 1.04184 -1.63888 0
M  V30 423 O 36.3284 1.72292 -0.902535 0
M  V30 424 C 36.6114 -0.572783 -3.55515 0
M  V30 425 C 36.4644 -2.04807 -4.00468 0
M  V30 426 C 37.7834 0.00114064 -4.401 0
M  V30 427 H 34.9024 -0.142619 -0.723069 0
M  V30 428 H 37.5444 -1.01687 -1.60498 0
M  V30 429 H 35.6944 -0.0378425 -3.88482 0
M  V30 430 H 37.3664 -2.64544 -3.77908 0
M  V30 431 H 35.6094 -2.54427 -3.51353 0
M  V30 432 H 36.2804 -2.12792 -5.09337 0
M  V30 433 H 38.7564 -0.455716 -4.13597 0
M  V30 434 H 37.6324 -0.157737 -5.48673 0
M  V30 435 H 37.8934 1.09488 -4.28328 0
M  V30 436 N 36.9525 1.47285 -0.560781 0
M  V30 437 C 37.8825 2.32857 0.173105 0
M  V30 438 C 38.8635 1.44009 0.905281 0
M  V30 439 O 40.0485 1.7286 0.885046 0
M  V30 440 C 37.1785 3.25861 1.20133 0
M  V30 441 C 36.1325 4.23978 0.585388 0
M  V30 442 C 35.4585 5.06332 1.7185 0
M  V30 443 C 36.7585 5.20242 -0.463178 0
M  V30 444 H 38.4525 2.94466 -0.541307 0
M  V30 445 H 35.9985 1.41601 -0.261764 0
M  V30 446 H 37.9515 3.84569 1.72293 0
M  V30 447 H 36.6755 2.62315 1.94573 0
M  V30 448 H 35.3345 3.66501 0.085054 0
M  V30 449 H 34.9825 4.39186 2.45203 0
M  V30 450 H 34.6825 5.72762 1.31213 0
M  V30 451 H 36.2065 5.67899 2.24329 0
M  V30 452 H 37.6205 5.73293 -0.027502 0
M  V30 453 H 36.0175 5.94896 -0.788627 0
M  V30 454 H 37.0875 4.65504 -1.35773 0
M  V30 455 N 38.4306 0.297415 1.54768 0
M  V30 456 C 39.3936 -0.567375 2.22066 0
M  V30 457 C 40.3936 -1.06409 1.20556 0
M  V30 458 O 41.5836 -0.960691 1.45315 0
M  V30 459 C 38.7156 -1.78517 2.90421 0
M  V30 460 H 39.9086 0.0205534 2.99893 0
M  V30 461 H 37.4616 0.0482163 1.56226 0
M  V30 462 H 38.1966 -2.41303 2.16664 0
M  V30 463 H 37.9816 -1.43669 3.64831 0
M  V30 464 H 39.4716 -2.39964 3.41771 0
M  V30 465 N 39.9087 -1.5758 0.0250728 0
M  V30 466 C 40.8187 -2.1343 -0.973905 0
M  V30 467 C 41.8347 -1.08556 -1.35984 0
M  V30 468 O 43.0107 -1.40592 -1.44207 0
M  V30 469 C 40.0757 -2.64703 -2.23904 0
M  V30 470 C 39.1367 -3.84276 -1.91391 0
M  V30 471 C 38.3697 -4.33095 -3.11873 0
M  V30 472 O 38.5927 -3.81107 -4.24398 0
M  V30 473 O 37.5267 -5.24984 -2.94406 0
M  V30 474 H 41.3527 -2.99057 -0.529036 0
M  V30 475 H 38.9377 -1.48118 -0.195288 0
M  V30 476 H 40.8197 -2.97769 -2.98181 0
M  V30 477 H 39.4947 -1.82161 -2.6758 0
M  V30 478 H 38.4017 -3.56143 -1.14511 0
M  V30 479 H 39.7347 -4.67968 -1.52534 0
M  V30 480 N 41.3868 0.248026 -1.55636 0
M  V30 481 C 42.6118 0.998028 -1.81808 0
M  V30 482 C 43.0368 1.78207 -0.601979 0
M  V30 483 O 42.3948 1.75653 0.448961 0
M  V30 484 C 42.4428 1.9125 -3.05705 0
M  V30 485 O 41.5468 3.00406 -2.82542 0
M  V30 486 H 40.8878 0.284045 -0.600179 0
M  V30 487 H 43.4178 0.269357 -2.02819 0
M  V30 488 H 43.4278 2.32737 -3.35108 0
M  V30 489 H 42.1028 1.33602 -3.93857 0
M  V30 490 H 40.6798 2.63056 -2.64303 0
M  V30 491 N 42.8649 1.48995 0.513639 0
M  V30 492 C 43.7969 1.60836 1.63293 0
M  V30 493 C 44.8099 0.491701 1.55197 0
M  V30 494 O 45.9989 0.763238 1.6136 0
M  V30 495 C 43.0989 1.53731 3.02027 0
M  V30 496 C 42.2719 2.80715 3.35437 0
M  V30 497 C 41.3309 2.66837 4.53525 0
M  V30 498 O 40.3569 3.40753 4.55934 0
M  V30 499 N 41.5589 1.77539 5.52684 0
M  V30 500 H 44.3239 2.57366 1.53566 0
M  V30 501 H 41.8849 1.45925 0.701259 0
M  V30 502 H 43.8769 1.42118 3.78926 0
M  V30 503 H 42.4469 0.651092 3.05744 0
M  V30 504 H 41.6669 3.06772 2.47557 0
M  V30 505 H 42.9549 3.64927 3.54551 0
M  V30 506 H 42.3529 1.16719 5.53528 0
M  V30 507 H 40.9099 1.71856 6.28736 0
M  V30 508 N 44.343 -0.763751 1.37857 0
M  V30 509 C 45.754 -1.3405 1.29952 0
M  V30 510 C 46.105 -1.96138 -0.0492898 0
M  V30 511 O 45.23 -1.94372 -0.951239 0
M  V30 512 C 45.825 -2.43729 2.35333 0
M  V30 513 C 44.384 -2.97151 2.31037 0
M  V30 514 C 43.531 -1.70438 2.18738 0
M  V30 515 H 46.482 -0.563396 1.48363 0
M  V30 516 H 46.503 -3.23412 2.00462 0
M  V30 517 H 46.015 -1.9851 3.33489 0
M  V30 518 H 44.116 -3.46724 1.3643 0
M  V30 519 H 44.229 -3.52221 3.24772 0
M  V30 520 H 42.593 -1.93673 1.65418 0
M  V30 521 H 43.376 -1.27312 3.18821 0
M  V30 522 N 45.8211 -1.22559 -0.990812 0
M  V30 523 C 47.0981 -0.959875 -1.70428 0
M  V30 524 C 47.4781 0.524455 -2.04481 0
M  V30 525 O 46.8261 1.49302 -1.72977 0
M  V30 526 C 47.0361 -1.85955 -2.95333 0
M  V30 527 C 48.3841 -2.11687 -3.68068 0
M  V30 528 O 49.4081 -1.8342 -3.05345 0
M  V30 529 O 48.2671 -2.59572 -4.80921 0
M  V30 530 H 45.3611 -0.361154 -0.743974 0
M  V30 531 H 47.9071 -1.33554 -1.04697 0
M  V30 532 H 46.6791 -2.86346 -2.66687 0
M  V30 533 H 46.3021 -1.4856 -3.68803 0
M  V30 534 N 47.2992 1.18797 -1.03562 0
M  V30 535 C 48.7102 1.70322 -0.764676 0
M  V30 536 C 49.0612 1.82708 0.714996 0
M  V30 537 O 48.1862 1.50299 1.55689 0
M  V30 538 C 48.7812 3.09356 -1.38145 0
M  V30 539 C 47.3402 3.58114 -1.15895 0
M  V30 540 C 46.4872 2.34798 -1.4753 0
M  V30 541 H 49.4382 1.03543 -1.20268 0
M  V30 542 H 49.4592 3.72378 -0.781977 0
M  V30 543 H 48.9712 3.00309 -2.45837 0
M  V30 544 H 47.0722 3.72464 -0.100544 0
M  V30 545 H 47.1852 4.4184 -1.8524 0
M  V30 546 H 45.5492 2.38464 -0.894829 0
M  V30 547 H 46.3322 2.28375 -2.56319 0
M  V30 548 N 48.7773 0.814389 1.34928 0
M  V30 549 C 49.7243 0.22822 2.29669 0
M  V30 550 C 50.6943 -0.642164 1.53184 0
M  V30 551 O 51.8793 -0.585605 1.81591 0
M  V30 552 C 49.0193 -0.61089 3.3965 0
M  V30 553 C 48.1323 0.280792 4.31086 0
M  V30 554 C 47.2673 -0.567067 5.28165 0
M  V30 555 C 46.3063 0.324531 6.11239 0
M  V30 556 N 45.4433 -0.483756 7.00431 0
M  V30 557 H 50.2833 1.04153 2.79206 0
M  V30 558 H 47.8203 0.525133 1.37407 0
M  V30 559 H 49.7783 -1.11263 4.0209 0
M  V30 560 H 48.4083 -1.38939 2.91369 0
M  V30 561 H 47.4603 0.900688 3.69583 0
M  V30 562 H 48.7723 0.966723 4.89342 0
M  V30 563 H 47.9263 -1.13363 5.96015 0
M  V30 564 H 46.6653 -1.28654 4.70425 0
M  V30 565 H 45.6703 0.903298 5.42329 0
M  V30 566 H 46.8953 1.04198 6.71059 0
M  V30 567 H 44.8413 -1.18706 6.45171 0
M  V30 568 H 44.7583 0.143965 7.55863 0
M  V30 569 H 46.0263 -1.03334 7.7262 0
M  V30 570 N 50.2554 -1.46986 0.568584 0
M  V30 571 C 51.6664 -1.86188 0.138219 0
M  V30 572 C 52.0174 -1.47388 -1.29504 0
M  V30 573 O 51.1424 -0.88219 -1.97602 0
M  V30 574 C 51.7374 -3.3792 0.244065 0
M  V30 575 C 50.2964 -3.76171 -0.131335 0
M  V30 576 C 49.4434 -2.71027 0.586465 0
M  V30 577 H 52.3944 -1.38342 0.777645 0
M  V30 578 H 52.4154 -3.76729 -0.534351 0
M  V30 579 H 51.9274 -3.66128 1.28731 0
M  V30 580 H 50.0284 -3.5358 -1.17526 0
M  V30 581 H 50.1414 -4.78523 0.235146 0
M  V30 582 H 48.5054 -2.54684 0.0282722 0
M  V30 583 H 49.2884 -3.02077 1.63109 0
M  V30 584 N 51.7335 -0.305618 -1.54608 0
M  V30 585 C 53.0105 0.355652 -1.92339 0
M  V30 586 C 53.3905 1.71324 -1.23335 0
M  V30 587 O 52.7385 2.25473 -0.370702 0
M  V30 588 C 52.9485 0.46572 -3.45879 0
M  V30 589 C 54.2965 0.734426 -4.182 0
M  V30 590 O 55.3205 0.54935 -3.51938 0
M  V30 591 O 54.1795 1.09024 -5.35515 0
M  V30 592 H 51.2735 0.199666 -0.802535 0
M  V30 593 H 53.8195 -0.354017 -1.65966 0
M  V30 594 H 52.5915 -0.488461 -3.88239 0
M  V30 595 H 52.2145 1.22367 -3.78301 0
M  V30 596 N 53.2116 1.57565 -0.0334293 0
M  V30 597 C 54.1216 2.13943 0.962572 0
M  V30 598 C 55.1376 1.09276 1.35406 0
M  V30 599 O 56.3136 1.41355 1.4346 0
M  V30 600 C 53.3786 2.65887 2.22497 0
M  V30 601 C 52.4396 3.85286 1.8935 0
M  V30 602 C 51.6726 4.34743 3.09571 0
M  V30 603 O 51.8956 3.83352 4.22371 0
M  V30 604 O 50.8296 5.26538 2.91618 0
M  V30 605 H 54.6556 2.99333 0.513169 0
M  V30 606 H 52.2406 1.4822 0.18743 0
M  V30 607 H 54.1226 2.99346 2.96598 0
M  V30 608 H 52.7976 1.83578 2.6661 0
M  V30 609 H 51.7046 3.56746 1.1262 0
M  V30 610 H 53.0376 4.68771 1.5005 0
M  V30 611 N 54.6897 -0.239769 1.55765 0
M  V30 612 C 55.6197 -1.30052 1.9393 0
M  V30 613 C 56.6007 -1.49839 0.805132 0
M  V30 614 O 57.7857 -1.62328 1.06599 0
M  V30 615 C 54.9157 -2.65391 2.2402 0
M  V30 616 C 53.8697 -2.60289 3.39755 0
M  V30 617 C 53.1957 -3.99489 3.55405 0
M  V30 618 C 54.4957 -2.16654 4.75246 0
M  V30 619 H 56.1897 -0.983573 2.82783 0
M  V30 620 H 53.7357 -0.471701 1.36055 0
M  V30 621 H 55.6887 -3.3974 2.49308 0
M  V30 622 H 54.4127 -2.98736 1.32 0
M  V30 623 H 53.0717 -1.88398 3.14487 0
M  V30 624 H 52.7197 -4.30112 2.60793 0
M  V30 625 H 52.4197 -3.96962 4.33238 0
M  V30 626 H 53.9437 -4.75528 3.83022 0
M  V30 627 H 55.3577 -2.80737 4.99859 0
M  V30 628 H 53.7547 -2.25223 5.56232 0
M  V30 629 H 54.8247 -1.11835 4.71827 0
M  V30 630 N 56.1678 -1.49265 -0.50573 0
M  V30 631 C 57.1178 -1.6198 -1.60457 0
M  V30 632 C 58.1018 -0.47568 -1.53708 0
M  V30 633 O 59.2938 -0.728392 -1.61318 0
M  V30 634 C 56.4228 -1.68526 -2.99089 0
M  V30 635 C 55.5088 -2.885 -3.10852 0
M  V30 636 N 55.8998 -4.12635 -2.92517 0
M  V30 637 C 54.1978 -2.86338 -3.41945 0
M  V30 638 C 54.8988 -4.93258 -3.08337 0
M  V30 639 N 53.8748 -4.26533 -3.37003 0
M  V30 640 H 57.6768 -2.55681 -1.44928 0
M  V30 641 H 55.1908 -1.45972 -0.711752 0
M  V30 642 H 57.1878 -1.75732 -3.78053 0
M  V30 643 H 55.8478 -0.759584 -3.1569 0
M  V30 644 H 56.8588 -4.42689 -2.68787 0
M  V30 645 H 53.5358 -2.03129 -3.64753 0
M  V30 646 H 54.9258 -6.01856 -2.98695 0
M  V30 647 N 57.6459 0.756429 -1.3826 0
M  V30 648 C 58.5929 1.87011 -1.35261 0
M  V30 649 C 59.5629 1.64695 -0.215616 0
M  V30 650 O 60.7479 1.864 -0.407399 0
M  V30 651 C 57.8879 3.24275 -1.18068 0
M  V30 652 C 57.0009 3.58442 -2.41129 0
M  V30 653 C 56.1359 4.84994 -2.16689 0
M  V30 654 C 55.1749 5.11939 -3.35537 0
M  V30 655 N 54.3119 6.29685 -3.10549 0
M  V30 656 H 59.1519 1.8891 -2.30472 0
M  V30 657 H 56.6889 0.923373 -1.14509 0
M  V30 658 H 58.6469 4.03479 -1.06116 0
M  V30 659 H 57.2769 3.21711 -0.264973 0
M  V30 660 H 56.3289 2.74103 -2.63764 0
M  V30 661 H 57.6409 3.74283 -3.29717 0
M  V30 662 H 56.7949 5.72135 -2.01857 0
M  V30 663 H 55.5339 4.71286 -1.25462 0
M  V30 664 H 54.5389 4.23268 -3.50891 0
M  V30 665 H 55.7639 5.27546 -4.27635 0
M  V30 666 H 53.7099 6.17306 -2.21967 0
M  V30 667 H 53.6269 6.46014 -3.92686 0
M  V30 668 H 54.8949 7.19722 -2.99367 0
M  V30 669 N 59.124 1.23083 0.984299 0
M  V30 670 C 60.349 1.088 1.76571 0
M  V30 671 C 60.774 -0.356657 1.84688 0
M  V30 672 O 60.132 -1.25788 1.30565 0
M  V30 673 C 60.18 1.71371 3.17277 0
M  V30 674 O 59.284 0.973213 4.00752 0
M  V30 675 H 58.625 0.381599 0.543395 0
M  V30 676 H 61.155 1.63057 1.23587 0
M  V30 677 H 61.165 1.76449 3.67872 0
M  V30 678 H 59.84 2.76493 3.10684 0
M  V30 679 H 58.417 0.999078 3.59267 0
M  V30 680 N 60.6021 -1.18246 1.0419 0
M  V30 681 C 61.8271 -1.92736 0.765996 0
M  V30 682 C 62.2521 -1.75728 -0.67091 0
M  V30 683 O 61.6101 -1.06825 -1.46486 0
M  V30 684 C 61.6581 -3.42148 1.13875 0
M  V30 685 O 60.7621 -4.11548 0.264954 0
M  V30 686 H 60.1031 -0.601238 0.281797 0
M  V30 687 H 62.6331 -1.49942 1.39207 0
M  V30 688 H 62.6431 -3.92858 1.1012 0
M  V30 689 H 61.3181 -3.53848 2.18551 0
M  V30 690 H 59.8951 -3.71137 0.362226 0
M  V30 691 N 62.0802 -0.821533 -1.34494 0
M  V30 692 C 63.0272 -0.240397 -2.29545 0
M  V30 693 C 63.9972 0.634031 -1.53523 0
M  V30 694 O 65.1822 0.575966 -1.81899 0
M  V30 695 C 62.3222 0.592869 -3.39969 0
M  V30 696 C 61.4352 -0.30365 -4.30932 0
M  V30 697 C 60.5702 0.539049 -5.28458 0
M  V30 698 C 59.6092 -0.356942 -6.11058 0
M  V30 699 N 58.7462 0.446603 -7.00678 0
M  V30 700 H 63.5862 -1.05632 -2.7865 0
M  V30 701 H 61.1232 -0.532413 -1.37127 0
M  V30 702 H 63.0812 1.09129 -4.02675 0
M  V30 703 H 61.7112 1.37392 -2.92102 0
M  V30 704 H 60.7632 -0.920276 -3.691 0
M  V30 705 H 62.0752 -0.992661 -4.88823 0
M  V30 706 H 61.2292 1.102 -5.96608 0
M  V30 707 H 59.9682 1.26157 -4.71101 0
M  V30 708 H 58.9732 -0.932047 -5.41842 0
M  V30 709 H 60.1982 -1.07755 -6.70497 0
M  V30 710 H 58.1442 1.15282 -6.45791 0
M  V30 711 H 58.0612 -0.184048 -7.55776 0
M  V30 712 H 59.3292 0.992352 -7.73158 0
M  V30 713 N 63.5583 1.46682 -0.576371 0
M  V30 714 C 64.8053 2.02412 -0.0595339 0
M  V30 715 C 65.1333 1.44859 1.29793 0
M  V30 716 O 64.3883 0.601099 1.8624 0
M  V30 717 C 64.6873 3.57345 0.062886 0
M  V30 718 C 64.3533 4.33908 -1.22616 0
M  V30 719 C 63.0153 4.54544 -1.57933 0
M  V30 720 C 65.3673 4.77919 -2.07948 0
M  V30 721 C 62.6953 5.16444 -2.78393 0
M  V30 722 C 65.0473 5.41149 -3.27629 0
M  V30 723 C 63.7113 5.60014 -3.63236 0
M  V30 724 H 62.9813 0.74068 -0.021785 0
M  V30 725 H 65.6283 1.76128 -0.751735 0
M  V30 726 H 63.9333 3.82729 0.838178 0
M  V30 727 H 65.6303 3.98136 0.478439 0
M  V30 728 H 62.2203 4.18138 -0.941202 0
M  V30 729 H 66.4043 4.61738 -1.81967 0
M  V30 730 H 61.6603 5.29242 -3.06126 0
M  V30 731 H 65.8343 5.74211 -3.94023 0
M  V30 732 H 63.4613 6.07748 -4.56669 0
M  V30 733 N 65.0364 0.313813 1.54444 0
M  V30 734 C 66.2644 -0.293918 2.04802 0
M  V30 735 C 66.6794 -1.46537 1.19047 0
M  V30 736 O 66.0364 -1.81182 0.218939 0
M  V30 737 C 66.0874 -0.737806 3.53891 0
M  V30 738 O 65.8084 0.387038 4.36387 0
M  V30 739 C 67.3094 -1.40936 4.203 0
M  V30 740 H 64.5294 -0.0620057 0.668129 0
M  V30 741 H 67.0734 0.457169 1.99324 0
M  V30 742 H 65.2284 -1.43889 3.59687 0
M  V30 743 H 65.6424 0.0391274 5.24485 0
M  V30 744 H 67.1164 -1.67099 5.26101 0
M  V30 745 H 67.5934 -2.35355 3.70816 0
M  V30 746 H 68.1994 -0.751117 4.18615 0
M  V30 747 N 66.5145 -1.57545 0.0417849 0
M  V30 748 C 67.7625 -1.91937 -0.632829 0
M  V30 749 C 68.0835 -0.919978 -1.71934 0
M  V30 750 O 67.3535 0.0366064 -1.95866 0
M  V30 751 H 65.9335 -0.708493 -0.236742 0
M  V30 752 H 68.5955 -1.9468 0.0925745 0
M  V30 753 H 67.6915 -2.92912 -1.07746 0
M  V30 754 N 67.9926 0.231505 -1.5589 0
M  V30 755 C 68.9226 1.29022 -1.94617 0
M  V30 756 C 69.9036 1.4941 -0.813067 0
M  V30 757 O 71.0886 1.6176 -1.07459 0
M  V30 758 C 68.2186 2.64199 -2.25424 0
M  V30 759 C 67.1726 2.58484 -3.41131 0
M  V30 760 C 66.4986 3.97599 -3.57518 0
M  V30 761 C 67.7986 2.1413 -4.76388 0
M  V30 762 H 69.4926 0.968563 -2.83301 0
M  V30 763 H 67.0386 0.464479 -1.36303 0
M  V30 764 H 68.9916 3.38413 -2.51107 0
M  V30 765 H 67.7156 2.98032 -1.33583 0
M  V30 766 H 66.3746 1.86727 -3.15481 0
M  V30 767 H 66.0226 4.28723 -2.6307 0
M  V30 768 H 65.7226 3.94659 -4.35337 0
M  V30 769 H 67.2466 4.7349 -3.85538 0
M  V30 770 H 68.6606 2.78083 -5.01341 0
M  V30 771 H 67.0576 2.2227 -5.57419 0
M  V30 772 H 68.1276 1.09331 -4.72414 0
M  V30 773 N 69.4707 1.49531 0.497807 0
M  V30 774 C 70.4037 1.61043 1.6168 0
M  V30 775 C 71.3817 0.459386 1.55976 0
M  V30 776 O 72.5657 0.675358 1.75986 0
M  V30 777 C 69.6927 1.56833 3.00202 0
M  V30 778 C 68.7387 2.77173 3.24156 0
M  V30 779 S 69.5717 4.38808 3.06933 0
M  V30 780 C 70.7277 4.37248 4.47845 0
M  V30 781 H 70.9607 2.55702 1.51671 0
M  V30 782 H 68.4937 1.38462 0.683201 0
M  V30 783 H 70.4517 1.55089 3.80076 0
M  V30 784 H 69.1127 0.634561 3.07623 0
M  V30 785 H 68.3057 2.70456 4.25288 0
M  V30 786 H 67.9077 2.76346 2.5201 0
M  V30 787 H 70.1997 4.09164 5.39992 0
M  V30 788 H 71.1427 5.38668 4.59612 0
M  V30 789 H 71.5507 3.67286 4.28674 0
M  V30 790 N 70.9488 -0.749086 1.3866 0
M  V30 791 C 71.8588 -1.89358 1.38494 0
M  V30 792 C 72.8748 -1.71708 0.281476 0
M  V30 793 O 74.0508 -1.94554 0.520643 0
M  V30 794 C 71.1158 -3.24782 1.21316 0
M  V30 795 C 70.1768 -3.54926 2.41508 0
M  V30 796 C 69.4098 -4.83888 2.2514 0
M  V30 797 O 69.6328 -5.56592 1.24746 0
M  V30 798 O 68.5668 -5.13612 3.13826 0
M  V30 799 H 72.3928 -1.92452 2.34938 0
M  V30 800 H 69.9778 -0.894981 1.19626 0
M  V30 801 H 71.8598 -4.05739 1.13814 0
M  V30 802 H 70.5348 -3.2249 0.279592 0
M  V30 803 H 69.4418 -2.74112 2.54585 0
M  V30 804 H 70.7748 -3.61983 3.3351 0
M  V30 805 N 72.4269 -1.23603 -0.977757 0
M  V30 806 C 73.3749 -1.01704 -2.09187 0
M  V30 807 C 74.3689 0.0448214 -1.69341 0
M  V30 808 O 75.5749 -0.108902 -1.7967 0
M  V30 809 H 71.9499 -0.311803 -0.684312 0
M  V30 810 H 73.9209 -1.96207 -2.24823 0
M  V30 811 C 72.6699 -0.627746 -3.41986 0
M  V30 812 H 71.9929 -1.43656 -3.73099 0
M  V30 813 H 73.4329 -0.514053 -4.20872 0
M  V30 814 C 71.8919 0.664238 -3.30287 0
M  V30 815 O 72.4219 1.71268 -3.6336 0
M  V30 816 N 70.6279 0.641156 -2.83439 0
M  V30 817 H 70.1749 -0.212376 -2.56723 0
M  V30 818 H 70.1329 1.50583 -2.75993 0
M  V30 819 N 73.905 1.17692 -1.04816 0
M  V30 820 C 74.838 2.20436 -0.590173 0
M  V30 821 C 75.816 1.58115 0.379244 0
M  V30 822 O 77 1.86228 0.291762 0
M  V30 823 C 74.127 3.38424 0.136817 0
M  V30 824 C 73.173 4.19176 -0.787023 0
M  V30 825 S 74.006 4.84815 -2.27409 0
M  V30 826 C 75.162 6.06195 -1.55817 0
M  V30 827 H 75.395 2.58944 -1.46067 0
M  V30 828 H 72.928 1.28246 -0.859784 0
M  V30 829 H 74.886 4.06798 0.550076 0
M  V30 830 H 73.547 2.98312 0.983299 0
M  V30 831 H 72.74 5.03499 -0.224681 0
M  V30 832 H 72.342 3.56219 -1.13947 0
M  V30 833 H 74.634 6.72078 -0.855387 0
M  V30 834 H 75.577 6.6695 -2.37873 0
M  V30 835 H 75.985 5.54701 -1.04722 0
M  V30 836 N 75.3831 0.828654 1.34056 0
M  V30 837 C 76.3301 0.252567 2.29414 0
M  V30 838 C 77.3001 -0.62588 1.53857 0
M  V30 839 O 78.4851 -0.566312 1.82202 0
M  V30 840 C 75.6251 -0.574831 3.40279 0
M  V30 841 C 74.7381 0.326499 4.30764 0
M  V30 842 C 73.8731 -0.511016 5.28736 0
M  V30 843 C 72.9121 0.389342 6.1086 0
M  V30 844 N 72.0491 -0.409439 7.00905 0
M  V30 845 H 76.8891 1.07108 2.78086 0
M  V30 846 H 74.4261 0.539677 1.36843 0
M  V30 847 H 76.3841 -1.06992 4.03248 0
M  V30 848 H 75.0141 -1.35841 2.92826 0
M  V30 849 H 74.0661 0.939837 3.68607 0
M  V30 850 H 75.3781 1.01857 4.88289 0
M  V30 851 H 74.5321 -1.07035 5.97184 0
M  V30 852 H 73.2711 -1.23657 4.71763 0
M  V30 853 H 72.2761 0.960769 5.4134 0
M  V30 854 H 73.5011 1.1131 6.69916 0
M  V30 855 H 71.4471 -1.11856 6.46393 0
M  V30 856 H 71.3641 0.224126 7.55668 0
M  V30 857 H 72.6321 -0.951336 7.73673 0
M  V30 858 N 76.8612 -1.46375 0.584142 0
M  V30 859 C 78.1072 -2.02678 0.0703716 0
M  V30 860 C 78.4402 -1.4545 -1.28678 0
M  V30 861 O 77.7152 -0.62014 -1.84349 0
M  V30 862 C 77.9982 -3.60099 0.00614674 0
M  V30 863 C 77.8512 -4.27709 1.3923 0
M  V30 864 C 79.1702 -4.34598 -0.693742 0
M  V30 865 H 76.2892 -0.736504 0.027047 0
M  V30 866 H 78.9312 -1.74501 0.751615 0
M  V30 867 H 77.0812 -3.84236 -0.574009 0
M  V30 868 H 78.7532 -4.14832 2.01773 0
M  V30 869 H 76.9962 -3.87016 1.95962 0
M  V30 870 H 77.6672 -5.36478 1.29982 0
M  V30 871 H 80.1432 -4.15615 -0.200869 0
M  V30 872 H 79.0192 -5.44318 -0.707714 0
M  V30 873 H 79.2802 -4.05759 -1.75533 0
M  V30 874 N 78.3393 -0.321999 -1.54275 0
M  V30 875 C 79.2693 0.537411 -2.27231 0
M  V30 876 C 80.2503 1.12064 -1.27968 0
M  V30 877 O 81.4353 1.14606 -1.56777 0
M  V30 878 C 78.5653 1.69919 -3.02894 0
M  V30 879 C 77.5193 1.24534 -4.09482 0
M  V30 880 C 76.8453 2.49394 -4.72977 0
M  V30 881 C 78.1453 0.361335 -5.21049 0
M  V30 882 H 79.8393 -0.0711406 -2.99315 0
M  V30 883 H 77.3853 -0.0356555 -1.43956 0
M  V30 884 H 79.3383 2.30668 -3.52662 0
M  V30 885 H 78.0623 2.33431 -2.28424 0
M  V30 886 H 76.7213 0.660782 -3.60596 0
M  V30 887 H 76.3693 3.11265 -3.95124 0
M  V30 888 H 76.0693 2.19718 -5.44975 0
M  V30 889 H 77.5933 3.10908 -5.25517 0
M  V30 890 H 79.0073 0.875072 -5.66582 0
M  V30 891 H 77.4043 0.157428 -5.99893 0
M  V30 892 H 78.4743 -0.60822 -4.8107 0
M  V30 893 N 79.8174 1.5752 -0.0501392 0
M  V30 894 C 81.0474 1.96678 0.632573 0
M  V30 895 C 81.4554 0.926298 1.64974 0
M  V30 896 O 80.7984 -0.09802 1.83438 0
M  V30 897 C 80.8604 3.32068 1.37735 0
M  V30 898 C 80.5244 4.54076 0.516131 0
M  V30 899 C 81.5214 5.19445 -0.217357 0
M  V30 900 C 79.2064 5.00304 0.44736 0
M  V30 901 C 81.2004 6.29378 -1.00807 0
M  V30 902 C 78.8874 6.10114 -0.347038 0
M  V30 903 C 79.8854 6.74512 -1.07344 0
M  V30 904 O 79.5734 7.82211 -1.85477 0
M  V30 905 H 79.3054 0.652193 0.177821 0
M  V30 906 H 81.8594 2.05091 -0.112543 0
M  V30 907 H 80.0894 3.20206 2.16807 0
M  V30 908 H 81.7784 3.55981 1.95019 0
M  V30 909 H 82.5444 4.84689 -0.173688 0
M  V30 910 H 78.4234 4.49971 1.00235 0
M  V30 911 H 81.9674 6.79575 -1.57556 0
M  V30 912 H 77.8644 6.44307 -0.392349 0
M  V30 913 H 78.6324 7.98982 -1.77678 0
M  V30 914 N 81.2955 -0.223234 1.56011 0
M  V30 915 C 82.5725 -0.972108 1.69733 0
M  V30 916 C 82.9525 -2.02485 0.59691 0
M  V30 917 O 82.3005 -2.25037 -0.396324 0
M  V30 918 C 82.5105 -1.58407 3.10979 0
M  V30 919 C 83.8585 -2.07696 3.70334 0
M  V30 920 O 84.8825 -1.68304 3.1393 0
M  V30 921 O 83.7415 -2.80096 4.69264 0
M  V30 922 H 80.8355 -0.453993 0.691245 0
M  V30 923 H 83.3815 -0.215149 1.68331 0
M  V30 924 H 82.1535 -0.823831 3.82529 0
M  V30 925 H 81.7765 -2.40661 3.16493 0
M  V30 926 N 82.7736 -1.49793 -0.48987 0
M  V30 927 C 84.0506 -1.50348 -1.25119 0
M  V30 928 C 84.4306 -0.237466 -2.0976 0
M  V30 929 O 83.7786 0.77981 -2.14782 0
M  V30 930 C 83.9886 -2.78872 -2.09837 0
M  V30 931 C 85.3366 -3.288 -2.68655 0
M  V30 932 O 86.3606 -2.80065 -2.20096 0
M  V30 933 O 85.2196 -4.13707 -3.57083 0
M  V30 934 H 82.3136 -0.602242 -0.566775 0
M  V30 935 H 84.8596 -1.62067 -0.503229 0
M  V30 936 H 83.6316 -3.62499 -1.47343 0
M  V30 937 H 83.2546 -2.70066 -2.91805 0
M  V30 938 N 84.2517 0.741722 -1.39055 0
M  V30 939 C 85.1997 1.87702 -1.3737 0
M  V30 940 C 86.1937 1.67427 -0.257812 0
M  V30 941 O 87.3997 1.7485 -0.427489 0
M  V30 942 H 83.7747 0.617757 -0.428812 0
M  V30 943 H 85.7457 1.86239 -2.33147 0
M  V30 944 C 84.4947 3.25315 -1.22741 0
M  V30 945 H 83.8177 3.41509 -2.07873 0
M  V30 946 H 85.2577 4.04964 -1.25618 0
M  V30 947 C 83.7167 3.36838 0.0647316 0
M  V30 948 O 84.2467 3.88073 1.03741 0
M  V30 949 N 82.4527 2.90329 0.125544 0
M  V30 950 H 81.9997 2.48823 -0.666682 0
M  V30 951 H 81.9577 2.98418 0.989639 0
M  V30 952 N 85.7298 1.2412 0.971189 0
M  V30 953 C 86.6798 0.997551 2.05019 0
M  V30 954 C 87.6638 -0.0597747 1.60789 0
M  V30 955 O 88.8558 0.153516 1.76333 0
M  V30 956 C 85.9848 0.600557 3.38006 0
M  V30 957 C 85.0708 1.69377 3.88809 0
M  V30 958 N 85.4618 2.92586 4.12586 0
M  V30 959 C 83.7598 1.57048 4.17435 0
M  V30 960 C 84.4608 3.63431 4.54195 0
M  V30 961 N 83.4368 2.90979 4.59165 0
M  V30 962 H 87.2388 1.93316 2.21374 0
M  V30 963 H 84.7528 1.14194 1.1547 0
M  V30 964 H 86.7498 0.40725 4.14906 0
M  V30 965 H 85.4098 -0.327903 3.2304 0
M  V30 966 H 86.4208 3.288 4.00139 0
M  V30 967 H 83.0978 0.709798 4.11422 0
M  V30 968 H 84.4878 4.69102 4.81033 0
M  V30 969 N 87.2079 -1.17134 1.05439 0
M  V30 970 C 88.4539 -1.87733 0.767077 0
M  V30 971 C 88.7869 -1.8098 -0.704253 0
M  V30 972 O 88.0619 -1.21951 -1.5152 0
M  V30 973 C 88.3449 -3.37659 1.25133 0
M  V30 974 C 88.1979 -3.53149 2.78578 0
M  V30 975 C 89.5169 -4.31768 0.852324 0
M  V30 976 H 86.6359 -0.681687 0.280129 0
M  V30 977 H 89.2779 -1.37732 1.30881 0
M  V30 978 H 87.4279 -3.80373 0.790469 0
M  V30 979 H 89.0999 -3.19434 3.32806 0
M  V30 980 H 87.3429 -2.95345 3.17732 0
M  V30 981 H 88.0139 -4.58403 3.07523 0
M  V30 982 H 90.4899 -3.96909 1.24911 0
M  V30 983 H 89.3659 -5.35199 1.21873 0
M  V30 984 H 89.6269 -4.41429 -0.243485 0
M  V30 985 N 88.686 -0.835752 -1.33615 0
M  V30 986 C 89.911 -0.442389 -2.02627 0
M  V30 987 C 90.336 0.947735 -1.62479 0
M  V30 988 O 89.694 1.61907 -0.815826 0
M  V30 989 C 89.742 -0.567216 -3.56111 0
M  V30 990 O 88.846 0.407799 -4.10379 0
M  V30 991 H 88.187 -0.180278 -0.639059 0
M  V30 992 H 90.717 -1.12972 -1.70583 0
M  V30 993 H 90.727 -0.447708 -4.05536 0
M  V30 994 H 89.402 -1.58103 -3.84677 0
M  V30 995 H 87.979 0.246107 -3.72087 0
M  V30 996 N 90.1641 1.46063 -0.591896 0
M  V30 997 C 91.1271 2.28854 0.125973 0
M  V30 998 C 92.1271 1.38903 0.810107 0
M  V30 999 O 93.3171 1.61186 0.66066 0
M  V30 1000 C 90.4491 3.19526 1.1881 0
M  V30 1001 H 91.6421 2.93802 -0.601717 0
M  V30 1002 H 89.1951 1.52325 -0.350254 0
M  V30 1003 H 89.9301 2.59345 1.94707 0
M  V30 1004 H 89.7151 3.85766 0.701936 0
M  V30 1005 H 91.2051 3.81817 1.69132 0
M  V30 1006 N 91.6422 0.330177 1.54103 0
M  V30 1007 C 92.8912 -0.271336 1.99867 0
M  V30 1008 C 93.2042 -1.52723 1.22209 0
M  V30 1009 O 94.4102 -2.20515 1.58383 0
M  V30 1010 C 92.8662 -0.534032 3.55916 0
M  V30 1011 C 92.4742 0.705193 4.42415 0
M  V30 1012 C 94.2182 -1.09514 4.1013 0
M  V30 1013 C 92.1252 0.414035 5.89949 0
M  V30 1014 H 91.0552 -0.105166 0.74663 0
M  V30 1015 H 93.7062 0.443429 1.78062 0
M  V30 1016 H 92.0882 -1.30915 3.73734 0
M  V30 1017 H 93.2622 1.4804 4.36372 0
M  V30 1018 H 91.5772 1.18698 3.99124 0
M  V30 1019 H 94.1742 -1.3277 5.17954 0
M  V30 1020 H 94.5172 -2.04656 3.62521 0
M  V30 1021 H 95.0502 -0.381038 3.95971 0
M  V30 1022 H 91.7892 1.33481 6.41766 0
M  V30 1023 H 91.3092 -0.323336 5.98928 0
M  V30 1024 H 92.9882 0.0263105 6.46995 0
M  V30 1025 N 93.1203 -1.57491 0.0584922 0
M  V30 1026 C 94.0683 -2.13148 -0.931168 0
M  V30 1027 C 95.0623 -1.06507 -1.31729 0
M  V30 1028 O 96.2683 -1.24906 -1.29609 0
M  V30 1029 H 92.6433 -0.68137 -0.31818 0
M  V30 1030 H 94.6143 -2.95187 -0.436707 0
M  V30 1031 C 93.3633 -2.69732 -2.19408 0
M  V30 1032 H 92.6863 -3.51454 -1.90578 0
M  V30 1033 H 94.1263 -3.12287 -2.86798 0
M  V30 1034 C 92.5853 -1.63855 -2.94369 0
M  V30 1035 O 93.1153 -1.05565 -3.87581 0
M  V30 1036 N 91.3213 -1.35202 -2.57233 0
M  V30 1037 H 90.8683 -1.82791 -1.81508 0
M  V30 1038 H 90.8263 -0.645922 -3.07693 0
M  V30 1039 N 94.5984 0.214957 -1.56127 0
M  V30 1040 C 95.8444 0.939762 -1.79712 0
M  V30 1041 C 96.1774 1.83723 -0.629247 0
M  V30 1042 O 95.4524 1.90925 0.371197 0
M  V30 1043 C 95.7354 1.77306 -3.13424 0
M  V30 1044 C 95.5884 0.90164 -4.40671 0
M  V30 1045 C 96.9074 2.74956 -3.43638 0
M  V30 1046 H 94.0264 0.340214 -0.653776 0
M  V30 1047 H 96.6684 0.20824 -1.88855 0
M  V30 1048 H 94.8184 2.39673 -3.0576 0
M  V30 1049 H 96.4904 0.294206 -4.60361 0
M  V30 1050 H 94.7334 0.207368 -4.33304 0
M  V30 1051 H 95.4044 1.51923 -5.30682 0
M  V30 1052 H 97.8804 2.22724 -3.51473 0
M  V30 1053 H 96.7564 3.30358 -4.38355 0
M  V30 1054 H 97.0174 3.53023 -2.66134 0
M  V30 1055 N 96.0765 1.50051 0.48192 0
M  V30 1056 C 97.0235 1.68122 1.58125 0
M  V30 1057 C 97.9935 0.522545 1.57666 0
M  V30 1058 O 99.1785 0.751844 1.75362 0
M  V30 1059 C 96.3185 1.77142 2.96167 0
M  V30 1060 C 95.4315 3.0444 3.06497 0
M  V30 1061 C 94.5665 3.04321 4.35387 0
M  V30 1062 C 93.6055 4.26118 4.3942 0
M  V30 1063 N 92.7425 4.238 5.59766 0
M  V30 1064 H 97.5825 2.6198 1.42022 0
M  V30 1065 H 95.1195 1.29877 0.690687 0
M  V30 1066 H 97.0775 1.80352 3.76203 0
M  V30 1067 H 95.7075 0.867329 3.1093 0
M  V30 1068 H 94.7595 3.10752 2.19402 0
M  V30 1069 H 96.0715 3.94426 3.05336 0
M  V30 1070 H 95.2255 3.062 5.23762 0
M  V30 1071 H 93.9645 2.12147 4.39141 0
M  V30 1072 H 92.9695 4.24463 3.49444 0
M  V30 1073 H 94.1945 5.19507 4.37366 0
M  V30 1074 H 92.1405 3.34474 5.64326 0
M  V30 1075 H 92.0575 5.07542 5.60301 0
M  V30 1076 H 93.3255 4.2981 6.50295 0
M  V30 1077 N 97.5546 -0.734337 1.39446 0
M  V30 1078 C 98.7796 -1.52866 1.40167 0
M  V30 1079 C 99.2046 -1.881 -0.00171513 0
M  V30 1080 O 98.5626 -1.51957 -0.988879 0
M  V30 1081 C 98.6106 -2.79235 2.28167 0
M  V30 1082 O 97.7146 -3.75185 1.71201 0
M  V30 1083 H 97.0556 -0.461618 0.477289 0
M  V30 1084 H 99.5856 -0.905949 1.8345 0
M  V30 1085 H 99.5956 -3.27963 2.42702 0
M  V30 1086 H 98.2706 -2.52923 3.30156 0
M  V30 1087 H 96.8476 -3.33958 1.65912 0
M  V30 1088 N 99.0327 -1.24633 -0.964593 0
M  V30 1089 C 100.282 -1.08188 -1.7023 0
M  V30 1090 C 100.595 0.37873 -1.91898 0
M  V30 1091 O 101.801 0.663427 -2.6327 0
M  V30 1092 C 100.257 -1.88773 -3.06419 0
M  V30 1093 C 99.8647 -3.39263 -2.92582 0
M  V30 1094 C 101.609 -1.80867 -3.84041 0
M  V30 1095 C 99.5157 -4.1218 -4.24101 0
M  V30 1096 H 98.4457 -0.401245 -0.638372 0
M  V30 1097 H 101.097 -1.48742 -1.07462 0
M  V30 1098 H 99.4787 -1.41035 -3.70034 0
M  V30 1099 H 100.653 -3.94603 -2.37961 0
M  V30 1100 H 98.9677 -3.48154 -2.28424 0
M  V30 1101 H 101.565 -2.32646 -4.81435 0
M  V30 1102 H 101.908 -0.774543 -4.09031 0
M  V30 1103 H 102.441 -2.26301 -3.27159 0
M  V30 1104 H 99.1797 -5.15965 -4.04303 0
M  V30 1105 H 98.6997 -3.61626 -4.78526 0
M  V30 1106 H 100.379 -4.19349 -4.92702 0
M  V30 1107 N 100.511 1.16574 -1.06058 0
M  V30 1108 C 101.788 1.83048 -0.689416 0
M  V30 1109 C 102.168 1.94122 0.829443 0
M  V30 1110 O 101.516 1.48249 1.7388 0
M  V30 1111 C 101.726 3.20186 -1.38859 0
M  V30 1112 C 103.074 3.95989 -1.53226 0
M  V30 1113 O 104.098 3.29696 -1.3483 0
M  V30 1114 O 102.957 5.14813 -1.83384 0
M  V30 1115 H 100.051 0.790258 -0.243764 0
M  V30 1116 H 102.597 1.23797 -1.16071 0
M  V30 1117 H 101.369 3.07146 -2.4244 0
M  V30 1118 H 100.992 3.87112 -0.907216 0
M  V30 1119 N 101.989 0.842826 1.3317 0
M  V30 1120 C 102.921 0.236245 2.27979 0
M  V30 1121 C 103.934 -0.585282 1.51915 0
M  V30 1122 O 105.123 -0.411705 1.73687 0
M  V30 1123 C 102.223 -0.685717 3.3189 0
M  V30 1124 C 101.396 0.0973448 4.37292 0
M  V30 1125 C 100.455 -0.748565 5.20848 0
M  V30 1126 O 99.4809 -0.186339 5.68895 0
M  V30 1127 N 100.683 -2.06527 5.42519 0
M  V30 1128 H 103.448 1.05088 2.80672 0
M  V30 1129 H 101.009 0.701667 1.45905 0
M  V30 1130 H 103.001 -1.25669 3.84694 0
M  V30 1131 H 101.571 -1.40105 2.79445 0
M  V30 1132 H 100.791 0.849706 3.84933 0
M  V30 1133 H 102.079 0.635643 5.04814 0
M  V30 1134 H 101.477 -2.54554 5.05192 0
M  V30 1135 H 100.034 -2.58464 5.98364 0
M  V30 1136 N 103.467 -1.45747 0.599634 0
M  V30 1137 C 104.714 -2.02292 0.0917284 0
M  V30 1138 C 105.042 -1.46906 -1.27472 0
M  V30 1139 O 104.297 -0.630652 -1.8526 0
M  V30 1140 C 104.596 -3.57399 -0.00602758 0
M  V30 1141 C 104.262 -4.31902 1.29503 0
M  V30 1142 C 102.924 -4.51974 1.65144 0
M  V30 1143 C 105.276 -4.74551 2.15525 0
M  V30 1144 C 102.604 -5.11949 2.86574 0
M  V30 1145 C 104.956 -5.35868 3.36196 0
M  V30 1146 C 103.62 -5.54165 3.72099 0
M  V30 1147 H 102.89 -0.740239 0.0335658 0
M  V30 1148 H 105.537 -1.7491 0.779661 0
M  V30 1149 H 103.842 -3.84014 -0.777183 0
M  V30 1150 H 105.539 -3.98846 -0.415038 0
M  V30 1151 H 102.129 -4.16588 1.00761 0
M  V30 1152 H 106.313 -4.58784 1.8929 0
M  V30 1153 H 101.569 -5.24305 3.14507 0
M  V30 1154 H 105.743 -5.6787 4.03109 0
M  V30 1155 H 103.37 -6.00406 4.6628 0
M  V30 1156 N 104.945 -0.338344 -1.53925 0
M  V30 1157 C 105.875 0.51328 -2.27789 0
M  V30 1158 C 106.856 1.107 -1.29149 0
M  V30 1159 O 108.041 1.12937 -1.57984 0
M  V30 1160 C 105.171 1.66697 -3.04679 0
M  V30 1161 C 104.125 1.20183 -4.1078 0
M  V30 1162 C 103.451 2.44363 -4.75595 0
M  V30 1163 C 104.751 0.30605 -5.21403 0
M  V30 1164 H 106.445 -0.102883 -2.99223 0
M  V30 1165 H 103.991 -0.0509219 -1.4391 0
M  V30 1166 H 105.944 2.26915 -3.55088 0
M  V30 1167 H 104.668 2.30995 -2.30887 0
M  V30 1168 H 103.327 0.622499 -3.61276 0
M  V30 1169 H 102.975 3.07057 -3.98403 0
M  V30 1170 H 102.675 2.13925 -5.47275 0
M  V30 1171 H 104.199 3.05317 -5.28786 0
M  V30 1172 H 105.613 0.814929 -5.67478 0
M  V30 1173 H 104.01 0.0937929 -6.00027 0
M  V30 1174 H 105.08 -0.65921 -4.80398 0
M  V30 1175 N 106.423 1.57458 -0.0668435 0
M  V30 1176 C 107.653 1.97337 0.611677 0
M  V30 1177 C 108.061 0.943744 1.63982 0
M  V30 1178 O 107.404 -0.0785584 1.83532 0
M  V30 1179 C 107.466 3.33511 1.34205 0
M  V30 1180 C 107.13 4.54598 0.467941 0
M  V30 1181 C 108.127 5.19186 -0.272439 0
M  V30 1182 C 105.812 5.0075 0.39427 0
M  V30 1183 C 107.806 6.28274 -1.07476 0
M  V30 1184 C 105.493 6.09711 -0.411729 0
M  V30 1185 C 106.491 6.73335 -1.14492 0
M  V30 1186 O 106.179 7.80199 -1.93763 0
M  V30 1187 H 105.911 0.654042 0.170893 0
M  V30 1188 H 108.465 2.04961 -0.134289 0
M  V30 1189 H 106.695 3.22487 2.13398 0
M  V30 1190 H 108.384 3.58029 1.91233 0
M  V30 1191 H 109.15 4.84477 -0.225086 0
M  V30 1192 H 105.029 4.51009 0.954569 0
M  V30 1193 H 108.573 6.77866 -1.64755 0
M  V30 1194 H 104.47 6.43854 -0.460664 0
M  V30 1195 H 105.238 7.97053 -1.86142 0
M  V30 1196 N 107.901 -0.206675 1.56239 0
M  V30 1197 C 109.148 -0.928842 1.79941 0
M  V30 1198 C 109.476 -1.83734 0.638131 0
M  V30 1199 O 108.731 -1.92039 -0.376746 0
M  V30 1200 C 109.03 -1.78675 3.09532 0
M  V30 1201 C 108.696 -1.03022 4.38973 0
M  V30 1202 C 107.358 -0.821302 4.74139 0
M  V30 1203 C 109.71 -0.497081 5.18824 0
M  V30 1204 C 107.038 -0.0675719 5.86661 0
M  V30 1205 C 109.39 0.24338 6.32132 0
M  V30 1206 C 108.054 0.463422 6.65889 0
M  V30 1207 H 107.324 -0.339887 0.658451 0
M  V30 1208 H 109.971 -0.195977 1.90495 0
M  V30 1209 H 108.276 -2.58794 2.94165 0
M  V30 1210 H 109.973 -2.34792 3.25075 0
M  V30 1211 H 106.563 -1.20306 4.11369 0
M  V30 1212 H 110.747 -0.645921 4.92079 0
M  V30 1213 H 106.003 0.112995 6.11296 0
M  V30 1214 H 110.177 0.66393 6.93228 0
M  V30 1215 H 107.804 1.04938 7.52922 0
M  V30 1216 N 109.379 -1.50304 -0.473955 0
M  V30 1217 C 110.656 -1.51667 -1.23518 0
M  V30 1218 C 111.036 -0.259701 -2.09496 0
M  V30 1219 O 110.384 0.756986 -2.15597 0
M  V30 1220 C 110.594 -2.81082 -2.06868 0
M  V30 1221 C 111.942 -3.31631 -2.65153 0
M  V30 1222 O 112.966 -2.82384 -2.17113 0
M  V30 1223 O 111.825 -4.17471 -3.52675 0
M  V30 1224 H 108.919 -0.60822 -0.560355 0
M  V30 1225 H 111.465 -1.62592 -0.486011 0
M  V30 1226 H 110.237 -3.64041 -1.4349 0
M  V30 1227 H 109.86 -2.73146 -2.88924 0
M  V30 1228 N 110.857 0.726932 -1.39834 0
M  V30 1229 C 111.787 1.85405 -1.41941 0
M  V30 1230 C 112.768 1.67751 -0.281728 0
M  V30 1231 O 113.953 1.8795 -0.488717 0
M  V30 1232 C 111.083 3.23243 -1.2701 0
M  V30 1233 C 110.037 3.55549 -2.38262 0
M  V30 1234 C 109.363 4.9241 -2.08415 0
M  V30 1235 C 110.663 3.577 -3.80589 0
M  V30 1236 H 112.357 1.83899 -2.36266 0
M  V30 1237 H 109.903 0.883349 -1.13723 0
M  V30 1238 H 111.856 4.01775 -1.27103 0
M  V30 1239 H 110.58 3.25296 -0.291564 0
M  V30 1240 H 109.239 2.79351 -2.37399 0
M  V30 1241 H 108.887 4.91052 -1.0898 0
M  V30 1242 H 108.587 5.14992 -2.82943 0
M  V30 1243 H 110.111 5.73289 -2.10171 0
M  V30 1244 H 111.525 4.26293 -3.83337 0
M  V30 1245 H 109.922 3.91804 -4.54543 0
M  V30 1246 H 110.992 2.57328 -4.10987 0
M  V30 1247 N 112.336 1.25143 0.95797 0
M  V30 1248 C 113.585 1.0909 1.69654 0
M  V30 1249 C 113.898 -0.368548 1.92097 0
M  V30 1250 O 115.104 -0.649455 2.63618 0
M  V30 1251 C 113.56 1.90395 3.05414 0
M  V30 1252 C 113.168 3.4081 2.90779 0
M  V30 1253 C 114.912 1.82901 3.83076 0
M  V30 1254 C 112.819 4.14423 4.21909 0
M  V30 1255 H 111.749 0.404625 0.636235 0
M  V30 1256 H 114.4 1.4931 1.06672 0
M  V30 1257 H 112.782 1.42996 3.69281 0
M  V30 1258 H 113.956 3.95859 2.35865 0
M  V30 1259 H 112.271 3.49361 2.26575 0
M  V30 1260 H 114.868 2.35196 4.80195 0
M  V30 1261 H 115.211 0.796224 4.08615 0
M  V30 1262 H 115.744 2.28033 3.25954 0
M  V30 1263 H 112.483 5.18102 4.01561 0
M  V30 1264 H 112.003 3.64159 4.76601 0
M  V30 1265 H 113.682 4.21956 4.90471 0
M  V30 1266 N 113.814 -1.1601 1.06675 0
M  V30 1267 C 115.044 -1.90251 0.805497 0
M  V30 1268 C 115.452 -1.77891 -0.64431 0
M  V30 1269 O 114.795 -1.12383 -1.45313 0
M  V30 1270 C 114.857 -3.41419 1.12576 0
M  V30 1271 C 114.521 -3.77564 2.57477 0
M  V30 1272 C 115.518 -3.79161 3.55715 0
M  V30 1273 C 113.203 -4.08079 2.92877 0
M  V30 1274 C 115.197 -4.10767 4.8739 0
M  V30 1275 C 112.884 -4.39351 4.24751 0
M  V30 1276 C 113.882 -4.40675 5.21818 0
M  V30 1277 O 113.57 -4.71202 6.51325 0
M  V30 1278 H 113.302 -0.610018 0.291297 0
M  V30 1279 H 115.856 -1.47958 1.4247 0
M  V30 1280 H 114.086 -3.84079 0.449503 0
M  V30 1281 H 115.775 -3.9694 0.84814 0
M  V30 1282 H 116.541 -3.55693 3.29708 0
M  V30 1283 H 112.42 -4.06211 2.17976 0
M  V30 1284 H 115.964 -4.11715 5.63148 0
M  V30 1285 H 111.861 -4.62285 4.50514 0
M  V30 1286 H 112.629 -4.88996 6.56373 0
M  V30 1287 N 115.292 -0.849877 -1.32721 0
M  V30 1288 C 116.517 -0.463856 -2.02146 0
M  V30 1289 C 116.942 0.930449 -1.63476 0
M  V30 1290 O 116.3 1.61033 -0.832952 0
M  V30 1291 C 116.348 -0.604955 -3.55489 0
M  V30 1292 O 115.452 0.36425 -4.10788 0
M  V30 1293 H 114.793 -0.187046 -0.637111 0
M  V30 1294 H 117.323 -1.14775 -1.69375 0
M  V30 1295 H 117.333 -0.490696 -4.05038 0
M  V30 1296 H 116.008 -1.62174 -3.82978 0
M  V30 1297 H 114.585 0.206628 -3.72327 0
M  V30 1298 N 116.77 1.45427 -0.607355 0
M  V30 1299 C 118.019 2.01452 -0.100036 0
M  V30 1300 C 118.332 1.48159 1.27704 0
M  V30 1301 O 119.538 1.96159 1.87707 0
M  V30 1302 C 117.994 3.59672 -0.128158 0
M  V30 1303 C 117.602 4.21962 -1.50507 0
M  V30 1304 C 119.346 4.23262 0.323932 0
M  V30 1305 C 117.253 5.72333 -1.48959 0
M  V30 1306 H 116.183 0.75325 -0.0336299 0
M  V30 1307 H 118.834 1.66901 -0.76265 0
M  V30 1308 H 117.216 3.91411 0.601105 0
M  V30 1309 H 118.39 4.01796 -2.25602 0
M  V30 1310 H 116.705 3.70565 -1.89923 0
M  V30 1311 H 119.302 5.33522 0.354691 0
M  V30 1312 H 119.645 3.93921 1.34656 0
M  V30 1313 H 120.178 3.96239 -0.352056 0
M  V30 1314 H 116.917 6.06373 -2.48981 0
M  V30 1315 H 116.437 5.94691 -0.781214 0
M  V30 1316 H 118.116 6.35525 -1.21313 0
M  V30 1317 N 118.248 0.346503 1.53744 0
M  V30 1318 C 119.195 -0.508914 2.25119 0
M  V30 1319 C 120.165 -1.09315 1.25058 0
M  V30 1320 O 121.35 -1.12921 1.53797 0
M  V30 1321 C 118.49 -1.65246 3.02965 0
M  V30 1322 C 117.603 -1.09525 4.17886 0
M  V30 1323 C 116.738 -2.20634 4.83212 0
M  V30 1324 C 115.777 -1.62279 5.90196 0
M  V30 1325 N 114.914 -2.67143 6.49291 0
M  V30 1326 H 119.754 0.106283 2.9781 0
M  V30 1327 H 117.291 0.0642227 1.4696 0
M  V30 1328 H 119.249 -2.32574 3.4636 0
M  V30 1329 H 117.879 -2.2386 2.32565 0
M  V30 1330 H 116.931 -0.312818 3.79112 0
M  V30 1331 H 118.243 -0.628444 4.94825 0
M  V30 1332 H 117.397 -2.95821 5.29693 0
M  V30 1333 H 116.136 -2.70659 4.05703 0
M  V30 1334 H 115.141 -0.855989 5.43096 0
M  V30 1335 H 116.366 -1.13102 6.69615 0
M  V30 1336 H 114.312 -3.16417 5.74645 0
M  V30 1337 H 114.229 -2.25093 7.21713 0
M  V30 1338 H 115.497 -3.4209 7.00425 0
M  V30 1339 N 119.726 -1.57421 0.075193 0
M  V30 1340 C 121.003 -1.85029 -0.634329 0
M  V30 1341 C 121.383 -0.968305 -1.87582 0
M  V30 1342 O 120.731 -0.0354749 -2.28472 0
M  V30 1343 C 120.941 -3.35286 -0.968742 0
M  V30 1344 C 122.289 -4.02875 -1.34077 0
M  V30 1345 O 123.313 -3.40051 -1.06037 0
M  V30 1346 O 122.172 -5.13691 -1.86506 0
M  V30 1347 H 119.266 -0.7645 -0.315387 0
M  V30 1348 H 121.812 -1.69366 0.106382 0
M  V30 1349 H 120.584 -3.91203 -0.0871376 0
M  V30 1350 H 120.207 -3.56223 -1.7661 0
M  V30 1351 N 121.204 0.198386 -1.56346 0
M  V30 1352 C 122.432 0.935572 -1.84539 0
M  V30 1353 C 122.847 1.76989 -0.657281 0
M  V30 1354 O 122.204 1.78626 0.374043 0
M  V30 1355 C 122.255 1.8344 -3.11499 0
M  V30 1356 O 121.976 1.03377 -4.25728 0
M  V30 1357 C 123.477 2.68355 -3.52846 0
M  V30 1358 H 120.697 0.273126 -0.612897 0
M  V30 1359 H 123.241 0.20663 -2.03453 0
M  V30 1360 H 121.396 2.51701 -2.94492 0
M  V30 1361 H 121.81 1.64599 -4.98003 0
M  V30 1362 H 123.284 3.27085 -4.44657 0
M  V30 1363 H 123.761 3.41901 -2.75681 0
M  V30 1364 H 124.367 2.05471 -3.72373 0
M  V30 1365 N 122.682 1.50554 0.465978 0
M  V30 1366 C 123.629 1.6979 1.56333 0
M  V30 1367 C 124.599 0.539239 1.57103 0
M  V30 1368 O 125.784 0.770401 1.74555 0
M  V30 1369 C 122.924 1.80273 2.94271 0
M  V30 1370 C 122.037 3.07674 3.0325 0
M  V30 1371 C 121.172 3.08922 4.32135 0
M  V30 1372 C 120.211 4.30755 4.34875 0
M  V30 1373 N 119.348 4.29714 5.55239 0
M  V30 1374 H 124.188 2.63472 1.39235 0
M  V30 1375 H 121.725 1.30602 0.676873 0
M  V30 1376 H 123.683 1.84332 3.74269 0
M  V30 1377 H 122.313 0.900258 3.09992 0
M  V30 1378 H 121.365 3.13062 2.16094 0
M  V30 1379 H 122.677 3.97642 3.01135 0
M  V30 1380 H 121.831 3.11738 5.20485 0
M  V30 1381 H 120.57 2.16792 4.36866 0
M  V30 1382 H 119.575 4.28146 3.44922 0
M  V30 1383 H 120.8 5.24117 4.31831 0
M  V30 1384 H 118.746 3.4044 5.60746 0
M  V30 1385 H 118.663 5.13456 5.54886 0
M  V30 1386 H 119.931 4.36683 6.457 0
M  V30 1387 N 124.16 -0.719506 1.40217 0
M  V30 1388 C 125.09 -1.8465 1.42922 0
M  V30 1389 C 126.071 -1.67599 0.29062 0
M  V30 1390 O 127.256 -1.87688 0.498677 0
M  V30 1391 C 124.386 -3.22565 1.28722 0
M  V30 1392 C 123.34 -3.54281 2.40144 0
M  V30 1393 C 122.666 -4.91298 2.11023 0
M  V30 1394 C 123.966 -3.55676 3.82481 0
M  V30 1395 H 125.66 -1.82644 2.37237 0
M  V30 1396 H 123.206 -0.877305 1.1419 0
M  V30 1397 H 125.159 -4.01095 1.29232 0
M  V30 1398 H 123.883 -3.25137 0.308811 0
M  V30 1399 H 122.542 -2.78088 2.38877 0
M  V30 1400 H 122.19 -4.90468 1.11582 0
M  V30 1401 H 121.89 -5.13485 2.8567 0
M  V30 1402 H 123.414 -5.72166 2.13209 0
M  V30 1403 H 124.828 -4.24254 3.85592 0
M  V30 1404 H 123.225 -3.89388 4.56614 0
M  V30 1405 H 124.295 -2.55144 4.12346 0
M  V30 1406 N 125.638 -1.25649 -0.95132 0
M  V30 1407 C 126.886 -1.10375 -1.69298 0
M  V30 1408 C 127.207 0.355339 -1.91735 0
M  V30 1409 O 126.477 1.25188 -1.50681 0
M  V30 1410 H 125.057 -0.405461 -0.627384 0
M  V30 1411 H 127.719 -1.57823 -1.14358 0
M  V30 1412 H 126.815 -1.61465 -2.67087 0
M  V30 1413 N 127.117 1.15442 -1.07289 0
M  V30 1414 C 128.065 2.22225 -0.686952 0
M  V30 1415 C 129.059 1.66688 0.30193 0
M  V30 1416 O 130.265 1.79236 0.165712 0
M  V30 1417 H 126.64 0.723783 -0.204064 0
M  V30 1418 H 128.611 2.52056 -1.5972 0
M  V30 1419 C 127.36 3.47556 -0.100149 0
M  V30 1420 H 126.683 3.90612 -0.852211 0
M  V30 1421 H 128.123 4.23794 0.132235 0
M  V30 1422 C 126.582 3.16337 1.159 0
M  V30 1423 O 127.112 3.33074 2.24555 0
M  V30 1424 N 125.318 2.70385 1.06491 0
M  V30 1425 H 124.865 2.56966 0.180668 0
M  V30 1426 H 124.823 2.49871 1.90819 0
M  V30 1427 N 128.595 0.856903 1.32268 0
M  V30 1428 C 129.825 0.47475 2.01071 0
M  V30 1429 C 130.233 -0.933746 1.64553 0
M  V30 1430 O 129.576 -1.62114 0.863989 0
M  V30 1431 C 129.638 0.536746 3.55471 0
M  V30 1432 C 129.302 1.90453 4.15423 0
M  V30 1433 C 130.299 2.87029 4.33486 0
M  V30 1434 C 127.984 2.20229 4.51447 0
M  V30 1435 C 129.978 4.11532 4.86744 0
M  V30 1436 C 127.665 3.44984 5.0441 0
M  V30 1437 C 128.663 4.40452 5.22007 0
M  V30 1438 O 128.351 5.62998 5.73837 0
M  V30 1439 H 128.083 0.184778 0.650256 0
M  V30 1440 H 130.637 1.15615 1.69771 0
M  V30 1441 H 128.867 -0.20152 3.86175 0
M  V30 1442 H 130.556 0.169875 4.05544 0
M  V30 1443 H 131.322 2.6533 4.05986 0
M  V30 1444 H 127.201 1.46705 4.37034 0
M  V30 1445 H 130.745 4.86056 5.00395 0
M  V30 1446 H 126.642 3.66532 5.31342 0
M  V30 1447 H 127.41 5.64987 5.92226 0
M  V30 1448 N 130.073 -1.45103 0.615059 0
M  V30 1449 C 131.35 -1.95549 0.0448276 0
M  V30 1450 C 131.73 -1.55737 -1.4251 0
M  V30 1451 O 131.078 -0.823556 -2.13143 0
M  V30 1452 C 131.288 -3.48098 0.250785 0
M  V30 1453 C 132.636 -4.24384 0.135509 0
M  V30 1454 O 133.66 -3.55738 0.181299 0
M  V30 1455 O 132.519 -5.46493 0.0268878 0
M  V30 1456 H 129.613 -0.8264 -0.0314845 0
M  V30 1457 H 132.159 -1.55232 0.685642 0
M  V30 1458 H 130.931 -3.7007 1.27139 0
M  V30 1459 H 130.554 -3.95323 -0.424937 0
M  V30 1460 N 131.551 -0.354651 -1.53558 0
M  V30 1461 C 132.499 0.512195 -2.26891 0
M  V30 1462 C 133.493 1.09263 -1.29452 0
M  V30 1463 O 134.699 1.03709 -1.47121 0
M  V30 1464 H 131.074 0.183878 -0.729173 0
M  V30 1465 H 133.045 -0.128202 -2.98124 0
M  V30 1466 C 131.794 1.64563 -3.06291 0
M  V30 1467 H 131.117 1.20829 -3.81104 0
M  V30 1468 H 132.557 2.22711 -3.60799 0
M  V30 1469 C 131.016 2.58158 -2.16462 0
M  V30 1470 O 131.546 3.60695 -1.76811 0
M  V30 1471 N 129.752 2.27096 -1.81317 0
M  V30 1472 H 129.299 1.43751 -2.1376 0
M  V30 1473 H 129.257 2.89975 -1.21498 0
M  V30 1474 N 133.029 1.57378 -0.0835403 0
M  V30 1475 C 134.275 1.94217 0.583733 0
M  V30 1476 C 134.608 0.964653 1.68547 0
M  V30 1477 O 133.883 -0.00422258 1.945 0
M  V30 1478 C 134.166 3.41253 1.14972 0
M  V30 1479 C 134.019 4.49768 0.0538277 0
M  V30 1480 C 135.338 3.89352 2.05166 0
M  V30 1481 H 132.457 0.706233 0.210724 0
M  V30 1482 H 135.099 1.89392 -0.1519 0
M  V30 1483 H 133.249 3.45496 1.77665 0
M  V30 1484 H 134.921 4.57641 -0.579851 0
M  V30 1485 H 133.164 4.29432 -0.614068 0
M  V30 1486 H 133.835 5.49817 0.490452 0
M  V30 1487 H 136.311 3.87189 1.52393 0
M  V30 1488 H 135.187 4.92822 2.41698 0
M  V30 1489 H 135.448 3.27973 2.96456 0
M  V30 1490 N 134.507 -0.190092 1.56449 0
M  V30 1491 C 135.923 -0.54113 1.50146 0
M  V30 1492 C 136.123 -1.85603 0.784465 0
M  V30 1493 O 135.179 -2.5024 0.337051 0
M  V30 1494 C 136.492 -0.591241 2.9483 0
M  V30 1495 C 138.04 -0.679732 3.0553 0
M  V30 1496 C 138.515 -0.760908 4.51635 0
M  V30 1497 N 140.006 -0.824302 4.55806 0
M  V30 1498 C 140.741 -0.907365 5.66175 0
M  V30 1499 N 140.237 -0.952422 6.86222 0
M  V30 1500 N 142.03 -0.94494 5.541 0
M  V30 1501 H 134.181 0.67235 2.01478 0
M  V30 1502 H 136.444 0.240127 0.917084 0
M  V30 1503 H 136.15 0.305905 3.50367 0
M  V30 1504 H 136.024 -1.44422 3.48457 0
M  V30 1505 H 138.411 -1.56731 2.50039 0
M  V30 1506 H 138.492 0.199549 2.5502 0
M  V30 1507 H 138.136 0.122336 5.07753 0
M  V30 1508 H 138.066 -1.65606 4.99882 0
M  V30 1509 H 140.557 -0.798526 3.69367 0
M  V30 1510 H 140.87 -1.01645 7.66086 0
M  V30 1511 H 139.215 -0.921014 6.8887 0
M  V30 1512 H 142.406 -0.906612 4.59236 0
M  V30 1513 H 142.579 -1.00622 6.4014 0
M  V30 1514 N 135.985 -1.50799 -0.457987 0
M  V30 1515 C 137.231 -1.62683 -1.21088 0
M  V30 1516 C 137.564 -0.332268 -1.91336 0
M  V30 1517 O 136.839 0.667043 -1.82704 0
M  V30 1518 C 137.122 -2.81615 -2.24422 0
M  V30 1519 C 136.975 -4.20989 -1.58392 0
M  V30 1520 C 138.294 -2.96085 -3.2561 0
M  V30 1521 H 135.413 -0.592087 -0.438864 0
M  V30 1522 H 138.055 -1.83225 -0.50286 0
M  V30 1523 H 136.205 -2.64231 -2.84806 0
M  V30 1524 H 137.877 -4.49994 -1.01504 0
M  V30 1525 H 136.12 -4.24641 -0.886704 0
M  V30 1526 H 136.791 -5.0016 -2.33547 0
M  V30 1527 H 139.267 -3.12042 -2.75262 0
M  V30 1528 H 138.143 -3.80902 -3.95228 0
M  V30 1529 H 138.404 -2.0726 -3.90507 0
M  V30 1530 N 137.463 0.71206 -1.40597 0
M  V30 1531 C 138.373 1.8562 -1.43466 0
M  V30 1532 C 139.389 1.70902 -0.326902 0
M  V30 1533 O 140.565 1.93105 -0.572043 0
M  V30 1534 C 137.63 3.21451 -1.29884 0
M  V30 1535 C 136.691 3.48398 -2.50833 0
M  V30 1536 C 135.924 4.77749 -2.3789 0
M  V30 1537 O 136.147 5.53089 -1.39459 0
M  V30 1538 O 135.081 5.05111 -3.27333 0
M  V30 1539 H 138.907 1.86155 -2.39958 0
M  V30 1540 H 136.492 0.86295 -1.21957 0
M  V30 1541 H 138.374 4.02579 -1.24531 0
M  V30 1542 H 137.049 3.21636 -0.364997 0
M  V30 1543 H 135.956 2.67265 -2.61763 0
M  V30 1544 H 137.289 3.53014 -3.4299 0
M  V30 1545 N 138.941 1.26152 0.944643 0
M  V30 1546 C 140.188 1.11492 1.69044 0
M  V30 1547 C 140.516 -0.342366 1.91463 0
M  V30 1548 O 139.771 -1.26812 1.49054 0
M  V30 1549 C 140.07 1.82541 3.07268 0
M  V30 1550 C 139.736 3.32445 3.04616 0
M  V30 1551 C 138.398 3.73337 3.036 0
M  V30 1552 C 140.75 4.28171 2.97185 0
M  V30 1553 C 138.078 5.08348 2.92915 0
M  V30 1554 C 140.43 5.63218 2.88041 0
M  V30 1555 C 139.094 6.03426 2.85366 0
M  V30 1556 H 138.364 0.407977 0.618576 0
M  V30 1557 H 141.011 1.56551 1.10291 0
M  V30 1558 H 139.316 1.29941 3.69625 0
M  V30 1559 H 141.013 1.68642 3.63815 0
M  V30 1560 H 137.603 2.99915 3.06185 0
M  V30 1561 H 141.787 3.97563 2.97081 0
M  V30 1562 H 137.043 5.38667 2.89219 0
M  V30 1563 H 141.217 6.37078 2.81254 0
M  V30 1564 H 138.844 7.07999 2.76842 0
M  V30 1565 N 140.419 -1.14872 1.07899 0
M  V30 1566 C 141.366 -2.19791 0.704319 0
M  V30 1567 C 142.336 -1.63238 -0.306987 0
M  V30 1568 O 143.521 -1.8983 -0.192171 0
M  V30 1569 C 140.661 -3.44911 0.114244 0
M  V30 1570 C 139.774 -4.15637 1.1777 0
M  V30 1571 C 138.909 -5.28324 0.552037 0
M  V30 1572 C 137.948 -5.90875 1.59789 0
M  V30 1573 N 137.085 -6.95022 0.994404 0
M  V30 1574 H 141.925 -2.5119 1.60336 0
M  V30 1575 H 139.462 -1.23356 0.801352 0
M  V30 1576 H 141.42 -4.16477 -0.245544 0
M  V30 1577 H 140.05 -3.14011 -0.74813 0
M  V30 1578 H 139.102 -3.42512 1.65499 0
M  V30 1579 H 140.414 -4.5823 1.97046 0
M  V30 1580 H 139.568 -6.06538 0.1402 0
M  V30 1581 H 138.307 -4.86939 -0.272431 0
M  V30 1582 H 137.312 -5.11369 2.01945 0
M  V30 1583 H 138.537 -6.34337 2.42474 0
M  V30 1584 H 136.483 -6.55722 0.190939 0
M  V30 1585 H 136.4 -7.36073 1.72432 0
M  V30 1586 H 137.668 -7.77123 0.608253 0
M  V30 1587 N 141.898 -0.863906 -1.31812 0
M  V30 1588 C 142.846 -0.30422 -2.30602 0
M  V30 1589 C 143.84 0.577419 -1.59255 0
M  V30 1590 O 145.046 0.464194 -1.73912 0
M  V30 1591 H 141.421 -0.0796877 -0.747766 0
M  V30 1592 H 143.392 -1.15148 -2.75288 0
M  V30 1593 C 142.141 0.484617 -3.44306 0
M  V30 1594 H 141.464 -0.18451 -3.99374 0
M  V30 1595 H 142.904 0.841664 -4.15562 0
M  V30 1596 C 141.363 1.6735 -2.92396 0
M  V30 1597 O 141.893 2.77273 -2.90659 0
M  V30 1598 N 140.099 1.50362 -2.48676 0
M  V30 1599 H 139.646 0.609402 -2.50288 0
M  V30 1600 H 139.604 2.30051 -2.14299 0
M  V30 1601 N 143.376 1.44774 -0.622745 0
M  V30 1602 C 144.323 2.30635 0.0871679 0
M  V30 1603 C 145.293 1.42994 0.845097 0
M  V30 1604 O 146.478 1.71907 0.827812 0
M  V30 1605 C 143.618 3.28144 1.06844 0
M  V30 1606 C 142.731 4.30888 0.309809 0
M  V30 1607 C 141.866 5.15494 1.28215 0
M  V30 1608 C 140.905 6.09953 0.512198 0
M  V30 1609 N 140.042 6.87287 1.43458 0
M  V30 1610 H 144.882 2.90803 -0.650974 0
M  V30 1611 H 142.419 1.43286 -0.33281 0
M  V30 1612 H 144.377 3.83157 1.65066 0
M  V30 1613 H 143.007 2.69695 1.77382 0
M  V30 1614 H 142.059 3.78414 -0.388181 0
M  V30 1615 H 143.371 4.97955 -0.290254 0
M  V30 1616 H 142.525 5.74983 1.93596 0
M  V30 1617 H 141.264 4.48481 1.91614 0
M  V30 1618 H 140.269 5.49581 -0.155151 0
M  V30 1619 H 141.494 6.78999 -0.116958 0
M  V30 1620 H 139.44 6.2295 2.05594 0
M  V30 1621 H 139.357 7.50763 0.888335 0
M  V30 1622 H 140.625 7.51306 2.07749 0
M  V30 1623 N 144.854 0.36279 1.53368 0
M  V30 1624 C 146.131 -0.284021 1.93527 0
M  V30 1625 C 146.511 -1.66628 1.29608 0
M  V30 1626 O 145.859 -2.23942 0.45413 0
M  V30 1627 C 146.069 -0.337028 3.47369 0
M  V30 1628 C 147.417 -0.578708 4.20638 0
M  V30 1629 O 148.441 -0.418352 3.53735 0
M  V30 1630 O 147.3 -0.89074 5.39192 0
M  V30 1631 H 144.394 -0.169743 0.809393 0
M  V30 1632 H 146.94 0.41537 1.64538 0
M  V30 1633 H 145.712 0.632217 3.86159 0
M  V30 1634 H 145.335 -1.08243 3.82582 0
M  V30 1635 N 146.332 -1.57332 0.0918853 0
M  V30 1636 C 147.262 -2.16872 -0.865371 0
M  V30 1637 C 148.243 -1.10118 -1.29646 0
M  V30 1638 O 149.428 -1.38242 -1.36392 0
M  V30 1639 C 146.558 -2.74649 -2.12569 0
M  V30 1640 C 145.512 -3.86747 -1.83333 0
M  V30 1641 C 144.838 -4.31212 -3.16166 0
M  V30 1642 C 146.138 -5.10089 -1.1228 0
M  V30 1643 H 147.832 -2.97114 -0.369307 0
M  V30 1644 H 145.378 -1.42918 -0.176194 0
M  V30 1645 H 147.331 -3.14952 -2.7997 0
M  V30 1646 H 146.055 -1.91657 -2.64452 0
M  V30 1647 H 144.714 -3.46978 -1.18331 0
M  V30 1648 H 144.362 -3.45115 -3.6593 0
M  V30 1649 H 144.062 -5.06788 -2.97388 0
M  V30 1650 H 145.586 -4.74146 -3.84731 0
M  V30 1651 H 147 -5.47582 -1.69785 0
M  V30 1652 H 145.397 -5.91073 -1.03693 0
M  V30 1653 H 146.467 -4.84786 -0.105041 0
M  V30 1654 N 147.81 0.181792 -1.56548 0
M  V30 1655 C 148.773 1.20894 -1.94724 0
M  V30 1656 C 149.773 1.37738 -0.829747 0
M  V30 1657 O 150.963 1.35323 -1.09697 0
M  V30 1658 C 148.095 2.57593 -2.23291 0
M  V30 1659 H 149.288 0.882275 -2.86629 0
M  V30 1660 H 146.841 0.423838 -1.50444 0
M  V30 1661 H 147.576 2.95291 -1.34067 0
M  V30 1662 H 147.361 2.46735 -3.04736 0
M  V30 1663 H 148.851 3.31637 -2.53785 0
M  V30 1664 N 149.288 1.51039 0.449983 0
M  V30 1665 C 150.565 1.53612 1.21089 0
M  V30 1666 C 150.945 0.292997 2.09057 0
M  V30 1667 O 150.293 -0.72259 2.16774 0
M  V30 1668 C 150.503 2.84337 2.0237 0
M  V30 1669 C 151.851 3.35807 2.59843 0
M  V30 1670 O 152.875 2.85802 2.12593 0
M  V30 1671 O 151.734 4.23029 3.45989 0
M  V30 1672 H 148.828 0.617057 0.550608 0
M  V30 1673 H 151.374 1.63344 0.460082 0
M  V30 1674 H 150.146 3.66278 1.37681 0
M  V30 1675 H 149.769 2.77708 2.84542 0
M  V30 1676 N 150.766 -0.704594 1.40972 0
M  V30 1677 C 151.713 -1.81862 1.42109 0
M  V30 1678 C 152.683 -1.63781 0.276593 0
M  V30 1679 O 153.868 -1.84759 0.4763 0
M  V30 1680 C 151.008 -3.19669 1.30022 0
M  V30 1681 C 150.121 -3.49246 2.54267 0
M  V30 1682 C 149.256 -4.76618 2.3454 0
M  V30 1683 C 148.295 -4.99133 3.54306 0
M  V30 1684 N 147.432 -6.17726 3.33706 0
M  V30 1685 H 152.272 -1.80226 2.37324 0
M  V30 1686 H 149.809 -0.880238 1.17857 0
M  V30 1687 H 151.767 -3.99263 1.21018 0
M  V30 1688 H 150.397 -3.20506 0.384192 0
M  V30 1689 H 149.449 -2.64125 2.73756 0
M  V30 1690 H 150.761 -3.61788 3.43381 0
M  V30 1691 H 149.915 -5.64249 2.22952 0
M  V30 1692 H 148.654 -4.66305 1.42867 0
M  V30 1693 H 147.659 -4.09953 3.66359 0
M  V30 1694 H 148.884 -5.11311 4.4692 0
M  V30 1695 H 146.83 -6.08642 2.44725 0
M  V30 1696 H 146.747 -6.30995 4.16391 0
M  V30 1697 H 148.015 -7.08115 3.25873 0
M  V30 1698 N 152.244 -1.26651 -0.937939 0
M  V30 1699 C 153.474 -1.15006 -1.71631 0
M  V30 1700 C 153.882 0.297026 -1.86854 0
M  V30 1701 O 153.225 1.21493 -1.37786 0
M  V30 1702 C 153.287 -1.74984 -3.14039 0
M  V30 1703 C 152.951 -3.24103 -3.2219 0
M  V30 1704 C 153.948 -4.20877 -3.05219 0
M  V30 1705 C 151.633 -3.64625 -3.45476 0
M  V30 1706 C 153.627 -5.56151 -3.11408 0
M  V30 1707 C 151.314 -5.00032 -3.513 0
M  V30 1708 C 152.312 -5.95604 -3.34282 0
M  V30 1709 O 152 -7.28545 -3.3982 0
M  V30 1710 H 151.732 -0.401183 -0.544085 0
M  V30 1711 H 154.286 -1.67832 -1.18413 0
M  V30 1712 H 152.516 -1.16624 -3.68695 0
M  V30 1713 H 154.205 -1.58199 -3.73802 0
M  V30 1714 H 154.971 -3.90908 -2.87081 0
M  V30 1715 H 150.85 -2.90718 -3.57777 0
M  V30 1716 H 154.394 -6.30727 -2.98043 0
M  V30 1717 H 150.291 -5.29659 -3.68959 0
M  V30 1718 H 151.059 -7.3686 -3.56343 0
M  V30 1719 N 153.722 1.14298 -1.08507 0
M  V30 1720 C 154.669 2.19414 -0.715965 0
M  V30 1721 C 155.639 1.63399 0.298326 0
M  V30 1722 O 156.824 1.89929 0.182101 0
M  V30 1723 C 153.964 3.44845 -0.132534 0
M  V30 1724 C 153.077 4.15007 -1.19973 0
M  V30 1725 C 152.212 5.28024 -0.580048 0
M  V30 1726 C 151.251 5.9002 -1.62921 0
M  V30 1727 N 150.388 6.94485 -1.03125 0
M  V30 1728 H 155.228 2.50336 -1.61666 0
M  V30 1729 H 152.765 1.2293 -0.807882 0
M  V30 1730 H 154.723 4.16601 0.223454 0
M  V30 1731 H 153.353 3.14403 0.731467 0
M  V30 1732 H 152.405 3.41629 -1.67313 0
M  V30 1733 H 153.717 4.57178 -1.99473 0
M  V30 1734 H 152.871 6.06455 -0.172364 0
M  V30 1735 H 151.61 4.87076 0.246603 0
M  V30 1736 H 150.615 5.10291 -2.04654 0
M  V30 1737 H 151.84 6.33042 -2.45835 0
M  V30 1738 H 149.786 6.55612 -0.225711 0
M  V30 1739 H 149.703 7.35148 -1.76334 0
M  V30 1740 H 150.971 7.7679 -0.649458 0
M  V30 1741 N 155.201 0.870884 1.31352 0
M  V30 1742 C 156.478 0.402907 1.91405 0
M  V30 1743 C 156.858 -1.11512 1.79244 0
M  V30 1744 O 156.206 -1.94411 1.2007 0
M  V30 1745 C 156.416 0.885301 3.37585 0
M  V30 1746 C 157.764 0.911971 4.14691 0
M  V30 1747 O 158.788 0.831016 3.46371 0
M  V30 1748 O 157.647 1.02927 5.3672 0
M  V30 1749 H 154.741 0.120698 0.818145 0
M  V30 1750 H 157.287 0.958857 1.40014 0
M  V30 1751 H 156.059 1.92889 3.40455 0
M  V30 1752 H 155.682 0.307714 3.96407 0
M  V30 1753 N 156.679 -1.44442 0.630414 0
M  V30 1754 C 157.626 -2.30678 -0.0749355 0
M  V30 1755 C 158.596 -1.4344 -0.837502 0
M  V30 1756 O 159.781 -1.72343 -0.818684 0
M  V30 1757 C 156.921 -3.28706 -1.05103 0
M  V30 1758 C 156.034 -4.31046 -0.286954 0
M  V30 1759 C 155.169 -5.16167 -1.2548 0
M  V30 1760 C 154.208 -6.10216 -0.479843 0
M  V30 1761 N 153.345 -6.88039 -1.39811 0
M  V30 1762 H 158.185 -2.90454 0.666386 0
M  V30 1763 H 155.722 -1.43107 0.340404 0
M  V30 1764 H 157.68 -3.84027 -1.63031 0
M  V30 1765 H 156.31 -2.70632 -1.75949 0
M  V30 1766 H 155.362 -3.78203 0.408243 0
M  V30 1767 H 156.674 -4.97794 0.316657 0
M  V30 1768 H 155.828 -5.76002 -1.90544 0
M  V30 1769 H 154.567 -4.49491 -1.89233 0
M  V30 1770 H 153.572 -5.49491 0.184295 0
M  V30 1771 H 154.797 -6.78928 0.152965 0
M  V30 1772 H 152.743 -6.24032 -2.02287 0
M  V30 1773 H 152.66 -7.51223 -0.848508 0
M  V30 1774 H 153.928 -7.52397 -2.03762 0
M  V30 1775 N 158.157 -0.370918 -1.53173 0
M  V30 1776 C 159.387 0.217389 -2.05453 0
M  V30 1777 C 159.795 1.42568 -1.24382 0
M  V30 1778 O 159.138 1.81571 -0.278839 0
M  V30 1779 C 159.2 0.669827 -3.53205 0
M  V30 1780 C 158.864 -0.4225 -4.55043 0
M  V30 1781 C 159.861 -1.27407 -5.04047 0
M  V30 1782 C 157.546 -0.58427 -4.9889 0
M  V30 1783 C 159.54 -2.27271 -5.95505 0
M  V30 1784 C 157.227 -1.58627 -5.90153 0
M  V30 1785 C 158.225 -2.42892 -6.38351 0
M  V30 1786 O 157.913 -3.41382 -7.27814 0
M  V30 1787 H 157.645 0.0408171 -0.674767 0
M  V30 1788 H 160.199 -0.5292 -1.98466 0
M  V30 1789 H 158.429 1.4681 -3.57748 0
M  V30 1790 H 160.118 1.18173 -3.88317 0
M  V30 1791 H 160.884 -1.16031 -4.70916 0
M  V30 1792 H 156.763 0.061851 -4.60959 0
M  V30 1793 H 160.307 -2.93079 -6.33049 0
M  V30 1794 H 156.204 -1.70048 -6.22699 0
M  V30 1795 H 156.972 -3.37173 -7.45826 0
M  V30 1796 N 159.635 1.57281 -0.100228 0
M  V30 1797 C 160.881 1.94826 0.563101 0
M  V30 1798 C 161.214 0.982475 1.67514 0
M  V30 1799 O 160.489 0.0164069 1.94493 0
M  V30 1800 C 160.772 3.42453 1.11346 0
M  V30 1801 C 160.625 4.498 0.00612081 0
M  V30 1802 C 161.944 3.91506 2.01024 0
M  V30 1803 H 159.063 0.708428 0.203221 0
M  V30 1804 H 161.705 1.8922 -0.171979 0
M  V30 1805 H 159.855 3.47361 1.7399 0
M  V30 1806 H 161.527 4.57 -0.628357 0
M  V30 1807 H 159.77 4.28756 -0.659581 0
M  V30 1808 H 160.441 5.50306 0.432109 0
M  V30 1809 H 162.917 3.88784 1.48278 0
M  V30 1810 H 161.793 4.95358 2.36457 0
M  V30 1811 H 162.054 3.31099 2.92961 0
M  V30 1812 N 161.113 -0.173488 1.56642 0
M  V30 1813 C 162.39 -0.917617 1.7274 0
M  V30 1814 C 162.77 -2.00484 0.661027 0
M  V30 1815 O 162.118 -2.26184 -0.32453 0
M  V30 1816 C 162.328 -1.48433 3.15862 0
M  V30 1817 C 163.676 -1.95809 3.76754 0
M  V30 1818 O 164.7 -1.58231 3.19126 0
M  V30 1819 O 163.559 -2.65024 4.77938 0
M  V30 1820 H 160.653 -0.431772 0.705338 0
M  V30 1821 H 163.199 -0.161487 1.6893 0
M  V30 1822 H 161.971 -0.701715 3.84957 0
M  V30 1823 H 161.594 -2.30471 3.23989 0
M  V30 1824 N 162.591 -1.51276 -0.441967 0
M  V30 1825 C 163.837 -1.63958 -1.19355 0
M  V30 1826 C 164.17 -0.352543 -1.90973 0
M  V30 1827 O 163.445 0.647627 -1.83401 0
M  V30 1828 C 163.728 -2.83979 -2.21422 0
M  V30 1829 C 163.581 -4.22646 -1.53918 0
M  V30 1830 C 164.9 -2.99521 -3.22451 0
M  V30 1831 H 162.019 -0.596709 -0.432559 0
M  V30 1832 H 164.661 -1.83748 -0.483398 0
M  V30 1833 H 162.811 -2.67237 -2.81987 0
M  V30 1834 H 164.483 -4.51045 -0.967256 0
M  V30 1835 H 162.726 -4.25558 -0.841615 0
M  V30 1836 H 163.397 -5.02609 -2.28229 0
M  V30 1837 H 165.873 -3.14944 -2.71937 0
M  V30 1838 H 164.749 -3.85072 -3.91166 0
M  V30 1839 H 165.01 -2.11391 -3.88287 0
M  V30 1840 N 164.069 0.697108 -1.41344 0
M  V30 1841 C 165.316 1.45714 -1.40619 0
M  V30 1842 C 165.644 1.94494 -0.0147907 0
M  V30 1843 O 164.899 1.69794 0.973066 0
M  V30 1844 C 165.198 2.68553 -2.35826 0
M  V30 1845 C 164.864 2.38438 -3.82698 0
M  V30 1846 C 163.526 2.29936 -4.22709 0
M  V30 1847 C 165.878 2.13567 -4.75435 0
M  V30 1848 C 163.206 1.94656 -5.53467 0
M  V30 1849 C 165.558 1.79797 -6.06511 0
M  V30 1850 C 164.222 1.69789 -6.45545 0
M  V30 1851 H 163.492 0.533206 -0.51456 0
M  V30 1852 H 166.139 0.796901 -1.74131 0
M  V30 1853 H 164.444 3.39503 -1.95563 0
M  V30 1854 H 166.141 3.2669 -2.32539 0
M  V30 1855 H 162.731 2.4595 -3.51008 0
M  V30 1856 H 166.915 2.19082 -4.45328 0
M  V30 1857 H 162.171 1.8546 -5.82593 0
M  V30 1858 H 166.345 1.59572 -6.77872 0
M  V30 1859 H 163.972 1.4222 -7.46778 0
M  V30 1860 N 165.547 1.27147 0.931209 0
M  V30 1861 C 166.795 1.13055 1.6752 0
M  V30 1862 C 167.116 -0.324791 1.92276 0
M  V30 1863 O 166.386 -1.22775 1.52654 0
M  V30 1864 H 164.966 0.415391 0.620854 0
M  V30 1865 H 167.628 1.59623 1.11833 0
M  V30 1866 H 166.724 1.65694 2.64485 0
M  V30 1867 N 167.025 -1.13721 1.09112 0
M  V30 1868 C 167.988 -2.17222 0.731241 0
M  V30 1869 C 168.988 -1.59035 -0.237566 0
M  V30 1870 O 170.178 -1.74192 -0.0161704 0
M  V30 1871 C 167.31 -3.40804 0.0808443 0
M  V30 1872 H 168.503 -2.50573 1.64783 0
M  V30 1873 H 166.056 -1.28493 0.889897 0
M  V30 1874 H 166.791 -3.1304 -0.847127 0
M  V30 1875 H 166.576 -3.84306 0.777896 0
M  V30 1876 H 168.066 -4.1731 -0.155657 0
M  V30 1877 N 168.503 -0.877838 -1.30888 0
M  V30 1878 C 169.451 -0.328662 -2.30266 0
M  V30 1879 C 170.445 0.560496 -1.59859 0
M  V30 1880 O 171.651 0.445722 -1.74394 0
M  V30 1881 H 168.026 -0.0876142 -0.746879 0
M  V30 1882 H 169.997 -1.18061 -2.74051 0
M  V30 1883 C 168.746 0.448071 -3.44801 0
M  V30 1884 H 168.069 -0.226859 -3.99156 0
M  V30 1885 H 169.509 0.797541 -4.16432 0
M  V30 1886 C 167.968 1.64239 -2.94155 0
M  V30 1887 O 168.498 2.74175 -2.93583 0
M  V30 1888 N 166.704 1.47716 -2.50256 0
M  V30 1889 H 166.251 0.582821 -2.5092 0
M  V30 1890 H 166.209 2.27765 -2.16727 0
M  V30 1891 N 169.982 1.44106 -0.638065 0
M  V30 1892 C 171.212 2.06037 -0.152394 0
M  V30 1893 C 171.62 1.47808 1.18108 0
M  V30 1894 O 170.963 0.598092 1.73691 0
M  V30 1895 C 171.025 3.59488 0.0293714 0
M  V30 1896 C 170.689 4.4022 -1.22702 0
M  V30 1897 C 171.686 4.73256 -2.15232 0
M  V30 1898 C 169.371 4.8048 -1.46437 0
M  V30 1899 C 171.365 5.45444 -3.29802 0
M  V30 1900 C 169.052 5.52417 -2.61303 0
M  V30 1901 C 170.05 5.84819 -3.52811 0
M  V30 1902 O 169.738 6.55289 -4.65673 0
M  V30 1903 H 169.47 0.671233 -0.0801401 0
M  V30 1904 H 172.024 1.85851 -0.874563 0
M  V30 1905 H 170.254 3.78191 0.806758 0
M  V30 1906 H 171.943 4.03164 0.470475 0
M  V30 1907 H 172.709 4.42684 -1.98131 0
M  V30 1908 H 168.588 4.54676 -0.760977 0
M  V30 1909 H 172.132 5.70653 -4.01249 0
M  V30 1910 H 168.029 5.82404 -2.78344 0
M  V30 1911 H 168.797 6.73762 -4.64744 0
M  V30 1912 N 171.46 0.379036 1.52974 0
M  V30 1913 C 172.69 -0.20649 2.05566 0
M  V30 1914 C 173.098 -1.41906 1.25137 0
M  V30 1915 O 172.441 -1.81421 0.288464 0
M  V30 1916 C 172.503 -0.651086 3.53555 0
M  V30 1917 C 172.167 0.446626 4.54812 0
M  V30 1918 C 173.164 1.30079 5.03364 0
M  V30 1919 C 170.849 0.610719 4.98573 0
M  V30 1920 C 172.843 2.30426 5.94292 0
M  V30 1921 C 170.53 1.61754 5.89304 0
M  V30 1922 C 171.528 2.46274 6.37054 0
M  V30 1923 O 171.216 3.45237 7.25994 0
M  V30 1924 H 170.948 -0.0372381 0.674974 0
M  V30 1925 H 173.502 0.539718 1.98182 0
M  V30 1926 H 171.732 -1.44911 3.58522 0
M  V30 1927 H 173.421 -1.16112 3.88938 0
M  V30 1928 H 174.187 1.18527 4.70294 0
M  V30 1929 H 170.066 -0.0374044 4.60985 0
M  V30 1930 H 173.61 2.96432 6.31485 0
M  V30 1931 H 169.507 1.73348 6.21788 0
M  V30 1932 H 170.275 3.41124 7.44027 0
M  V30 1933 N 172.938 -1.57226 0.108567 0
M  V30 1934 C 174.168 -1.9889 -0.559142 0
M  V30 1935 C 174.576 -0.986889 -1.61422 0
M  V30 1936 O 173.919 0.0298705 -1.83676 0
M  V30 1937 C 173.981 -3.36952 -1.25315 0
M  V30 1938 C 173.645 -4.55679 -0.347248 0
M  V30 1939 C 174.642 -5.18281 0.409996 0
M  V30 1940 C 172.327 -5.0162 -0.261367 0
M  V30 1941 C 174.321 -6.25203 1.24096 0
M  V30 1942 C 172.008 -6.08405 0.573238 0
M  V30 1943 C 173.006 -6.70063 1.32304 0
M  V30 1944 O 172.694 -7.74788 2.14381 0
M  V30 1945 H 172.426 -0.658343 -0.153492 0
M  V30 1946 H 174.98 -2.04532 0.188584 0
M  V30 1947 H 173.21 -3.28032 -2.04773 0
M  V30 1948 H 174.899 -3.62974 -1.81673 0
M  V30 1949 H 175.665 -4.8371 0.353457 0
M  V30 1950 H 171.544 -4.53381 -0.834656 0
M  V30 1951 H 175.088 -6.73259 1.82669 0
M  V30 1952 H 170.985 -6.42406 0.631208 0
M  V30 1953 H 171.753 -7.91837 2.07209 0
M  V30 1954 N 174.416 0.165178 -1.56732 0
M  V30 1955 C 175.348 1.22911 -1.93457 0
M  V30 1956 C 176.361 1.40152 -0.828333 0
M  V30 1957 O 177.55 1.40046 -1.10677 0
M  V30 1958 C 174.65 2.59686 -2.17753 0
M  V30 1959 C 173.823 2.63663 -3.48999 0
M  V30 1960 C 172.882 3.81845 -3.62051 0
M  V30 1961 O 171.908 3.67559 -4.34613 0
M  V30 1962 N 173.11 4.98557 -2.97357 0
M  V30 1963 H 175.875 0.917118 -2.85323 0
M  V30 1964 H 173.436 0.354895 -1.57962 0
M  V30 1965 H 175.428 3.37225 -2.23743 0
M  V30 1966 H 173.998 2.83251 -1.32242 0
M  V30 1967 H 173.218 1.72173 -3.54612 0
M  V30 1968 H 174.506 2.63336 -4.35352 0
M  V30 1969 H 173.904 5.13065 -2.38287 0
M  V30 1970 H 172.461 5.73936 -3.08934 0
M  V30 1971 N 175.894 1.51508 0.433938 0
M  V30 1972 C 177.134 1.66006 1.19253 0
M  V30 1973 C 177.498 0.369868 1.88404 0
M  V30 1974 O 178.699 0.39066 2.65946 0
M  V30 1975 C 176.97 2.83229 2.17981 0
M  V30 1976 S 178.529 3.18075 3.02281 0
M  V30 1977 H 175.347 0.584821 0.404358 0
M  V30 1978 H 177.949 1.89425 0.48357 0
M  V30 1979 H 176.653 3.75407 1.65824 0
M  V30 1980 H 176.184 2.6201 2.93453 0
M  V30 1981 H 178.199 2.64772 4.19655 0
M  V30 1982 N 177.372 -0.689602 1.41712 0
M  V30 1983 C 178.602 -1.47613 1.44548 0
M  V30 1984 C 179.01 -1.89132 0.0509034 0
M  V30 1985 O 178.353 -1.57741 -0.94146 0
M  V30 1986 C 178.415 -2.76596 2.2964 0
M  V30 1987 C 178.079 -2.57245 3.77722 0
M  V30 1988 C 179.076 -2.22804 4.69739 0
M  V30 1989 C 176.761 -2.727 4.2183 0
M  V30 1990 C 178.755 -2.04064 6.03851 0
M  V30 1991 C 176.442 -2.53576 5.56006 0
M  V30 1992 C 177.44 -2.1931 6.46832 0
M  V30 1993 O 177.128 -2.00359 7.78532 0
M  V30 1994 H 176.86 -0.461227 0.494212 0
M  V30 1995 H 179.414 -0.856045 1.86711 0
M  V30 1996 H 177.644 -3.41033 1.82301 0
M  V30 1997 H 179.333 -3.38424 2.24107 0
M  V30 1998 H 180.099 -2.10473 4.36951 0
M  V30 1999 H 175.978 -2.98353 3.51435 0
M  V30 2000 H 179.522 -1.77241 6.74708 0
M  V30 2001 H 175.419 -2.65499 5.88371 0
M  V30 2002 H 176.187 -2.15075 7.89737 0
M  V30 2003 N 178.85 -1.27639 -0.924453 0
M  V30 2004 C 180.097 -1.14167 -1.67249 0
M  V30 2005 C 180.425 0.311863 -1.91984 0
M  V30 2006 O 179.68 1.24425 -1.51053 0
M  V30 2007 C 179.979 -1.87407 -3.04325 0
M  V30 2008 C 179.645 -3.37249 -2.99289 0
M  V30 2009 C 178.307 -3.7812 -2.97622 0
M  V30 2010 C 180.659 -4.32845 -2.90336 0
M  V30 2011 C 177.987 -5.12944 -2.8479 0
M  V30 2012 C 180.339 -5.6773 -2.79045 0
M  V30 2013 C 179.003 -6.07889 -2.7573 0
M  V30 2014 H 178.273 -0.417766 -0.612007 0
M  V30 2015 H 180.92 -1.58286 -1.07786 0
M  V30 2016 H 179.225 -1.35805 -3.67511 0
M  V30 2017 H 180.922 -1.74408 -3.61086 0
M  V30 2018 H 177.512 -3.04748 -3.01374 0
M  V30 2019 H 181.696 -4.02239 -2.90719 0
M  V30 2020 H 176.952 -5.432 -2.80612 0
M  V30 2021 H 181.126 -6.41472 -2.71083 0
M  V30 2022 H 178.753 -7.12314 -2.65544 0
M  V30 2023 N 180.328 1.1314 -1.09713 0
M  V30 2024 C 181.553 1.88862 -0.857081 0
M  V30 2025 C 181.978 1.78729 0.586304 0
M  V30 2026 O 181.336 1.13692 1.41222 0
M  V30 2027 C 181.384 3.36325 -1.30069 0
M  V30 2028 O 180.488 4.09815 -0.461007 0
M  V30 2029 H 179.829 0.587108 -0.310162 0
M  V30 2030 H 182.359 1.43129 -1.46203 0
M  V30 2031 H 182.369 3.87157 -1.28738 0
M  V30 2032 H 181.044 3.43017 -2.35185 0
M  V30 2033 H 179.621 3.68986 -0.538888 0
M  V30 2034 N 181.806 0.884767 1.30421 0
M  V30 2035 C 182.753 0.349642 2.28136 0
M  V30 2036 C 183.723 -0.560061 1.56373 0
M  V30 2037 O 184.908 -0.488524 1.8444 0
M  V30 2038 C 182.048 -0.42999 3.42411 0
M  V30 2039 C 181.161 0.508907 4.28992 0
M  V30 2040 C 180.296 -0.286301 5.30428 0
M  V30 2041 C 179.335 0.648079 6.08659 0
M  V30 2042 N 178.472 -0.111792 7.02011 0
M  V30 2043 H 183.312 1.18807 2.73293 0
M  V30 2044 H 180.849 0.597231 1.3443 0
M  V30 2045 H 182.807 -0.897923 4.07423 0
M  V30 2046 H 181.437 -1.23299 2.98324 0
M  V30 2047 H 180.489 1.09533 3.64289 0
M  V30 2048 H 181.801 1.22475 4.8353 0
M  V30 2049 H 180.955 -0.816098 6.01186 0
M  V30 2050 H 179.694 -1.03536 4.76583 0
M  V30 2051 H 178.699 1.18951 5.36778 0
M  V30 2052 H 179.924 1.39623 6.64592 0
M  V30 2053 H 177.87 -0.843395 6.50556 0
M  V30 2054 H 177.787 0.544429 7.54037 0
M  V30 2055 H 179.055 -0.622339 7.77012 0
M  V30 2056 N 183.284 -1.43765 0.645699 0
M  V30 2057 C 184.231 -2.30745 -0.0504648 0
M  V30 2058 C 185.201 -1.4432 -0.822241 0
M  V30 2059 O 186.386 -1.73202 -0.800358 0
M  V30 2060 C 183.526 -3.29802 -1.0161 0
M  V30 2061 C 182.639 -4.31326 -0.241219 0
M  V30 2062 C 181.774 -5.17469 -1.19998 0
M  V30 2063 C 180.813 -6.10691 -0.415094 0
M  V30 2064 N 179.95 -6.89483 -1.32506 0
M  V30 2065 H 184.79 -2.8973 0.697155 0
M  V30 2066 H 182.327 -1.42738 0.355563 0
M  V30 2067 H 184.285 -3.85734 -1.58949 0
M  V30 2068 H 182.915 -2.72483 -1.73069 0
M  V30 2069 H 181.967 -3.77749 0.448334 0
M  V30 2070 H 183.279 -4.9743 0.369437 0
M  V30 2071 H 182.433 -5.7799 -1.84424 0
M  V30 2072 H 181.172 -4.51473 -1.84455 0
M  V30 2073 H 180.177 -5.49265 0.242565 0
M  V30 2074 H 181.402 -6.78727 0.224966 0
M  V30 2075 H 179.348 -6.26142 -1.95657 0
M  V30 2076 H 179.265 -7.52081 -0.768783 0
M  V30 2077 H 180.533 -7.54516 -1.9577 0
M  V30 2078 N 184.763 -0.387143 -1.52771 0
M  V30 2079 C 185.991 0.195869 -2.05971 0
M  V30 2080 C 186.406 1.40691 -1.25903 0
M  V30 2081 O 185.763 1.79931 -0.305134 0
M  V30 2082 C 185.814 0.56812 -3.57008 0
M  V30 2083 O 185.535 -0.594803 -4.34043 0
M  V30 2084 C 187.036 1.20723 -4.26545 0
M  V30 2085 H 184.256 0.0300578 -0.670326 0
M  V30 2086 H 186.8 -0.551749 -1.96916 0
M  V30 2087 H 184.955 1.26564 -3.66143 0
M  V30 2088 H 185.369 -0.289322 -5.23701 0
M  V30 2089 H 186.843 1.41807 -5.33474 0
M  V30 2090 H 187.32 2.17395 -3.81623 0
M  V30 2091 H 187.926 0.550535 -4.21722 0
M  V30 2092 N 186.241 1.57166 -0.116904 0
M  V30 2093 C 187.189 2.16457 0.851418 0
M  V30 2094 C 188.183 1.11323 1.27686 0
M  V30 2095 O 189.389 1.2963 1.24884 0
M  V30 2096 H 185.764 0.69271 0.292672 0
M  V30 2097 H 187.735 2.96605 0.32685 0
M  V30 2098 C 186.484 2.77689 2.09246 0
M  V30 2099 H 185.807 3.58285 1.77402 0
M  V30 2100 H 187.247 3.22716 2.7501 0
M  V30 2101 C 185.706 1.74667 2.88085 0
M  V30 2102 O 186.236 1.19877 3.83396 0
M  V30 2103 N 184.442 1.44656 2.52038 0
M  V30 2104 H 183.989 1.89402 1.74599 0
M  V30 2105 H 183.947 0.759675 3.05084 0
M  V30 2106 N 187.719 -0.156864 1.56817 0
M  V30 2107 C 188.996 -0.899244 1.73704 0
M  V30 2108 C 189.376 -1.99771 0.682254 0
M  V30 2109 O 188.724 -2.26515 -0.300522 0
M  V30 2110 C 188.934 -1.45075 3.17418 0
M  V30 2111 C 190.282 -1.91802 3.7881 0
M  V30 2112 O 191.306 -1.54838 3.20786 0
M  V30 2113 O 190.165 -2.5994 4.80722 0
M  V30 2114 H 187.259 -0.424267 0.709878 0
M  V30 2115 H 189.805 -0.143561 1.69092 0
M  V30 2116 H 188.577 -0.660846 3.85679 0
M  V30 2117 H 188.2 -2.27021 3.26416 0
M  V30 2118 N 189.197 -1.51736 -0.425897 0
M  V30 2119 C 190.446 -1.64201 -1.17136 0
M  V30 2120 C 190.759 -0.369705 -1.92074 0
M  V30 2121 O 191.965 -0.373898 -2.68913 0
M  V30 2122 C 190.421 -2.90035 -2.13091 0
M  V30 2123 C 190.029 -4.24312 -1.43747 0
M  V30 2124 C 191.773 -3.1186 -2.87999 0
M  V30 2125 C 189.68 -5.41285 -2.38253 0
M  V30 2126 H 188.61 -0.611624 -0.440944 0
M  V30 2127 H 191.261 -1.78212 -0.437328 0
M  V30 2128 H 189.643 -2.69684 -2.89977 0
M  V30 2129 H 190.817 -4.55086 -0.723408 0
M  V30 2130 H 189.132 -4.08456 -0.809465 0
M  V30 2131 H 191.729 -3.96427 -3.58817 0
M  V30 2132 H 192.072 -2.25403 -3.49999 0
M  V30 2133 H 192.605 -3.32605 -2.18217 0
M  V30 2134 H 189.344 -6.30037 -1.80925 0
M  V30 2135 H 188.864 -5.14872 -3.0768 0
M  V30 2136 H 190.543 -5.73694 -2.99139 0
M  V30 2137 N 190.675 0.682077 -1.42076 0
M  V30 2138 C 191.623 1.81707 -1.45208 0
M  V30 2139 C 192.617 1.66183 -0.328591 0
M  V30 2140 O 193.823 1.7288 -0.501264 0
M  V30 2141 H 190.198 0.599014 -0.454628 0
M  V30 2142 H 192.169 1.76183 -2.40836 0
M  V30 2143 C 190.918 3.19816 -1.36428 0
M  V30 2144 H 190.241 3.32385 -2.22171 0
M  V30 2145 H 191.681 3.99272 -1.42681 0
M  V30 2146 C 190.14 3.36809 -0.078191 0
M  V30 2147 O 190.67 3.92124 0.87188 0
M  V30 2148 N 188.876 2.906 0.00229266 0
M  V30 2149 H 188.423 2.45772 -0.771616 0
M  V30 2150 H 188.381 3.02347 0.862179 0
M  V30 2151 N 192.153 1.28127 0.917671 0
M  V30 2152 C 193.378 1.18007 1.70555 0
M  V30 2153 C 193.803 -0.258257 1.86319 0
M  V30 2154 O 193.161 -1.1869 1.37049 0
M  V30 2155 C 193.209 1.87948 3.07746 0
M  V30 2156 O 192.313 1.18427 3.9503 0
M  V30 2157 H 191.654 0.409867 0.522403 0
M  V30 2158 H 194.184 1.69379 1.1477 0
M  V30 2159 H 194.194 1.95701 3.58001 0
M  V30 2160 H 192.869 2.92573 2.95591 0
M  V30 2161 H 191.446 1.18811 3.53466 0
M  V30 2162 N 193.631 -1.12557 1.10312 0
M  V30 2163 C 194.581 -2.16331 0.720076 0
M  V30 2164 C 195.565 -1.58616 -0.270115 0
M  V30 2165 O 196.757 -1.76823 -0.0790507 0
M  V30 2166 C 193.886 -3.42963 0.152113 0
M  V30 2167 C 192.972 -4.07663 1.16927 0
M  V30 2168 N 193.363 -4.47392 2.35953 0
M  V30 2169 C 191.661 -4.34425 1.0095 0
M  V30 2170 C 192.362 -4.97932 3.0073 0
M  V30 2171 N 191.338 -4.93358 2.28252 0
M  V30 2172 H 195.14 -2.44813 1.62616 0
M  V30 2173 H 192.654 -1.29449 0.980654 0
M  V30 2174 H 194.651 -4.16664 -0.14037 0
M  V30 2175 H 193.311 -3.1595 -0.748701 0
M  V30 2176 H 194.322 -4.39802 2.73486 0
M  V30 2177 H 190.999 -4.17177 0.164134 0
M  V30 2178 H 192.389 -5.38397 4.01969 0
M  V30 2179 N 195.109 -0.891671 -1.2995 0
M  V30 2180 C 196.041 -0.320695 -2.26945 0
M  V30 2181 C 197.054 0.528497 -1.53983 0
M  V30 2182 O 198.243 0.346959 -1.75096 0
M  V30 2183 C 195.343 0.562066 -3.34207 0
M  V30 2184 C 194.516 -0.259576 -4.36629 0
M  V30 2185 C 193.575 0.554739 -5.23268 0
M  V30 2186 O 192.601 -0.0249311 -5.69195 0
M  V30 2187 N 193.803 1.8625 -5.4981 0
M  V30 2188 H 196.568 -1.15432 -2.76578 0
M  V30 2189 H 194.129 -0.755336 -1.432 0
M  V30 2190 H 196.121 1.11304 -3.89093 0
M  V30 2191 H 194.691 1.29637 -2.84452 0
M  V30 2192 H 193.911 -0.991986 -3.81514 0
M  V30 2193 H 195.199 -0.822564 -5.02107 0
M  V30 2194 H 194.597 2.35628 -5.14292 0
M  V30 2195 H 193.154 2.36078 -6.07545 0
M  V30 2196 N 196.587 1.43421 -0.653314 0
M  V30 2197 C 197.815 2.06163 -0.174491 0
M  V30 2198 C 198.23 1.48969 1.1599 0
M  V30 2199 O 197.587 0.621042 1.71608 0
M  V30 2200 C 197.638 3.61417 -0.0774865 0
M  V30 2201 O 197.359 4.16485 -1.35912 0
M  V30 2202 C 198.86 4.41235 0.427402 0
M  V30 2203 H 196.08 0.664946 -0.0899353 0
M  V30 2204 H 198.624 1.83924 -0.893988 0
M  V30 2205 H 196.779 3.82841 0.59257 0
M  V30 2206 H 197.193 5.10153 -1.21839 0
M  V30 2207 H 198.667 5.5021 0.44423 0
M  V30 2208 H 199.144 4.14268 1.45873 0
M  V30 2209 H 199.75 4.2478 -0.210167 0
M  V30 2210 N 198.065 0.39524 1.52563 0
M  V30 2211 C 199.342 -0.242908 1.94086 0
M  V30 2212 C 199.722 -1.63841 1.33114 0
M  V30 2213 O 199.07 -2.22928 0.501529 0
M  V30 2214 C 199.28 -0.26327 3.48006 0
M  V30 2215 C 200.628 -0.489354 4.21771 0
M  V30 2216 O 201.652 -0.343226 3.54543 0
M  V30 2217 O 200.511 -0.776169 5.4096 0
M  V30 2218 H 197.605 -0.152536 0.812811 0
M  V30 2219 H 200.151 0.450178 1.6362 0
M  V30 2220 H 198.923 0.713985 3.84731 0
M  V30 2221 H 198.546 -1.00103 3.84792 0
M  V30 2222 N 199.544 -1.57102 0.125237 0
M  V30 2223 C 200.491 -2.15641 -0.822655 0
M  V30 2224 C 201.461 -1.08313 -1.25927 0
M  V30 2225 O 202.646 -1.36251 -1.33567 0
M  V30 2226 C 199.786 -2.76504 -2.06494 0
M  V30 2227 C 198.899 -3.98158 -1.67612 0
M  V30 2228 C 198.034 -4.47088 -2.86854 0
M  V30 2229 C 197.073 -5.6126 -2.44242 0
M  V30 2230 N 196.21 -6.04905 -3.56419 0
M  V30 2231 H 201.05 -2.96313 -0.316625 0
M  V30 2232 H 198.587 -1.46388 -0.144588 0
M  V30 2233 H 200.545 -3.09925 -2.79289 0
M  V30 2234 H 199.175 -1.98512 -2.54545 0
M  V30 2235 H 198.227 -3.70858 -0.846661 0
M  V30 2236 H 199.539 -4.80934 -1.32301 0
M  V30 2237 H 198.693 -4.82451 -3.67867 0
M  V30 2238 H 197.432 -3.63275 -3.25396 0
M  V30 2239 H 196.437 -5.25495 -1.61663 0
M  V30 2240 H 197.662 -6.46843 -2.0681 0
M  V30 2241 H 195.608 -5.24032 -3.94623 0
M  V30 2242 H 195.525 -6.82552 -3.25051 0
M  V30 2243 H 196.793 -6.44907 -4.37853 0
M  V30 2244 N 201.022 0.148545 -1.56898 0
M  V30 2245 C 202.438 0.501131 -1.51528 0
M  V30 2246 C 202.638 1.83458 -0.833399 0
M  V30 2247 O 201.694 2.49259 -0.40328 0
M  V30 2248 C 203.007 0.512864 -2.96294 0
M  V30 2249 C 204.555 0.598487 -3.07225 0
M  V30 2250 C 205.03 0.640897 -4.53494 0
M  V30 2251 N 206.521 0.703163 -4.57832 0
M  V30 2252 C 207.256 0.756935 -5.68382 0
M  V30 2253 N 206.752 0.770147 -6.88506 0
M  V30 2254 N 208.545 0.797698 -5.56411 0
M  V30 2255 H 200.696 -0.725532 -1.99624 0
M  V30 2256 H 202.959 -0.264358 -0.910395 0
M  V30 2257 H 202.665 -0.398691 -3.49433 0
M  V30 2258 H 202.539 1.35133 -3.52163 0
M  V30 2259 H 204.926 1.50046 -2.54106 0
M  V30 2260 H 205.007 -0.267093 -2.54402 0
M  V30 2261 H 204.651 -0.256915 -5.0725 0
M  V30 2262 H 204.581 1.52295 -5.04097 0
M  V30 2263 H 207.072 0.700314 -3.71354 0
M  V30 2264 H 207.385 0.812983 -7.68512 0
M  V30 2265 H 205.73 0.738049 -6.9107 0
M  V30 2266 H 208.921 0.784535 -4.61479 0
M  V30 2267 H 209.094 0.83614 -6.42583 0
M  V30 2268 N 202.5 1.5196 0.417844 0
M  V30 2269 C 203.447 1.74678 1.50852 0
M  V30 2270 C 204.417 0.588947 1.55308 0
M  V30 2271 O 205.602 0.825544 1.72016 0
M  V30 2272 C 202.742 1.89544 2.88387 0
M  V30 2273 C 201.855 3.17166 2.93309 0
M  V30 2274 C 200.99 3.22513 4.22088 0
M  V30 2275 C 200.029 4.44372 4.20951 0
M  V30 2276 N 199.166 4.47161 5.41287 0
M  V30 2277 H 204.006 2.67768 1.30783 0
M  V30 2278 H 201.543 1.32689 0.63498 0
M  V30 2279 H 203.501 1.96146 3.68216 0
M  V30 2280 H 202.131 0.998424 3.06971 0
M  V30 2281 H 201.183 3.19778 2.06024 0
M  V30 2282 H 202.495 4.07021 2.88332 0
M  V30 2283 H 201.649 3.28139 5.10303 0
M  V30 2284 H 200.388 2.30581 4.29748 0
M  V30 2285 H 199.393 4.38902 3.31127 0
M  V30 2286 H 200.618 5.3759 4.14938 0
M  V30 2287 H 198.564 3.58108 5.49632 0
M  V30 2288 H 198.481 5.3085 5.3827 0
M  V30 2289 H 199.749 4.57005 6.3148 0
M  V30 2290 N 203.978 -0.674533 1.42435 0
M  V30 2291 C 205.206 -1.46283 1.46317 0
M  V30 2292 C 205.621 -1.88653 0.0745836 0
M  V30 2293 O 204.978 -1.58151 -0.91074 0
M  V30 2294 C 205.029 -2.71178 2.3905 0
M  V30 2295 O 204.75 -2.30586 3.72507 0
M  V30 2296 C 206.251 -3.64738 2.51955 0
M  V30 2297 H 203.471 -0.450104 0.497642 0
M  V30 2298 H 206.015 -0.828792 1.86953 0
M  V30 2299 H 204.17 -3.3077 2.01667 0
M  V30 2300 H 204.584 -3.11241 4.22172 0
M  V30 2301 H 206.058 -4.49096 3.20962 0
M  V30 2302 H 206.535 -4.10656 1.55752 0
M  V30 2303 H 207.141 -3.11038 2.90061 0
M  V30 2304 N 205.456 -1.28612 -0.910864 0
M  V30 2305 C 206.696 -1.1719 -1.67469 0
M  V30 2306 C 207.06 0.274441 -1.90028 0
M  V30 2307 O 208.261 0.511425 -2.6389 0
M  V30 2308 C 206.532 -1.95137 -2.99427 0
M  V30 2309 S 208.091 -2.00122 -3.90508 0
M  V30 2310 H 204.909 -0.41806 -0.575106 0
M  V30 2311 H 207.511 -1.6275 -1.08317 0
M  V30 2312 H 206.215 -2.99381 -2.80712 0
M  V30 2313 H 205.746 -1.50137 -3.63624 0
M  V30 2314 H 207.761 -1.10981 -4.8363 0
M  V30 2315 N 206.934 1.1197 -1.10907 0
M  V30 2316 C 207.867 2.16998 -0.706192 0
M  V30 2317 C 208.845 1.59903 0.294897 0
M  V30 2318 O 210.029 1.87513 0.192636 0
M  V30 2319 C 207.156 3.38673 -0.0427664 0
M  V30 2320 C 206.202 4.14414 -1.00811 0
M  V30 2321 S 207.035 4.72079 -2.52789 0
M  V30 2322 C 208.191 5.97083 -1.87731 0
M  V30 2323 H 208.424 2.50837 -1.59587 0
M  V30 2324 H 205.957 1.23508 -0.926555 0
M  V30 2325 H 207.915 4.09142 0.333668 0
M  V30 2326 H 206.576 3.03105 0.823788 0
M  V30 2327 H 205.769 5.016 -0.491259 0
M  V30 2328 H 205.371 3.49678 -1.3267 0
M  V30 2329 H 207.663 6.66599 -1.21044 0
M  V30 2330 H 208.606 6.53403 -2.72892 0
M  V30 2331 H 209.014 5.4837 -1.33979 0
M  V30 2332 N 208.412 0.89855 1.29475 0
M  V30 2333 C 209.642 0.538479 1.99459 0
M  V30 2334 C 210.05 -0.880922 1.67441 0
M  V30 2335 O 209.393 -1.59283 0.915127 0
M  V30 2336 C 209.455 0.649564 3.53583 0
M  V30 2337 C 209.119 2.03573 4.09154 0
M  V30 2338 C 210.116 3.00675 4.24135 0
M  V30 2339 C 207.801 2.3448 4.44212 0
M  V30 2340 C 209.795 4.26809 4.73405 0
M  V30 2341 C 207.482 3.60857 4.93179 0
M  V30 2342 C 208.48 4.56836 5.0773 0
M  V30 2343 O 208.168 5.80969 5.55635 0
M  V30 2344 H 207.9 0.205372 0.644048 0
M  V30 2345 H 210.454 1.20958 1.66007 0
M  V30 2346 H 208.684 -0.0785592 3.8662 0
M  V30 2347 H 210.373 0.29881 4.04799 0
M  V30 2348 H 211.139 2.78112 3.97339 0
M  V30 2349 H 207.018 1.60534 4.32145 0
M  V30 2350 H 210.562 5.0173 4.84678 0
M  V30 2351 H 206.459 3.83251 5.19412 0
M  V30 2352 H 207.227 5.83542 5.73952 0
M  V30 2353 N 209.89 -1.43072 0.660911 0
M  V30 2354 C 211.138 -2.01323 0.177094 0
M  V30 2355 C 211.459 -1.5245 -1.2159 0
M  V30 2356 O 210.729 -0.740322 -1.81373 0
M  V30 2357 H 209.309 -0.744382 0.0624804 0
M  V30 2358 H 211.971 -1.75179 0.854305 0
M  V30 2359 H 211.067 -3.11649 0.167641 0
M  V30 2360 N 211.368 -0.403325 -1.52352 0
M  V30 2361 C 212.616 0.174003 -2.0135 0
M  V30 2362 C 212.937 1.46139 -1.29106 0
M  V30 2363 O 212.207 1.91448 -0.415253 0
M  V30 2364 H 210.787 0.0672911 -0.743963 0
M  V30 2365 H 213.449 -0.538235 -1.87321 0
M  V30 2366 H 212.545 0.374254 -3.09848 0
M  V30 2367 N 212.846 1.57033 -0.133567 0
M  V30 2368 C 214.092 1.95976 0.521649 0
M  V30 2369 C 214.425 1.01779 1.65393 0
M  V30 2370 O 213.7 0.0576581 1.94415 0
M  V30 2371 C 213.983 3.44738 1.04057 0
M  V30 2372 C 213.836 4.49711 -0.0892897 0
M  V30 2373 C 215.155 3.95682 1.92675 0
M  V30 2374 H 212.274 0.712579 0.188149 0
M  V30 2375 H 214.916 1.88813 -0.212076 0
M  V30 2376 H 213.066 3.50973 1.66583 0
M  V30 2377 H 214.738 4.55565 -0.725152 0
M  V30 2378 H 212.981 4.27261 -0.750378 0
M  V30 2379 H 213.652 5.51099 0.315284 0
M  V30 2380 H 216.128 3.91841 1.39998 0
M  V30 2381 H 215.004 5.00262 2.25897 0
M  V30 2382 H 215.265 3.37239 2.85872 0
M  V30 2383 N 214.325 -0.140222 1.56975 0
M  V30 2384 C 215.553 -0.866437 1.87884 0
M  V30 2385 C 215.968 -1.74428 0.722517 0
M  V30 2386 O 215.325 -1.79891 -0.30749 0
M  V30 2387 C 215.376 -1.71753 3.18093 0
M  V30 2388 O 215.097 -0.875056 4.29272 0
M  V30 2389 C 216.598 -2.55074 3.62563 0
M  V30 2390 H 213.818 -0.25019 0.622612 0
M  V30 2391 H 216.362 -0.130977 2.0408 0
M  V30 2392 H 214.517 -2.40598 3.03631 0
M  V30 2393 H 214.931 -1.46002 5.03769 0
M  V30 2394 H 216.405 -3.10356 4.5649 0
M  V30 2395 H 216.882 -3.31434 2.88181 0
M  V30 2396 H 217.488 -1.91509 3.79743 0
M  V30 2397 N 215.803 -1.52179 -0.40978 0
M  V30 2398 C 216.713 -1.78364 -1.52392 0
M  V30 2399 C 217.729 -0.669183 -1.60617 0
M  V30 2400 O 218.905 -0.954518 -1.77344 0
M  V30 2401 C 215.97 -1.92822 -2.88133 0
M  V30 2402 C 215.031 -3.16725 -2.898 0
M  V30 2403 C 214.264 -3.30483 -4.19067 0
M  V30 2404 O 214.487 -2.49522 -5.12928 0
M  V30 2405 O 213.421 -4.2363 -4.27576 0
M  V30 2406 H 217.247 -2.72931 -1.33201 0
M  V30 2407 H 214.832 -1.37016 -0.59557 0
M  V30 2408 H 216.714 -2.04157 -3.68643 0
M  V30 2409 H 215.389 -1.01444 -3.07393 0
M  V30 2410 H 214.296 -3.10848 -2.08146 0
M  V30 2411 H 215.629 -4.07881 -2.75489 0
M  V30 2412 N 217.281 0.66697 -1.42791 0
M  V30 2413 C 218.231 1.77313 -1.43332 0
M  V30 2414 C 219.215 1.5801 -0.303586 0
M  V30 2415 O 220.407 1.68356 -0.546385 0
M  V30 2416 C 217.536 3.15822 -1.34578 0
M  V30 2417 C 216.622 3.40721 -2.52528 0
M  V30 2418 N 217.013 3.36162 -3.77927 0
M  V30 2419 C 215.311 3.71387 -2.46956 0
M  V30 2420 C 216.012 3.60762 -4.56318 0
M  V30 2421 N 214.988 3.81908 -3.86843 0
M  V30 2422 H 218.79 1.72193 -2.38174 0
M  V30 2423 H 216.304 0.868114 -1.3725 0
M  V30 2424 H 218.301 3.951 -1.33048 0
M  V30 2425 H 216.961 3.22133 -0.407453 0
M  V30 2426 H 217.972 3.15885 -4.10411 0
M  V30 2427 H 214.649 3.84897 -1.61743 0
M  V30 2428 H 216.039 3.63132 -5.65318 0
M  V30 2429 N 218.759 1.29093 0.90403 0
M  V30 2430 C 219.707 1.13727 2.02901 0
M  V30 2431 C 220.701 0.0539853 1.69314 0
M  V30 2432 O 221.907 0.213469 1.7873 0
M  V30 2433 H 218.282 0.35117 0.664969 0
M  V30 2434 H 220.253 2.08982 2.13001 0
M  V30 2435 C 219.002 0.826066 3.37745 0
M  V30 2436 H 218.325 1.65164 3.64089 0
M  V30 2437 H 219.765 0.758559 4.17159 0
M  V30 2438 C 218.224 -0.470541 3.33598 0
M  V30 2439 O 218.754 -1.49792 3.72727 0
M  V30 2440 N 216.96 -0.474812 2.86695 0
M  V30 2441 H 216.507 0.361692 2.55048 0
M  V30 2442 H 216.465 -1.34236 2.84303 0
M  V30 2443 N 220.237 -1.11381 1.11499 0
M  V30 2444 C 221.485 -1.8277 0.862524 0
M  V30 2445 C 221.806 -1.85097 -0.613534 0
M  V30 2446 O 221.076 -1.32198 -1.4457 0
M  V30 2447 H 219.656 -0.676823 0.316101 0
M  V30 2448 H 222.318 -1.34816 1.4075 0
M  V30 2449 H 221.414 -2.86614 1.23527 0
M  V30 2450 N 221.715 -0.905404 -1.28997 0
M  V30 2451 C 222.663 -0.377431 -2.29517 0
M  V30 2452 C 223.657 0.526461 -1.61012 0
M  V30 2453 O 224.863 0.40863 -1.753 0
M  V30 2454 H 221.238 -0.103437 -0.744852 0
M  V30 2455 H 223.209 -1.23848 -2.71485 0
M  V30 2456 C 221.958 0.374833 -3.45674 0
M  V30 2457 H 221.281 -0.311474 -3.98585 0
M  V30 2458 H 222.721 0.70903 -4.1803 0
M  V30 2459 C 221.18 1.57963 -2.97572 0
M  V30 2460 O 221.71 2.67886 -2.99333 0
M  V30 2461 N 219.916 1.42375 -2.53333 0
M  V30 2462 H 219.463 0.529466 -2.521 0
M  V30 2463 H 219.421 2.23117 -2.21509 0
M  V30 2464 N 223.193 1.4272 -0.668489 0
M  V30 2465 C 224.125 2.2914 0.052613 0
M  V30 2466 C 225.138 1.43339 0.771857 0
M  V30 2467 O 226.327 1.67123 0.627067 0
M  V30 2468 C 223.427 3.20618 1.09804 0
M  V30 2469 C 222.6 4.35039 0.45389 0
M  V30 2470 C 221.659 5.07282 1.39825 0
M  V30 2471 O 220.685 5.62024 0.900978 0
M  V30 2472 N 221.887 5.12206 2.73176 0
M  V30 2473 H 224.652 2.91668 -0.689209 0
M  V30 2474 H 222.213 1.53577 -0.512422 0
M  V30 2475 H 224.205 3.65815 1.73094 0
M  V30 2476 H 222.775 2.59585 1.74167 0
M  V30 2477 H 221.995 3.92567 -0.358396 0
M  V30 2478 H 223.283 5.088 0.00486972 0
M  V30 2479 H 222.681 4.6913 3.16122 0
M  V30 2480 H 221.238 5.61069 3.31729 0
M  V30 2481 N 224.671 0.411399 1.52136 0
M  V30 2482 C 225.601 -0.404015 2.29978 0
M  V30 2483 C 226.582 -1.04412 1.34284 0
M  V30 2484 O 227.767 -1.0527 1.63192 0
M  V30 2485 C 224.897 -1.5197 3.12286 0
M  V30 2486 C 223.851 -1.00448 4.16046 0
M  V30 2487 C 223.177 -2.21393 4.86712 0
M  V30 2488 C 224.477 -0.0569336 5.22269 0
M  V30 2489 H 226.171 0.245529 2.98392 0
M  V30 2490 H 223.717 0.119525 1.43503 0
M  V30 2491 H 225.67 -2.09715 3.6551 0
M  V30 2492 H 224.394 -2.19716 2.41646 0
M  V30 2493 H 223.053 -0.449421 3.63835 0
M  V30 2494 H 222.701 -2.87699 4.12599 0
M  V30 2495 H 222.401 -1.87571 5.56858 0
M  V30 2496 H 223.925 -2.7974 5.4275 0
M  V30 2497 H 225.339 -0.54325 5.7072 0
M  V30 2498 H 223.736 0.192594 5.99791 0
M  V30 2499 H 224.806 0.887663 4.76706 0
M  V30 2500 N 226.149 -1.5696 0.141893 0
M  V30 2501 C 227.426 -1.87553 -0.555281 0
M  V30 2502 C 227.806 -1.04699 -1.83306 0
M  V30 2503 O 227.154 -0.132346 -2.28116 0
M  V30 2504 C 227.364 -3.39093 -0.825664 0
M  V30 2505 C 228.712 -4.08199 -1.16869 0
M  V30 2506 O 229.736 -3.44242 -0.915185 0
M  V30 2507 O 228.595 -5.21139 -1.6455 0
M  V30 2508 H 225.689 -0.777188 -0.282679 0
M  V30 2509 H 228.235 -1.68763 0.17812 0
M  V30 2510 H 227.007 -3.91221 0.0788633 0
M  V30 2511 H 226.63 -3.63393 -1.61343 0
M  V30 2512 N 227.627 0.131896 -1.57047 0
M  V30 2513 C 228.574 1.16236 -1.99393 0
M  V30 2514 C 229.544 1.41863 -0.863943 0
M  V30 2515 O 230.729 1.53946 -1.12718 0
M  V30 2516 C 227.869 2.48708 -2.39245 0
M  V30 2517 C 226.982 2.30127 -3.65603 0
M  V30 2518 C 226.117 3.55738 -3.94492 0
M  V30 2519 C 225.156 3.32259 -5.14073 0
M  V30 2520 N 224.293 4.50039 -5.38896 0
M  V30 2521 H 229.133 0.794251 -2.87221 0
M  V30 2522 H 226.67 0.380707 -1.42088 0
M  V30 2523 H 228.628 3.25969 -2.60384 0
M  V30 2524 H 227.258 2.83437 -1.54478 0
M  V30 2525 H 226.31 1.43845 -3.52154 0
M  V30 2526 H 227.622 2.08746 -4.5302 0
M  V30 2527 H 226.776 4.41423 -4.1621 0
M  V30 2528 H 225.515 3.80138 -3.05526 0
M  V30 2529 H 224.52 2.44963 -4.92212 0
M  V30 2530 H 225.745 3.09242 -6.04604 0
M  V30 2531 H 223.691 4.74584 -4.52886 0
M  V30 2532 H 223.608 4.31716 -6.2061 0
M  V30 2533 H 224.876 5.36895 -5.65123 0
M  V30 2534 N 229.106 1.52395 0.401703 0
M  V30 2535 C 230.336 1.70429 1.1678 0
M  V30 2536 C 230.744 0.416702 1.84554 0
M  V30 2537 O 230.087 -0.617697 1.73003 0
M  V30 2538 C 230.149 2.78919 2.26814 0
M  V30 2539 C 229.813 4.20437 1.79113 0
M  V30 2540 C 230.81 5.04028 1.27482 0
M  V30 2541 C 228.495 4.66704 1.85722 0
M  V30 2542 C 230.489 6.31961 0.830913 0
M  V30 2543 C 228.176 5.94625 1.40942 0
M  V30 2544 C 229.174 6.77082 0.897128 0
M  V30 2545 O 228.862 8.02607 0.455822 0
M  V30 2546 H 228.594 0.574272 0.356634 0
M  V30 2547 H 231.148 1.99767 0.477724 0
M  V30 2548 H 229.378 2.44973 2.99207 0
M  V30 2549 H 231.067 2.8548 2.88541 0
M  V30 2550 H 231.833 4.69471 1.21744 0
M  V30 2551 H 227.712 4.0262 2.24539 0
M  V30 2552 H 231.256 6.96271 0.430368 0
M  V30 2553 H 227.153 6.28688 1.46362 0
M  V30 2554 H 227.921 8.16453 0.578457 0
M  V30 2555 N 230.584 -0.659388 1.43143 0
M  V30 2556 C 232 -0.974337 1.26407 0
M  V30 2557 C 232.2 -2.007 0.179341 0
M  V30 2558 O 231.256 -2.4856 -0.444295 0
M  V30 2559 C 232.569 -1.46447 2.62628 0
M  V30 2560 C 234.117 -1.58144 2.7011 0
M  V30 2561 C 234.592 -2.1055 4.06734 0
M  V30 2562 N 236.083 -2.17861 4.08767 0
M  V30 2563 C 236.818 -2.59519 5.1131 0
M  V30 2564 N 236.314 -3.00518 6.24228 0
M  V30 2565 N 238.107 -2.59404 4.98664 0
M  V30 2566 H 230.258 0.0240528 2.12386 0
M  V30 2567 H 232.521 -0.0518065 0.946583 0
M  V30 2568 H 232.227 -0.780123 3.42939 0
M  V30 2569 H 232.101 -2.44058 2.87603 0
M  V30 2570 H 234.488 -2.25682 1.90136 0
M  V30 2571 H 234.569 -0.589828 2.48907 0
M  V30 2572 H 234.213 -1.43616 4.87172 0
M  V30 2573 H 234.143 -3.10531 4.25298 0
M  V30 2574 H 236.634 -1.88975 3.27257 0
M  V30 2575 H 236.947 -3.31036 6.98309 0
M  V30 2576 H 235.292 -2.98337 6.2771 0
M  V30 2577 H 238.483 -2.26747 4.09516 0
M  V30 2578 H 238.656 -2.91548 5.78709 0
M  V30 2579 N 232.062 -1.29571 -0.897171 0
M  V30 2580 C 233.287 -1.20705 -1.68656 0
M  V30 2581 C 233.712 0.228582 -1.86706 0
M  V30 2582 O 233.07 1.16494 -1.3892 0
M  V30 2583 C 233.118 -1.9282 -3.04717 0
M  V30 2584 O 232.222 -1.24697 -3.93096 0
M  V30 2585 H 231.563 -0.418126 -0.515816 0
M  V30 2586 H 234.093 -1.71183 -1.12061 0
M  V30 2587 H 234.103 -2.01372 -3.54843 0
M  V30 2588 H 232.778 -2.97239 -2.90899 0
M  V30 2589 H 231.355 -1.2442 -3.51531 0
M  V30 2590 N 233.54 1.10788 -1.12088 0
M  V30 2591 C 234.789 1.82036 -0.868659 0
M  V30 2592 C 235.102 1.85929 0.607426 0
M  V30 2593 O 236.308 2.53346 0.97613 0
M  V30 2594 C 234.764 3.26951 -1.50435 0
M  V30 2595 C 234.372 3.31367 -3.01496 0
M  V30 2596 C 236.116 4.03053 -1.33225 0
M  V30 2597 C 234.023 4.7072 -3.58017 0
M  V30 2598 H 232.953 0.682108 -0.321318 0
M  V30 2599 H 235.604 1.24618 -1.34694 0
M  V30 2600 H 233.986 3.84343 -0.953735 0
M  V30 2601 H 235.16 2.83819 -3.6302 0
M  V30 2602 H 233.475 2.6875 -3.18061 0
M  V30 2603 H 236.072 5.05981 -1.72878 0
M  V30 2604 H 236.415 4.15387 -0.275529 0
M  V30 2605 H 236.948 3.52066 -1.85188 0
M  V30 2606 H 233.687 4.63585 -4.63432 0
M  V30 2607 H 233.207 5.1865 -3.01268 0
M  V30 2608 H 234.886 5.39685 -3.56859 0
M  V30 2609 N 235.018 0.912232 1.28515 0
M  V30 2610 C 236.246 0.560416 1.99166 0
M  V30 2611 C 236.661 -0.857927 1.68182 0
M  V30 2612 O 236.018 -1.56805 0.933733 0
M  V30 2613 C 236.069 0.758142 3.53461 0
M  V30 2614 O 235.79 2.12067 3.83352 0
M  V30 2615 C 237.291 0.412954 4.41372 0
M  V30 2616 H 234.511 0.213805 0.636026 0
M  V30 2617 H 237.055 1.22502 1.63749 0
M  V30 2618 H 235.21 0.140556 3.87145 0
M  V30 2619 H 235.624 2.15923 4.77993 0
M  V30 2620 H 237.098 0.60208 5.48707 0
M  V30 2621 H 237.575 -0.65073 4.34353 0
M  V30 2622 H 238.181 1.00802 4.13182 0
M  V30 2623 N 236.496 -1.42363 0.676048 0
M  V30 2624 C 237.742 -2.0182 0.199125 0
M  V30 2625 C 238.075 -1.53339 -1.19168 0
M  V30 2626 O 237.35 -0.736124 -1.80032 0
M  V30 2627 C 237.633 -3.59331 0.235144 0
M  V30 2628 C 237.486 -4.17989 1.66149 0
M  V30 2629 C 238.805 -4.3813 -0.41595 0
M  V30 2630 H 235.924 -0.733293 0.0738311 0
M  V30 2631 H 238.566 -1.69368 0.86107 0
M  V30 2632 H 236.716 -3.87109 -0.328487 0
M  V30 2633 H 238.388 -4.0116 2.27747 0
M  V30 2634 H 236.631 -3.7377 2.20178 0
M  V30 2635 H 237.302 -5.27126 1.63837 0
M  V30 2636 H 239.778 -4.16051 0.0638529 0
M  V30 2637 H 238.654 -5.47717 -0.360115 0
M  V30 2638 H 238.915 -4.16101 -1.49373 0
M  V30 2639 N 237.974 -0.419461 -1.51915 0
M  V30 2640 C 239.39 -0.0708431 -1.59443 0
M  V30 2641 C 239.59 1.41796 -1.43164 0
M  V30 2642 O 238.646 2.18596 -1.26381 0
M  V30 2643 C 239.959 -0.574991 -2.95151 0
M  V30 2644 C 241.507 -0.533867 -3.08413 0
M  V30 2645 C 241.982 -1.01469 -4.46618 0
M  V30 2646 N 243.473 -0.971939 -4.52888 0
M  V30 2647 C 244.208 -1.31505 -5.58116 0
M  V30 2648 N 243.704 -1.73014 -6.70849 0
M  V30 2649 N 245.497 -1.23436 -5.48379 0
M  V30 2650 H 237.648 -1.38836 -1.60743 0
M  V30 2651 H 239.911 -0.570998 -0.756747 0
M  V30 2652 H 239.617 -1.61597 -3.12377 0
M  V30 2653 H 239.491 0.00979777 -3.77199 0
M  V30 2654 H 241.878 0.498086 -2.90866 0
M  V30 2655 H 241.959 -1.15484 -2.28248 0
M  V30 2656 H 241.603 -2.04502 -4.6491 0
M  V30 2657 H 241.533 -0.370433 -5.25295 0
M  V30 2658 H 244.024 -0.666893 -3.71969 0
M  V30 2659 H 244.337 -1.97479 -7.47143 0
M  V30 2660 H 242.682 -1.76926 -6.72103 0
M  V30 2661 H 245.873 -0.908869 -4.59192 0
M  V30 2662 H 246.046 -1.50506 -6.30279 0
M  V30 2663 N 239.452 1.56882 -0.150215 0
M  V30 2664 C 240.698 1.96518 0.500834 0
M  V30 2665 C 241.031 1.03527 1.64304 0
M  V30 2666 O 240.306 0.0782751 1.94342 0
M  V30 2667 C 240.589 3.45822 1.00395 0
M  V30 2668 C 240.442 4.49591 -0.136983 0
M  V30 2669 C 241.761 3.97704 1.88467 0
M  V30 2670 H 238.88 0.714535 0.18058 0
M  V30 2671 H 241.522 1.88577 -0.232091 0
M  V30 2672 H 239.672 3.5272 1.62851 0
M  V30 2673 H 241.344 4.5477 -0.77343 0
M  V30 2674 H 239.587 4.26441 -0.795652 0
M  V30 2675 H 240.258 5.51402 0.256815 0
M  V30 2676 H 242.734 3.93304 1.35834 0
M  V30 2677 H 241.61 5.0263 2.20578 0
M  V30 2678 H 241.871 3.40252 2.82279 0
M  V30 2679 N 240.93 -0.123565 1.57115 0
M  V30 2680 C 242.177 -0.832153 1.84612 0
M  V30 2681 C 242.505 -1.80093 0.734627 0
M  V30 2682 O 241.76 -1.93766 -0.27442 0
M  V30 2683 C 242.059 -1.62016 3.18568 0
M  V30 2684 C 241.725 -0.796084 4.43817 0
M  V30 2685 C 240.387 -0.568816 4.77826 0
M  V30 2686 C 242.739 -0.221364 5.2073 0
M  V30 2687 C 240.067 0.243499 5.86194 0
M  V30 2688 C 242.419 0.578117 6.29953 0
M  V30 2689 C 241.083 0.815744 6.62497 0
M  V30 2690 H 240.353 -0.304507 0.675542 0
M  V30 2691 H 243 -0.0947248 1.91266 0
M  V30 2692 H 241.305 -2.42837 3.0747 0
M  V30 2693 H 243.002 -2.17231 3.37064 0
M  V30 2694 H 239.592 -0.983307 4.17168 0
M  V30 2695 H 243.776 -0.384173 4.94811 0
M  V30 2696 H 239.032 0.436871 6.09837 0
M  V30 2697 H 243.206 1.03046 6.88734 0
M  V30 2698 H 240.833 1.44701 7.46301 0
M  V30 2699 N 242.408 -1.52605 -0.393616 0
M  V30 2700 C 243.318 -1.79971 -1.50492 0
M  V30 2701 C 244.334 -0.686181 -1.59899 0
M  V30 2702 O 245.51 -0.973274 -1.76322 0
M  V30 2703 C 242.575 -1.95867 -2.86072 0
M  V30 2704 C 241.636 -3.19781 -2.86424 0
M  V30 2705 C 240.869 -3.34909 -4.15538 0
M  V30 2706 O 241.092 -2.54948 -5.10253 0
M  V30 2707 O 240.026 -4.28141 -4.23059 0
M  V30 2708 H 243.852 -2.74328 -1.30299 0
M  V30 2709 H 241.437 -1.3764 -0.581005 0
M  V30 2710 H 243.319 -2.08056 -3.66457 0
M  V30 2711 H 241.994 -1.04699 -3.063 0
M  V30 2712 H 240.901 -3.13038 -2.04837 0
M  V30 2713 H 242.234 -4.1078 -2.71147 0
M  V30 2714 N 243.887 0.651787 -1.4349 0
M  V30 2715 C 245.164 1.40909 -1.35661 0
M  V30 2716 C 245.544 2.11099 -0.00511733 0
M  V30 2717 O 244.892 2.04892 1.0115 0
M  V30 2718 C 245.102 2.3926 -2.54078 0
M  V30 2719 C 246.45 3.03217 -2.97228 0
M  V30 2720 O 247.474 2.49588 -2.54135 0
M  V30 2721 O 246.333 4.00455 -3.71885 0
M  V30 2722 H 243.427 0.629625 -0.536191 0
M  V30 2723 H 245.973 0.678575 -1.55542 0
M  V30 2724 H 244.745 1.86352 -3.44076 0
M  V30 2725 H 244.368 3.1976 -2.36303 0
M  V30 2726 N 245.365 1.30045 0.890287 0
M  V30 2727 C 246.613 1.18327 1.63839 0
M  V30 2728 C 246.934 -0.263455 1.93212 0
M  V30 2729 O 246.204 -1.17856 1.56482 0
M  V30 2730 H 244.784 0.434933 0.607324 0
M  V30 2731 H 247.446 1.631 1.06698 0
M  V30 2732 H 246.542 1.74024 2.59079 0
M  V30 2733 N 246.843 -1.10192 1.12674 0
M  V30 2734 C 247.79 -2.16606 0.796906 0
M  V30 2735 C 248.76 -1.64394 -0.237476 0
M  V30 2736 O 249.945 -1.90474 -0.111484 0
M  V30 2737 C 247.085 -3.44116 0.26043 0
M  V30 2738 C 246.198 -4.10268 1.35293 0
M  V30 2739 C 245.333 -5.25507 0.775621 0
M  V30 2740 C 244.372 -5.83567 1.84706 0
M  V30 2741 N 243.509 -6.90179 1.28829 0
M  V30 2742 H 248.349 -2.44163 1.70846 0
M  V30 2743 H 245.886 -1.19846 0.85295 0
M  V30 2744 H 247.844 -4.17143 -0.0686814 0
M  V30 2745 H 246.474 -3.16901 -0.614274 0
M  V30 2746 H 245.526 -3.35184 1.79877 0
M  V30 2747 H 246.838 -4.4946 2.16303 0
M  V30 2748 H 245.992 -6.05398 0.397327 0
M  V30 2749 H 244.731 -4.87656 -0.0656581 0
M  V30 2750 H 243.736 -5.02344 2.23452 0
M  V30 2751 H 244.961 -6.23482 2.69161 0
M  V30 2752 H 242.907 -6.54322 0.468881 0
M  V30 2753 H 242.824 -7.28097 2.03497 0
M  V30 2754 H 244.092 -7.73844 0.937311 0
M  V30 2755 N 248.321 -0.919034 -1.28029 0
M  V30 2756 C 249.269 -0.401753 -2.29104 0
M  V30 2757 C 250.263 0.509354 -1.61561 0
M  V30 2758 O 251.469 0.390014 -1.75724 0
M  V30 2759 H 247.844 -0.111331 -0.743713 0
M  V30 2760 H 249.815 -1.2672 -2.70156 0
M  V30 2761 C 248.564 0.338148 -3.46052 0
M  V30 2762 H 247.887 -0.353732 -3.98232 0
M  V30 2763 H 249.327 0.664653 -4.18758 0
M  V30 2764 C 247.786 1.54798 -2.99231 0
M  V30 2765 O 248.316 2.64696 -3.02157 0
M  V30 2766 N 246.522 1.3968 -2.54829 0
M  V30 2767 H 246.069 0.502698 -2.52647 0
M  V30 2768 H 246.027 2.20755 -2.23863 0
M  V30 2769 N 249.799 1.42003 -0.683588 0
M  V30 2770 C 250.729 2.33487 -0.024866 0
M  V30 2771 C 251.71 1.51163 0.779975 0
M  V30 2772 O 252.895 1.79739 0.735362 0
M  V30 2773 C 250.025 3.3487 0.920836 0
M  V30 2774 C 248.979 4.27414 0.223958 0
M  V30 2775 C 248.305 5.19074 1.2832 0
M  V30 2776 C 249.605 5.14445 -0.90242 0
M  V30 2777 H 251.299 2.88819 -0.788921 0
M  V30 2778 H 248.845 1.38873 -0.38083 0
M  V30 2779 H 250.798 3.97787 1.39081 0
M  V30 2780 H 249.522 2.77861 1.71642 0
M  V30 2781 H 248.181 3.65904 -0.225864 0
M  V30 2782 H 247.829 4.58387 2.071 0
M  V30 2783 H 247.529 5.81822 0.821995 0
M  V30 2784 H 249.053 5.84867 1.75392 0
M  V30 2785 H 250.467 5.70998 -0.513272 0
M  V30 2786 H 248.864 5.86072 -1.28997 0
M  V30 2787 H 249.934 4.52322 -1.74737 0
M  V30 2788 N 251.277 0.427512 1.51691 0
M  V30 2789 C 252.207 -0.3796 2.30394 0
M  V30 2790 C 253.188 -1.02982 1.35384 0
M  V30 2791 O 254.373 -1.03534 1.643 0
M  V30 2792 C 251.503 -1.48649 3.1388 0
M  V30 2793 C 250.457 -0.960294 4.17088 0
M  V30 2794 C 249.783 -2.16219 4.89033 0
M  V30 2795 C 251.083 -0.00153679 5.223 0
M  V30 2796 H 252.777 0.277164 2.98114 0
M  V30 2797 H 250.323 0.134739 1.43368 0
M  V30 2798 H 252.276 -2.05826 3.67714 0
M  V30 2799 H 251 -2.1714 2.43962 0
M  V30 2800 H 249.659 -0.410806 3.64291 0
M  V30 2801 H 249.307 -2.83307 4.15628 0
M  V30 2802 H 249.007 -1.81654 5.58816 0
M  V30 2803 H 250.531 -2.73968 5.45687 0
M  V30 2804 H 251.945 -0.482687 5.71264 0
M  V30 2805 H 250.342 0.256199 5.99553 0
M  V30 2806 H 251.412 0.938174 4.75738 0
M  V30 2807 N 252.755 -1.56801 0.158532 0
M  V30 2808 C 253.98 -2.01295 -0.499516 0
M  V30 2809 C 254.405 -1.03799 -1.56867 0
M  V30 2810 O 253.763 -0.0155162 -1.81293 0
M  V30 2811 C 253.811 -3.44469 -1.06647 0
M  V30 2812 O 252.915 -3.50012 -2.18095 0
M  V30 2813 H 252.256 -0.652884 -0.12099 0
M  V30 2814 H 254.786 -2.02958 0.258661 0
M  V30 2815 H 254.796 -3.8351 -1.39227 0
M  V30 2816 H 253.471 -4.14932 -0.283581 0
M  V30 2817 H 252.048 -3.22822 -1.86656 0
M  V30 2818 N 254.233 0.115231 -1.57178 0
M  V30 2819 C 255.48 0.822351 -1.8505 0
M  V30 2820 C 255.808 1.79701 -0.744168 0
M  V30 2821 O 255.063 1.93909 0.26414 0
M  V30 2822 C 255.362 1.60324 -3.19423 0
M  V30 2823 C 255.028 0.772536 -4.44233 0
M  V30 2824 C 253.69 0.543468 -4.78121 0
M  V30 2825 C 256.042 0.193746 -5.2084 0
M  V30 2826 C 253.37 -0.274583 -5.86057 0
M  V30 2827 C 255.722 -0.611517 -6.29637 0
M  V30 2828 C 254.386 -0.850867 -6.62055 0
M  V30 2829 H 253.656 0.30092 -0.677147 0
M  V30 2830 H 256.303 0.0845802 -1.91313 0
M  V30 2831 H 254.608 2.41203 -3.08753 0
M  V30 2832 H 256.305 2.1544 -3.38211 0
M  V30 2833 H 252.895 0.96117 -4.17683 0
M  V30 2834 H 257.079 0.357926 -4.95008 0
M  V30 2835 H 252.335 -0.469206 -6.09597 0
M  V30 2836 H 256.509 -1.06697 -6.88178 0
M  V30 2837 H 254.136 -1.48657 -7.45523 0
M  V30 2838 N 255.711 1.52812 0.385517 0
M  V30 2839 C 256.988 1.5861 1.14465 0
M  V30 2840 C 257.368 0.381402 2.07626 0
M  V30 2841 O 256.716 -0.629999 2.19643 0
M  V30 2842 C 256.926 2.92664 1.90128 0
M  V30 2843 C 258.274 3.46526 2.45367 0
M  V30 2844 O 259.298 2.94562 2.0028 0
M  V30 2845 O 258.157 4.37323 3.27736 0
M  V30 2846 H 255.251 0.639855 0.523941 0
M  V30 2847 H 257.797 1.65149 0.390389 0
M  V30 2848 H 256.569 3.71788 1.22022 0
M  V30 2849 H 256.192 2.89527 2.72507 0
M  V30 2850 N 257.189 -0.644168 1.43834 0
M  V30 2851 C 258.435 -1.40603 1.46146 0
M  V30 2852 C 258.768 -1.93997 0.0887717 0
M  V30 2853 O 258.043 -1.72854 -0.891724 0
M  V30 2854 C 258.326 -2.58086 2.51124 0
M  V30 2855 C 258.179 -2.10126 3.97702 0
M  V30 2856 C 259.498 -3.60291 2.52742 0
M  V30 2857 H 256.617 -0.509905 0.532134 0
M  V30 2858 H 259.259 -0.729502 1.75437 0
M  V30 2859 H 257.409 -3.15801 2.26278 0
M  V30 2860 H 259.081 -1.57342 4.33637 0
M  V30 2861 H 257.324 -1.41419 4.10101 0
M  V30 2862 H 257.995 -2.94649 4.66783 0
M  V30 2863 H 260.471 -3.12352 2.7491 0
M  V30 2864 H 259.347 -4.40032 3.28121 0
M  V30 2865 H 259.608 -4.1349 1.56455 0
M  V30 2866 N 258.668 -1.30515 -0.883378 0
M  V30 2867 C 259.6 -1.12846 -1.99496 0
M  V30 2868 C 260.613 -0.0712571 -1.62644 0
M  V30 2869 O 261.802 -0.317432 -1.75655 0
M  V30 2870 C 258.902 -0.699123 -3.3161 0
M  V30 2871 C 258.075 -1.83842 -3.96889 0
M  V30 2872 C 257.134 -1.39737 -5.07307 0
M  V30 2873 O 256.16 -2.10485 -5.28852 0
M  V30 2874 N 257.362 -0.277279 -5.79837 0
M  V30 2875 H 260.127 -2.08585 -2.15203 0
M  V30 2876 H 257.688 -1.22672 -1.05656 0
M  V30 2877 H 259.68 -0.387044 -4.02845 0
M  V30 2878 H 258.25 0.166276 -3.12157 0
M  V30 2879 H 257.47 -2.31853 -3.18807 0
M  V30 2880 H 258.758 -2.60187 -4.37241 0
M  V30 2881 H 258.156 0.3122 -5.64838 0
M  V30 2882 H 256.713 -0.0246623 -6.51795 0
M  V30 2883 N 260.146 1.09593 -1.13257 0
M  V30 2884 C 261.374 1.855 -0.916378 0
M  V30 2885 C 261.789 1.81069 0.534738 0
M  V30 2886 O 261.146 1.20562 1.37007 0
M  V30 2887 C 261.197 3.33546 -1.39388 0
M  V30 2888 O 260.918 3.37927 -2.78813 0
M  V30 2889 C 262.419 4.26299 -1.21588 0
M  V30 2890 H 259.639 0.585991 -0.326887 0
M  V30 2891 H 262.183 1.38488 -1.5047 0
M  V30 2892 H 260.338 3.77992 -0.848597 0
M  V30 2893 H 260.752 4.30254 -2.9997 0
M  V30 2894 H 262.226 5.28341 -1.59876 0
M  V30 2895 H 262.703 4.38918 -0.157376 0
M  V30 2896 H 263.309 3.87668 -1.7491 0
M  V30 2897 N 261.624 0.925811 1.2754 0
M  V30 2898 C 262.572 0.413897 2.28888 0
M  V30 2899 C 263.566 -0.500779 1.61829 0
M  V30 2900 O 264.772 -0.38069 1.75928 0
M  V30 2901 H 261.147 0.115274 0.743112 0
M  V30 2902 H 263.118 1.28151 2.69481 0
M  V30 2903 C 261.867 -0.319792 3.46226 0
M  V30 2904 H 261.19 0.374846 3.98039 0
M  V30 2905 H 262.63 -0.642435 4.19105 0
M  V30 2906 C 261.089 -1.53209 3.00048 0
M  V30 2907 O 261.619 -2.6309 3.03557 0
M  V30 2908 N 259.825 -1.38326 2.55566 0
M  V30 2909 H 259.372 -0.489292 2.5291 0
M  V30 2910 H 259.33 -2.19564 2.25031 0
M  V30 2911 N 263.102 -1.41638 0.69111 0
M  V30 2912 C 264.049 -2.30789 0.0229705 0
M  V30 2913 C 265.019 -1.46863 -0.775911 0
M  V30 2914 O 266.204 -1.75661 -0.74485 0
M  V30 2915 C 263.344 -3.32868 -0.910666 0
M  V30 2916 C 262.457 -4.31875 -0.103874 0
M  V30 2917 C 261.592 -5.21024 -1.03475 0
M  V30 2918 C 260.631 -6.11702 -0.220598 0
M  V30 2919 N 259.768 -6.93349 -1.10504 0
M  V30 2920 H 264.608 -2.87366 0.788978 0
M  V30 2921 H 262.145 -1.41535 0.400794 0
M  V30 2922 H 264.103 -3.90596 -1.46597 0
M  V30 2923 H 262.733 -2.77851 -1.64312 0
M  V30 2924 H 261.785 -3.76131 0.568285 0
M  V30 2925 H 263.097 -4.96003 0.527504 0
M  V30 2926 H 262.251 -5.83565 -1.65943 0
M  V30 2927 H 260.99 -4.57112 -1.69999 0
M  V30 2928 H 259.995 -5.48215 0.417187 0
M  V30 2929 H 261.22 -6.77668 0.440784 0
M  V30 2930 H 259.166 -6.3205 -1.75638 0
M  V30 2931 H 259.083 -7.54146 -0.529125 0
M  V30 2932 H 260.351 -7.60362 -1.71667 0
M  V30 2933 N 264.58 -0.43555 -1.51462 0
M  V30 2934 C 265.527 0.376797 -2.27703 0
M  V30 2935 C 266.497 1.01838 -1.31219 0
M  V30 2936 O 267.682 1.03762 -1.60119 0
M  V30 2937 C 264.822 1.47301 -3.12084 0
M  V30 2938 C 263.935 0.849744 -4.2356 0
M  V30 2939 C 263.07 1.92086 -4.95254 0
M  V30 2940 C 262.109 1.27593 -5.98654 0
M  V30 2941 N 261.246 2.28833 -6.63762 0
M  V30 2942 H 266.086 -0.279734 -2.96684 0
M  V30 2943 H 263.623 -0.149795 -1.46335 0
M  V30 2944 H 265.581 2.11984 -3.59331 0
M  V30 2945 H 264.211 2.0992 -2.45221 0
M  V30 2946 H 263.263 0.0912529 -3.80291 0
M  V30 2947 H 264.575 0.338878 -4.97648 0
M  V30 2948 H 263.729 2.64435 -5.46039 0
M  V30 2949 H 262.468 2.46545 -4.20793 0
M  V30 2950 H 261.473 0.537893 -5.47162 0
M  V30 2951 H 262.698 0.738693 -6.7507 0
M  V30 2952 H 260.644 2.82375 -5.92115 0
M  V30 2953 H 260.561 1.82632 -7.33608 0
M  V30 2954 H 261.829 3.00671 -7.19178 0
M  V30 2955 N 266.058 1.56714 -0.166846 0
M  V30 2956 C 267.005 2.17746 0.765193 0
M  V30 2957 C 267.975 1.11614 1.23011 0
M  V30 2958 O 269.16 1.39745 1.29908 0
M  V30 2959 C 266.3 2.81882 1.9909 0
M  V30 2960 C 265.413 4.02462 1.56997 0
M  V30 2961 C 264.548 4.54537 2.749 0
M  V30 2962 C 263.587 5.67538 2.29275 0
M  V30 2963 N 262.724 6.14142 3.40255 0
M  V30 2964 H 267.564 2.97048 0.237952 0
M  V30 2965 H 265.101 1.4672 0.105725 0
M  V30 2966 H 267.059 3.17221 2.70974 0
M  V30 2967 H 265.689 2.05191 2.49192 0
M  V30 2968 H 264.741 3.72973 0.748037 0
M  V30 2969 H 266.053 4.84273 1.19503 0
M  V30 2970 H 265.207 4.92035 3.54946 0
M  V30 2971 H 263.946 3.71774 3.1565 0
M  V30 2972 H 262.951 5.29597 1.47674 0
M  V30 2973 H 264.176 6.52099 1.89588 0
M  V30 2974 H 262.122 5.3431 3.8059 0
M  V30 2975 H 262.039 6.9093 3.06841 0
M  V30 2976 H 263.307 6.56289 4.206 0
M  V30 2977 N 267.536 -0.106894 1.57237 0
M  V30 2978 C 268.782 -0.81373 1.85759 0
M  V30 2979 C 269.115 -1.78952 0.754315 0
M  V30 2980 O 268.39 -1.93029 -0.23879 0
M  V30 2981 C 268.673 -1.55293 3.24894 0
M  V30 2982 C 268.526 -0.595929 4.45835 0
M  V30 2983 C 269.845 -2.5063 3.61763 0
M  V30 2984 H 266.964 -0.294369 0.67566 0
M  V30 2985 H 269.606 -0.0776472 1.89841 0
M  V30 2986 H 267.756 -2.1804 3.21544 0
M  V30 2987 H 269.428 0.0236262 4.61294 0
M  V30 2988 H 267.671 0.0916191 4.33703 0
M  V30 2989 H 268.342 -1.15004 5.39887 0
M  V30 2990 H 270.818 -1.97982 3.65981 0
M  V30 2991 H 269.694 -2.99376 4.60071 0
M  V30 2992 H 269.955 -3.3385 2.89821 0
M  V30 2993 N 269.014 -1.53014 -0.377408 0
M  V30 2994 C 270.242 -1.72515 -1.14219 0
M  V30 2995 C 270.657 -0.448735 -1.8339 0
M  V30 2996 O 270.014 0.577592 -1.73119 0
M  V30 2997 C 270.065 -2.8826 -2.18148 0
M  V30 2998 O 269.786 -4.10962 -1.51795 0
M  V30 2999 C 271.287 -3.19536 -3.07264 0
M  V30 3000 H 268.507 -0.577301 -0.342001 0
M  V30 3001 H 271.051 -1.99712 -0.439935 0
M  V30 3002 H 269.206 -2.63492 -2.83991 0
M  V30 3003 H 269.62 -4.75693 -2.20945 0
M  V30 3004 H 271.094 -4.03959 -3.76193 0
M  V30 3005 H 271.571 -2.34403 -3.71419 0
M  V30 3006 H 272.177 -3.46186 -2.47053 0
M  V30 3007 N 270.492 0.636531 -1.44174 0
M  V30 3008 C 271.455 1.73063 -1.50273 0
M  V30 3009 C 272.455 1.56113 -0.385397 0
M  V30 3010 O 273.645 1.61707 -0.64781 0
M  V30 3011 C 270.777 3.12096 -1.37145 0
M  V30 3012 H 271.97 1.69031 -2.47727 0
M  V30 3013 H 269.523 0.849706 -1.31186 0
M  V30 3014 H 270.258 3.21728 -0.407636 0
M  V30 3015 H 270.043 3.25805 -2.18159 0
M  V30 3016 H 271.533 3.91846 -1.44382 0
M  V30 3017 N 271.97 1.30982 0.876444 0
M  V30 3018 C 272.902 1.13902 1.98894 0
M  V30 3019 C 273.915 0.0798815 1.62604 0
M  V30 3020 O 275.104 0.326743 1.75484 0
M  V30 3021 C 272.204 0.716699 3.31235 0
M  V30 3022 C 271.377 1.85945 3.95908 0
M  V30 3023 C 270.436 1.42426 5.06558 0
M  V30 3024 O 269.462 2.13287 5.27729 0
M  V30 3025 N 270.664 0.308025 5.79682 0
M  V30 3026 H 273.429 2.09724 2.14094 0
M  V30 3027 H 270.99 1.2323 1.05004 0
M  V30 3028 H 272.982 0.408403 4.02634 0
M  V30 3029 H 271.552 -0.149719 3.12241 0
M  V30 3030 H 270.772 2.33541 3.17573 0
M  V30 3031 H 272.06 2.62503 4.35855 0
M  V30 3032 H 271.458 -0.282241 5.64995 0
M  V30 3033 H 270.015 0.0592282 6.51773 0
M  V30 3034 N 273.449 -1.08991 1.13837 0
M  V30 3035 C 274.359 -2.19301 0.833333 0
M  V30 3036 C 275.375 -1.73026 -0.183847 0
M  V30 3037 O 276.551 -2.01395 -0.0138092 0
M  V30 3038 C 273.616 -3.45323 0.308651 0
M  V30 3039 C 272.677 -4.06255 1.38764 0
M  V30 3040 C 271.91 -5.26262 0.887896 0
M  V30 3041 O 272.133 -5.69747 -0.27287 0
M  V30 3042 O 271.067 -5.78435 1.66421 0
M  V30 3043 H 274.893 -2.47854 1.75506 0
M  V30 3044 H 272.478 -1.18012 0.916166 0
M  V30 3045 H 274.36 -4.21394 0.0216739 0
M  V30 3046 H 273.035 -3.18362 -0.585431 0
M  V30 3047 H 271.942 -3.318 1.72799 0
M  V30 3048 H 273.275 -4.37452 2.25602 0
M  V30 3049 N 274.927 -0.932562 -1.27047 0
M  V30 3050 C 275.857 -0.452902 -2.29066 0
M  V30 3051 C 276.838 0.489338 -1.62909 0
M  V30 3052 O 278.023 0.393046 -1.90181 0
M  V30 3053 C 275.153 0.290698 -3.46081 0
M  V30 3054 C 274.107 -0.564168 -4.24265 0
M  V30 3055 C 273.433 0.308886 -5.33807 0
M  V30 3056 C 274.733 -1.83112 -4.89149 0
M  V30 3057 H 276.427 -1.30552 -2.69437 0
M  V30 3058 H 273.973 -0.629201 -1.29526 0
M  V30 3059 H 275.926 0.637233 -4.16554 0
M  V30 3060 H 274.65 1.17738 -3.0464 0
M  V30 3061 H 273.309 -0.893477 -3.55545 0
M  V30 3062 H 272.957 1.19467 -4.88607 0
M  V30 3063 H 272.657 -0.259633 -5.87026 0
M  V30 3064 H 274.181 0.650884 -6.07121 0
M  V30 3065 H 275.595 -1.55236 -5.51883 0
M  V30 3066 H 273.992 -2.34353 -5.52448 0
M  V30 3067 H 275.062 -2.54772 -4.12576 0
M  V30 3068 N 276.405 1.4127 -0.698611 0
M  V30 3069 C 277.682 1.94955 -0.158762 0
M  V30 3070 C 278.062 1.63781 1.33188 0
M  V30 3071 O 277.41 0.946423 2.07979 0
M  V30 3072 C 277.62 3.46044 -0.453309 0
M  V30 3073 C 278.968 4.22872 -0.382707 0
M  V30 3074 O 279.992 3.54076 -0.388396 0
M  V30 3075 O 278.851 5.45407 -0.345463 0
M  V30 3076 H 275.945 0.82683 -0.0167505 0
M  V30 3077 H 278.491 1.50971 -0.77498 0
M  V30 3078 H 277.263 3.62028 -1.48498 0
M  V30 3079 H 276.886 3.97128 0.19373 0
M  V30 3080 N 277.883 0.443576 1.51229 0
M  V30 3081 C 279.113 -0.119117 2.06256 0
M  V30 3082 C 279.521 -1.36471 1.31043 0
M  V30 3083 O 278.864 -1.80034 0.365151 0
M  V30 3084 C 278.926 -0.500546 3.55998 0
M  V30 3085 C 278.59 0.639125 4.52509 0
M  V30 3086 C 279.587 1.51311 4.97394 0
M  V30 3087 C 277.272 0.821632 4.95535 0
M  V30 3088 C 279.266 2.55425 5.83984 0
M  V30 3089 C 276.953 1.86603 5.81913 0
M  V30 3090 C 277.951 2.73072 6.26036 0
M  V30 3091 O 277.639 3.75718 7.10698 0
M  V30 3092 H 277.371 -0.00857665 0.675946 0
M  V30 3093 H 279.925 0.623288 1.95715 0
M  V30 3094 H 278.155 -1.29575 3.64345 0
M  V30 3095 H 279.844 -0.995116 3.93513 0
M  V30 3096 H 280.61 1.38367 4.64844 0
M  V30 3097 H 276.489 0.158149 4.60729 0
M  V30 3098 H 280.033 3.22949 6.18344 0
M  V30 3099 H 275.93 1.99564 6.13876 0
M  V30 3100 H 276.698 3.72374 7.2889 0
M  V30 3101 N 279.361 -1.56624 0.175154 0
M  V30 3102 C 280.291 -2.21155 -0.749195 0
M  V30 3103 C 281.272 -1.16836 -1.23626 0
M  V30 3104 O 282.457 -1.45277 -1.28873 0
M  V30 3105 C 279.587 -2.8553 -1.97711 0
M  V30 3106 C 278.541 -3.95921 -1.62575 0
M  V30 3107 C 277.867 -4.47365 -2.92864 0
M  V30 3108 C 279.167 -5.15323 -0.850838 0
M  V30 3109 H 280.861 -2.98653 -0.211295 0
M  V30 3110 H 278.407 -1.43651 -0.100188 0
M  V30 3111 H 280.36 -3.2935 -2.62881 0
M  V30 3112 H 279.084 -2.05406 -2.53921 0
M  V30 3113 H 277.743 -3.52762 -0.997719 0
M  V30 3114 H 277.391 -3.64027 -3.47122 0
M  V30 3115 H 277.091 -5.21839 -2.70106 0
M  V30 3116 H 278.615 -4.93873 -3.59056 0
M  V30 3117 H 280.029 -5.55812 -1.40521 0
M  V30 3118 H 278.426 -5.95739 -0.722154 0
M  V30 3119 H 279.496 -4.84661 0.152082 0
M  V30 3120 N 280.839 0.0985539 -1.57292 0
M  V30 3121 C 282.067 0.816318 -1.90115 0
M  V30 3122 C 282.482 1.72451 -0.768509 0
M  V30 3123 O 281.839 1.80643 0.259687 0
M  V30 3124 C 281.89 1.63259 -3.22535 0
M  V30 3125 O 281.611 0.760934 -4.31441 0
M  V30 3126 C 283.112 2.45372 -3.69199 0
M  V30 3127 H 280.332 0.233595 -0.629027 0
M  V30 3128 H 282.876 0.0768229 -2.04356 0
M  V30 3129 H 281.031 2.32463 -3.09903 0
M  V30 3130 H 281.445 1.32595 -5.07463 0
M  V30 3131 H 282.919 2.98144 -4.64558 0
M  V30 3132 H 283.396 3.23677 -2.96867 0
M  V30 3133 H 284.002 1.81373 -3.84687 0
M  V30 3134 N 282.317 1.53212 0.369288 0
M  V30 3135 C 283.733 1.42902 0.710712 0
M  V30 3136 C 283.933 0.565135 1.93413 0
M  V30 3137 O 282.989 0.0461484 2.52458 0
M  V30 3138 C 284.302 2.86042 0.927382 0
M  V30 3139 C 285.85 2.9565 1.02762 0
M  V30 3140 C 286.325 4.39843 1.27679 0
M  V30 3141 N 287.816 4.43256 1.34457 0
M  V30 3142 C 288.551 5.51929 1.55439 0
M  V30 3143 N 288.047 6.70655 1.73762 0
M  V30 3144 N 289.84 5.39502 1.57779 0
M  V30 3145 H 281.991 2.07888 -0.435457 0
M  V30 3146 H 284.254 0.938661 -0.132739 0
M  V30 3147 H 283.96 3.51557 0.100287 0
M  V30 3148 H 283.834 3.29472 1.83653 0
M  V30 3149 H 286.221 2.30291 1.84527 0
M  V30 3150 H 286.302 2.5562 0.0959504 0
M  V30 3151 H 285.946 5.05774 0.464175 0
M  V30 3152 H 285.876 4.77443 2.22162 0
M  V30 3153 H 288.367 3.5769 1.21926 0
M  V30 3154 H 288.68 7.49248 1.89335 0
M  V30 3155 H 287.025 6.73648 1.70948 0
M  V30 3156 H 290.216 4.45713 1.43029 0
M  V30 3157 H 290.389 6.2426 1.7379 0
M  V30 3158 N 283.795 -0.628877 1.44509 0
M  V30 3159 C 284.745 -1.7345 1.47983 0
M  V30 3160 C 285.729 -1.5715 0.345373 0
M  V30 3161 O 286.921 -1.66848 0.590829 0
M  V30 3162 C 284.05 -3.12143 1.42904 0
M  V30 3163 C 283.136 -3.33906 2.61472 0
M  V30 3164 N 283.527 -3.26024 3.86706 0
M  V30 3165 C 281.825 -3.64709 2.56716 0
M  V30 3166 C 282.526 -3.48536 4.65722 0
M  V30 3167 N 281.502 -3.71517 3.96832 0
M  V30 3168 H 285.304 -1.65818 2.42655 0
M  V30 3169 H 282.818 -0.831419 1.39503 0
M  V30 3170 H 284.815 -3.91433 1.43476 0
M  V30 3171 H 283.475 -3.2094 0.492717 0
M  V30 3172 H 284.486 -3.04893 4.18641 0
M  V30 3173 H 281.163 -3.80473 1.71891 0
M  V30 3174 H 282.553 -3.48016 5.74747 0
M  V30 3175 N 285.273 -1.31445 -0.869486 0
M  V30 3176 C 286.503 -1.23942 -1.65294 0
M  V30 3177 C 286.911 0.197561 -1.88166 0
M  V30 3178 O 286.254 1.14019 -1.44033 0
M  V30 3179 C 286.316 -1.91385 -3.04322 0
M  V30 3180 C 285.98 -3.40726 -3.04557 0
M  V30 3181 C 286.977 -4.36464 -2.82481 0
M  V30 3182 C 284.662 -3.82425 -3.25663 0
M  V30 3183 C 286.656 -5.71876 -2.8149 0
M  V30 3184 C 284.343 -5.1795 -3.243 0
M  V30 3185 C 285.341 -6.12486 -3.02241 0
M  V30 3186 O 285.029 -7.45534 -3.00724 0
M  V30 3187 H 284.761 -0.429459 -0.522054 0
M  V30 3188 H 287.315 -1.73873 -1.0935 0
M  V30 3189 H 285.545 -1.36004 -3.61994 0
M  V30 3190 H 287.234 -1.77791 -3.64891 0
M  V30 3191 H 288 -4.05576 -2.65956 0
M  V30 3192 H 283.879 -3.09274 -3.41863 0
M  V30 3193 H 287.423 -6.45638 -2.64191 0
M  V30 3194 H 283.32 -5.48473 -3.40365 0
M  V30 3195 H 284.088 -7.54713 -3.16782 0
M  V30 3196 N 286.751 1.08385 -1.14413 0
M  V30 3197 C 287.681 2.17321 -0.854044 0
M  V30 3198 C 288.662 1.69024 0.191049 0
M  V30 3199 O 289.847 1.94141 0.0476779 0
M  V30 3200 C 286.977 3.45719 -0.330983 0
M  V30 3201 C 285.931 4.07409 -1.31155 0
M  V30 3202 C 285.257 5.30762 -0.64778 0
M  V30 3203 C 286.557 4.48665 -2.67388 0
M  V30 3204 H 288.251 2.41845 -1.76498 0
M  V30 3205 H 285.797 1.16233 -0.850051 0
M  V30 3206 H 287.75 4.21241 -0.115645 0
M  V30 3207 H 286.474 3.2075 0.615381 0
M  V30 3208 H 285.133 3.33919 -1.51306 0
M  V30 3209 H 284.781 5.02078 0.304398 0
M  V30 3210 H 284.481 5.72992 -1.30207 0
M  V30 3211 H 286.005 6.08998 -0.441972 0
M  V30 3212 H 287.419 5.15364 -2.51143 0
M  V30 3213 H 285.816 5.01814 -3.29093 0
M  V30 3214 H 286.886 3.60543 -3.24248 0
M  V30 3215 N 288.23 0.939286 1.26551 0
M  V30 3216 C 289.476 0.586715 1.94128 0
M  V30 3217 C 289.809 -0.8717 1.73537 0
M  V30 3218 O 289.084 -1.62339 1.07127 0
M  V30 3219 C 289.367 0.927497 3.4795 0
M  V30 3220 C 289.22 2.44052 3.77834 0
M  V30 3221 C 290.539 0.441569 4.37879 0
M  V30 3222 H 287.658 0.21463 0.705055 0
M  V30 3223 H 290.3 1.17316 1.49455 0
M  V30 3224 H 288.45 0.428431 3.8613 0
M  V30 3225 H 290.122 3.01216 3.4938 0
M  V30 3226 H 288.365 2.8848 3.23978 0
M  V30 3227 H 289.036 2.62947 4.85348 0
M  V30 3228 H 291.512 0.869448 4.06915 0
M  V30 3229 H 290.388 0.708856 5.44304 0
M  V30 3230 H 290.649 -0.658467 4.37169 0
M  V30 3231 N 289.708 -1.40897 0.706093 0
M  V30 3232 C 290.655 -2.30751 0.0474474 0
M  V30 3233 C 291.625 -1.47678 -0.76029 0
M  V30 3234 O 292.81 -1.76441 -0.726177 0
M  V30 3235 C 289.95 -3.33815 -0.875309 0
M  V30 3236 C 289.063 -4.31961 -0.0580623 0
M  V30 3237 C 288.198 -5.22093 -0.979425 0
M  V30 3238 C 287.237 -6.11902 -0.155706 0
M  V30 3239 N 286.374 -6.94482 -1.03144 0
M  V30 3240 H 291.214 -2.86513 0.819413 0
M  V30 3241 H 288.751 -1.41102 0.415783 0
M  V30 3242 H 290.709 -3.92129 -1.42446 0
M  V30 3243 H 289.339 -2.79579 -1.61356 0
M  V30 3244 H 288.391 -3.75507 0.608147 0
M  V30 3245 H 289.703 -4.95415 0.580082 0
M  V30 3246 H 288.857 -5.85292 -1.59744 0
M  V30 3247 H 287.596 -4.5889 -1.65141 0
M  V30 3248 H 286.601 -5.47742 0.475309 0
M  V30 3249 H 287.826 -6.77162 0.512635 0
M  V30 3250 H 285.772 -6.33877 -1.68924 0
M  V30 3251 H 285.689 -7.54665 -0.449108 0
M  V30 3252 H 286.957 -7.6214 -1.63593 0
M  V30 3253 N 291.186 -0.45159 -1.50991 0
M  V30 3254 C 292.134 0.366864 -2.29689 0
M  V30 3255 C 293.128 1.00809 -1.36139 0
M  V30 3256 O 294.334 0.941427 -1.53418 0
M  V30 3257 H 290.709 0.137133 -0.739391 0
M  V30 3258 H 292.68 -0.317538 -2.96706 0
M  V30 3259 C 291.429 1.44751 -3.16137 0
M  V30 3260 H 290.752 0.963473 -3.88017 0
M  V30 3261 H 292.192 1.99315 -3.74232 0
M  V30 3262 C 290.651 2.43869 -2.32442 0
M  V30 3263 O 291.181 3.4872 -1.99392 0
M  V30 3264 N 289.387 2.15105 -1.95392 0
M  V30 3265 H 288.934 1.29866 -2.22469 0
M  V30 3266 H 288.892 2.81661 -1.39693 0
M  V30 3267 N 292.664 1.56529 -0.183458 0
M  V30 3268 C 293.611 2.18546 0.742055 0
M  V30 3269 C 294.581 1.12912 1.2182 0
M  V30 3270 O 295.766 1.41115 1.28418 0
M  V30 3271 C 292.906 2.83977 1.96089 0
M  V30 3272 C 292.019 4.04105 1.52719 0
M  V30 3273 C 291.154 4.57427 2.70063 0
M  V30 3274 C 290.193 5.69938 2.23243 0
M  V30 3275 N 289.33 6.17717 3.33722 0
M  V30 3276 H 294.17 2.97284 0.206432 0
M  V30 3277 H 291.707 1.46823 0.0901571 0
M  V30 3278 H 293.665 3.20077 2.67594 0
M  V30 3279 H 292.295 2.07822 2.47002 0
M  V30 3280 H 291.347 3.73745 0.708436 0
M  V30 3281 H 292.659 4.85513 1.1436 0
M  V30 3282 H 291.813 4.95772 3.49708 0
M  V30 3283 H 290.552 3.75101 3.11689 0
M  V30 3284 H 289.557 5.31133 1.42048 0
M  V30 3285 H 290.782 6.54073 1.82661 0
M  V30 3286 H 288.728 5.38317 3.74902 0
M  V30 3287 H 288.645 6.94146 2.99495 0
M  V30 3288 H 289.913 6.60713 4.13616 0
M  V30 3289 N 294.142 -0.090211 1.57342 0
M  V30 3290 C 295.089 -1.10909 2.02405 0
M  V30 3291 C 296.059 -1.39523 0.901252 0
M  V30 3292 O 297.244 -1.50903 1.1676 0
M  V30 3293 C 294.384 -2.42277 2.45755 0
M  V30 3294 C 293.497 -2.20352 3.71576 0
M  V30 3295 C 292.632 -3.45154 4.03785 0
M  V30 3296 C 291.671 -3.18512 5.22701 0
M  V30 3297 N 290.808 -4.35593 5.50639 0
M  V30 3298 H 295.648 -0.71782 2.89225 0
M  V30 3299 H 293.185 -0.342901 1.43048 0
M  V30 3300 H 295.143 -3.18951 2.68935 0
M  V30 3301 H 293.773 -2.79242 1.61938 0
M  V30 3302 H 292.825 -1.34458 3.55844 0
M  V30 3303 H 294.137 -1.96661 4.58395 0
M  V30 3304 H 293.291 -4.30233 4.27767 0
M  V30 3305 H 292.03 -3.71904 3.15498 0
M  V30 3306 H 291.035 -2.31827 4.98534 0
M  V30 3307 H 292.26 -2.93103 6.12591 0
M  V30 3308 H 290.206 -4.6241 4.6531 0
M  V30 3309 H 290.123 -4.1511 6.31838 0
M  V30 3310 H 291.391 -5.21723 5.7916 0
M  V30 3311 N 295.62 -1.53406 -0.361157 0
M  V30 3312 C 296.55 -1.83136 -1.44857 0
M  V30 3313 C 297.531 -0.685174 -1.5569 0
M  V30 3314 O 298.716 -0.93544 -1.70186 0
M  V30 3315 C 295.846 -2.02522 -2.82138 0
M  V30 3316 C 294.8 -3.18302 -2.86126 0
M  V30 3317 C 294.126 -3.22989 -4.26125 0
M  V30 3318 C 295.426 -4.56796 -2.53248 0
M  V30 3319 H 297.12 -2.74201 -1.20226 0
M  V30 3320 H 294.666 -1.31938 -0.576922 0
M  V30 3321 H 296.619 -2.21904 -3.58241 0
M  V30 3322 H 295.343 -1.08172 -3.08166 0
M  V30 3323 H 294.002 -2.98747 -2.12475 0
M  V30 3324 H 293.65 -2.26267 -4.49235 0
M  V30 3325 H 293.35 -4.00781 -4.29708 0
M  V30 3326 H 294.874 -3.44559 -5.04094 0
M  V30 3327 H 296.288 -4.7631 -3.19064 0
M  V30 3328 H 294.685 -5.36862 -2.68141 0
M  V30 3329 H 295.755 -4.61606 -1.48484 0
M  V30 3330 N 297.098 0.621204 -1.44841 0
M  V30 3331 C 298.328 1.40548 -1.51426 0
M  V30 3332 C 298.736 1.88673 -0.141083 0
M  V30 3333 O 298.079 1.62053 0.865128 0
M  V30 3334 C 298.141 2.65325 -2.42576 0
M  V30 3335 C 297.805 2.3893 -3.89566 0
M  V30 3336 C 298.802 2.00138 -4.79834 0
M  V30 3337 C 296.487 2.52263 -4.3436 0
M  V30 3338 C 298.481 1.75021 -6.129 0
M  V30 3339 C 296.168 2.2676 -5.67471 0
M  V30 3340 C 297.166 1.88199 -6.56559 0
M  V30 3341 O 296.854 1.62986 -7.87204 0
M  V30 3342 H 296.586 0.437122 -0.515655 0
M  V30 3343 H 299.14 0.765987 -1.90583 0
M  V30 3344 H 297.37 3.31947 -1.98364 0
M  V30 3345 H 299.059 3.27347 -2.39998 0
M  V30 3346 H 299.825 1.89386 -4.46495 0
M  V30 3347 H 295.704 2.81246 -3.65269 0
M  V30 3348 H 299.248 1.44848 -6.82396 0
M  V30 3349 H 295.145 2.37125 -6.00368 0
M  V30 3350 H 295.913 1.7715 -7.991 0
M  V30 3351 N 298.576 1.31904 0.862503 0
M  V30 3352 C 299.486 1.22161 2.00285 0
M  V30 3353 C 300.502 0.136785 1.73462 0
M  V30 3354 O 301.678 0.355994 1.98229 0
M  V30 3355 C 298.743 0.937093 3.33796 0
M  V30 3356 C 297.804 2.10957 3.73893 0
M  V30 3357 C 297.037 1.83853 5.01033 0
M  V30 3358 O 297.26 0.777274 5.65079 0
M  V30 3359 O 296.194 2.69741 5.38074 0
M  V30 3360 H 300.02 2.18008 2.11439 0
M  V30 3361 H 297.605 1.11716 0.991957 0
M  V30 3362 H 299.487 0.794583 4.13841 0
M  V30 3363 H 298.162 0.00871894 3.23699 0
M  V30 3364 H 297.069 2.30752 2.94456 0
M  V30 3365 H 298.402 3.02046 3.88625 0
M  V30 3366 N 300.054 -1.07777 1.14986 0
M  V30 3367 C 301.301 -1.8029 0.922056 0
M  V30 3368 C 301.629 -1.86531 -0.55105 0
M  V30 3369 O 300.884 -1.34189 -1.42449 0
M  V30 3370 C 301.183 -3.25495 1.47608 0
M  V30 3371 C 300.849 -3.39361 2.96893 0
M  V30 3372 C 299.511 -3.42852 3.37647 0
M  V30 3373 C 301.863 -3.42512 3.92854 0
M  V30 3374 C 299.191 -3.47094 4.73015 0
M  V30 3375 C 301.543 -3.4829 5.28088 0
M  V30 3376 C 300.207 -3.50058 5.68345 0
M  V30 3377 H 299.477 -0.659727 0.337404 0
M  V30 3378 H 302.124 -1.26854 1.43459 0
M  V30 3379 H 300.429 -3.81683 0.88463 0
M  V30 3380 H 302.126 -3.80168 1.27568 0
M  V30 3381 H 298.716 -3.37339 2.64387 0
M  V30 3382 H 302.9 -3.3904 3.62444 0
M  V30 3383 H 298.156 -3.46758 5.03556 0
M  V30 3384 H 302.33 -3.49675 6.02246 0
M  V30 3385 H 299.957 -3.53097 6.73221 0
M  V30 3386 N 301.532 -0.945985 -1.26051 0
M  V30 3387 C 302.48 -0.450259 -2.282 0
M  V30 3388 C 303.474 0.47497 -1.62605 0
M  V30 3389 O 304.68 0.352653 -1.76512 0
M  V30 3390 H 301.055 -0.127081 -0.741184 0
M  V30 3391 H 303.026 -1.32422 -2.67408 0
M  V30 3392 C 301.775 0.26467 -3.46691 0
M  V30 3393 H 301.098 -0.438123 -3.97392 0
M  V30 3394 H 302.538 0.575678 -4.20074 0
M  V30 3395 C 300.997 1.48416 -3.02447 0
M  V30 3396 O 301.527 2.58227 -3.07704 0
M  V30 3397 N 299.733 1.34243 -2.57735 0
M  V30 3398 H 299.28 0.448994 -2.53657 0
M  V30 3399 H 299.238 2.15957 -2.28495 0
M  V30 3400 N 303.011 1.40521 -0.713556 0
M  V30 3401 C 303.959 2.32549 -0.0485227 0
M  V30 3402 C 304.953 1.51931 0.74922 0
M  V30 3403 O 306.159 1.67745 0.652816 0
M  V30 3404 H 302.534 0.751994 0.00311138 0
M  V30 3405 H 304.505 2.86291 -0.841443 0
M  V30 3406 C 303.254 3.36879 0.860687 0
M  V30 3407 H 302.577 3.98978 0.256246 0
M  V30 3408 H 304.017 4.03772 1.294 0
M  V30 3409 C 302.476 2.72197 1.9852 0
M  V30 3410 O 303.006 2.5837 3.07584 0
M  V30 3411 N 301.212 2.30612 1.76823 0
M  V30 3412 H 300.759 2.42059 0.881217 0
M  V30 3413 H 300.717 1.87672 2.52243 0
M  V30 3414 N 304.489 0.459591 1.5075 0
M  V30 3415 C 305.714 -0.0996819 2.0716 0
M  V30 3416 C 306.139 -1.33761 1.32249 0
M  V30 3417 O 305.497 -1.77551 0.366786 0
M  V30 3418 C 305.545 -0.378226 3.58611 0
M  V30 3419 O 304.649 -1.46081 3.85661 0
M  V30 3420 H 303.99 0.00791392 0.663953 0
M  V30 3421 H 306.52 0.647329 1.9409 0
M  V30 3422 H 306.53 -0.622135 4.03229 0
M  V30 3423 H 305.205 0.526439 4.12555 0
M  V30 3424 H 303.782 -1.20511 3.5289 0
M  V30 3425 N 305.967 -1.56429 0.191757 0
M  V30 3426 C 307.378 -1.83912 -0.321428 0
M  V30 3427 C 307.729 -1.11231 -1.61623 0
M  V30 3428 O 306.854 -0.37202 -2.13178 0
M  V30 3429 C 307.449 -3.33624 -0.589961 0
M  V30 3430 C 306.008 -3.6153 -1.04753 0
M  V30 3431 C 305.155 -2.7714 -0.0943327 0
M  V30 3432 H 308.106 -1.53161 0.415612 0
M  V30 3433 H 308.127 -3.52213 -1.43966 0
M  V30 3434 H 307.639 -3.86495 0.352588 0
M  V30 3435 H 305.74 -3.14089 -2.00447 0
M  V30 3436 H 305.853 -4.69737 -0.942549 0
M  V30 3437 H 304.217 -2.47638 -0.595589 0
M  V30 3438 H 305 -3.32799 0.842601 0
M  V30 3439 N 307.445 0.0818655 -1.57387 0
M  V30 3440 C 308.675 0.794954 -1.90694 0
M  V30 3441 C 309.083 1.72147 -0.784982 0
M  V30 3442 O 308.426 1.81974 0.251196 0
M  V30 3443 C 308.488 1.65042 -3.19376 0
M  V30 3444 C 308.152 0.894337 -4.48164 0
M  V30 3445 C 309.149 0.21813 -5.19442 0
M  V30 3446 C 306.834 0.864495 -4.94805 0
M  V30 3447 C 308.828 -0.477802 -6.35607 0
M  V30 3448 C 306.515 0.164785 -6.10878 0
M  V30 3449 C 307.513 -0.505173 -6.81129 0
M  V30 3450 O 307.201 -1.19363 -7.94989 0
M  V30 3451 H 306.933 0.231779 -0.635023 0
M  V30 3452 H 309.487 0.059493 -2.05314 0
M  V30 3453 H 307.717 2.42844 -3.00938 0
M  V30 3454 H 309.406 2.24127 -3.38411 0
M  V30 3455 H 310.172 0.232558 -4.84442 0
M  V30 3456 H 306.051 1.37542 -4.40004 0
M  V30 3457 H 309.595 -1.00129 -6.90377 0
M  V30 3458 H 305.492 0.148249 -6.4533 0
M  V30 3459 H 306.26 -1.10188 -8.11049 0
M  V30 3460 N 308.923 1.53595 0.353017 0
M  V30 3461 C 309.833 1.83897 1.45667 0
M  V30 3462 C 310.849 0.728334 1.58023 0
M  V30 3463 O 312.025 1.01968 1.73679 0
M  V30 3464 C 309.09 2.03383 2.80778 0
M  V30 3465 C 308.151 3.27262 2.77845 0
M  V30 3466 C 307.384 3.45809 4.06512 0
M  V30 3467 O 307.607 2.68387 5.03314 0
M  V30 3468 O 306.541 4.39207 4.11559 0
M  V30 3469 H 310.367 2.77686 1.2298 0
M  V30 3470 H 307.952 1.39132 0.544308 0
M  V30 3471 H 309.834 2.17698 3.60812 0
M  V30 3472 H 308.509 1.12783 3.03417 0
M  V30 3473 H 307.416 3.18359 1.96465 0
M  V30 3474 H 308.749 4.17824 2.60161 0
M  V30 3475 N 310.401 -0.613514 1.45168 0
M  V30 3476 C 311.629 -1.39946 1.5239 0
M  V30 3477 C 312.044 -1.88167 0.154531 0
M  V30 3478 O 311.401 -1.61872 -0.842843 0
M  V30 3479 C 311.452 -2.60795 2.50337 0
M  V30 3480 O 311.173 -2.1458 3.81952 0
M  V30 3481 C 312.674 -3.53723 2.67198 0
M  V30 3482 H 309.894 -0.428593 0.516284 0
M  V30 3483 H 312.438 -0.748753 1.903 0
M  V30 3484 H 310.593 -3.21919 2.15515 0
M  V30 3485 H 311.007 -2.93055 4.34993 0
M  V30 3486 H 312.481 -4.35079 3.39721 0
M  V30 3487 H 312.958 -4.0368 1.73029 0
M  V30 3488 H 313.564 -2.98456 3.02992 0
M  V30 3489 N 311.879 -1.3236 -0.855495 0
M  V30 3490 C 313.127 -1.22629 -1.60644 0
M  V30 3491 C 313.448 0.212136 -1.93843 0
M  V30 3492 O 312.718 1.13666 -1.59552 0
M  V30 3493 H 311.298 -0.450882 -0.595579 0
M  V30 3494 H 313.96 -1.65871 -1.02337 0
M  V30 3495 H 313.056 -1.80832 -2.54374 0
M  V30 3496 N 313.357 1.07166 -1.15556 0
M  V30 3497 C 314.587 1.83248 -0.954133 0
M  V30 3498 C 314.995 1.82449 0.500911 0
M  V30 3499 O 314.338 1.23575 1.35923 0
M  V30 3500 C 314.4 3.31393 -1.39351 0
M  V30 3501 C 314.064 3.5591 -2.86666 0
M  V30 3502 C 315.061 3.49695 -3.8472 0
M  V30 3503 C 312.746 3.83515 -3.24379 0
M  V30 3504 C 314.74 3.70737 -5.18491 0
M  V30 3505 C 312.427 4.04209 -4.58321 0
M  V30 3506 C 313.425 3.97815 -5.55186 0
M  V30 3507 O 313.113 4.17954 -6.86709 0
M  V30 3508 H 312.845 0.584941 -0.338851 0
M  V30 3509 H 315.399 1.36169 -1.53777 0
M  V30 3510 H 313.629 3.79292 -0.75329 0
M  V30 3511 H 315.318 3.88945 -1.16089 0
M  V30 3512 H 316.084 3.28368 -3.56931 0
M  V30 3513 H 311.963 3.87605 -2.49567 0
M  V30 3514 H 315.507 3.65663 -5.94085 0
M  V30 3515 H 311.404 4.25023 -4.85825 0
M  V30 3516 H 312.172 4.35291 -6.93155 0
M  V30 3517 N 314.835 0.952656 1.25548 0
M  V30 3518 C 316.084 0.602053 1.92505 0
M  V30 3519 C 316.397 -0.864663 1.75451 0
M  V30 3520 O 317.603 -1.32514 2.36965 0
M  V30 3521 C 316.059 1.02607 3.44963 0
M  V30 3522 C 315.667 2.51519 3.70732 0
M  V30 3523 C 317.411 0.747905 4.1786 0
M  V30 3524 C 315.318 2.87732 5.16686 0
M  V30 3525 H 314.248 0.22146 0.720744 0
M  V30 3526 H 316.899 1.15684 1.42441 0
M  V30 3527 H 315.281 0.399712 3.93978 0
M  V30 3528 H 316.455 3.19157 3.32378 0
M  V30 3529 H 314.77 2.76786 3.11092 0
M  V30 3530 H 317.367 0.994647 5.25367 0
M  V30 3531 H 317.71 -0.315629 4.15102 0
M  V30 3532 H 318.243 1.33452 3.74747 0
M  V30 3533 H 314.982 3.93095 5.24554 0
M  V30 3534 H 314.502 2.24765 5.56094 0
M  V30 3535 H 316.181 2.76817 5.84792 0
M  V30 3536 N 316.313 -1.40141 0.720998 0
M  V30 3537 C 317.26 -2.30688 0.071919 0
M  V30 3538 C 318.23 -1.48476 -0.744584 0
M  V30 3539 O 319.415 -1.77201 -0.707423 0
M  V30 3540 C 316.555 -3.34724 -0.839855 0
M  V30 3541 C 315.668 -4.31998 -0.0122438 0
M  V30 3542 C 314.803 -5.23102 -0.923995 0
M  V30 3543 C 313.842 -6.12033 -0.0907969 0
M  V30 3544 N 312.979 -6.95537 -0.957718 0
M  V30 3545 H 317.819 -2.85628 0.849755 0
M  V30 3546 H 315.356 -1.40653 0.430726 0
M  V30 3547 H 317.314 -3.93618 -1.38279 0
M  V30 3548 H 315.944 -2.81274 -1.58381 0
M  V30 3549 H 314.996 -3.74841 0.64794 0
M  V30 3550 H 316.308 -4.94772 0.632595 0
M  V30 3551 H 315.462 -5.86953 -1.53527 0
M  V30 3552 H 314.201 -4.60615 -1.60264 0
M  V30 3553 H 313.206 -5.47207 0.533377 0
M  V30 3554 H 314.431 -6.76581 0.584428 0
M  V30 3555 H 312.377 -6.35633 -1.62192 0
M  V30 3556 H 312.294 -7.55099 -0.36904 0
M  V30 3557 H 313.562 -7.63832 -1.555 0
M  V30 3558 N 317.792 -0.46758 -1.50504 0
M  V30 3559 C 319.039 0.0886219 -2.02306 0
M  V30 3560 C 319.367 1.40037 -1.34981 0
M  V30 3561 O 318.622 1.90136 -0.463318 0
M  V30 3562 C 318.921 0.323995 -3.55928 0
M  V30 3563 C 318.587 -0.905618 -4.41712 0
M  V30 3564 C 317.249 -1.24275 -4.64875 0
M  V30 3565 C 319.601 -1.72448 -4.91845 0
M  V30 3566 C 316.929 -2.39888 -5.35417 0
M  V30 3567 C 319.281 -2.87185 -5.63656 0
M  V30 3568 C 317.945 -3.21317 -5.85074 0
M  V30 3569 H 317.215 0.0324291 -0.74029 0
M  V30 3570 H 319.862 -0.620945 -1.81153 0
M  V30 3571 H 318.167 1.11577 -3.75577 0
M  V30 3572 H 319.864 0.76826 -3.93572 0
M  V30 3573 H 316.454 -0.632956 -4.239 0
M  V30 3574 H 320.638 -1.4772 -4.73806 0
M  V30 3575 H 315.894 -2.66611 -5.50208 0
M  V30 3576 H 320.068 -3.50985 -6.01484 0
M  V30 3577 H 317.695 -4.1101 -6.39511 0
M  V30 3578 N 319.27 1.56325 -0.20005 0
M  V30 3579 C 320.519 1.96895 0.437652 0
M  V30 3580 C 320.832 1.08999 1.62415 0
M  V30 3581 O 322.038 1.39372 2.32997 0
M  V30 3582 C 320.494 3.50198 0.830025 0
M  V30 3583 C 320.102 4.46765 -0.332461 0
M  V30 3584 C 321.846 3.99526 1.43453 0
M  V30 3585 C 319.753 5.91344 0.0811468 0
M  V30 3586 H 318.683 0.735209 0.167282 0
M  V30 3587 H 321.334 1.81148 -0.292853 0
M  V30 3588 H 319.716 3.61467 1.61734 0
M  V30 3589 H 320.89 4.47231 -1.11 0
M  V30 3590 H 319.205 4.07657 -0.848789 0
M  V30 3591 H 321.802 5.05025 1.75652 0
M  V30 3592 H 322.145 3.44122 2.34277 0
M  V30 3593 H 322.678 3.91393 0.71109 0
M  V30 3594 H 319.417 6.50685 -0.793033 0
M  V30 3595 H 318.937 5.94121 0.823445 0
M  V30 3596 H 320.616 6.44945 0.515252 0
M  V30 3597 N 320.748 -0.0735177 1.57428 0
M  V30 3598 C 321.658 -1.10547 2.06922 0
M  V30 3599 C 322.674 -1.42506 0.998402 0
M  V30 3600 O 323.85 -1.52717 1.31299 0
M  V30 3601 C 320.915 -2.40019 2.50184 0
M  V30 3602 C 319.976 -2.15046 3.71556 0
M  V30 3603 C 319.209 -3.38345 4.12745 0
M  V30 3604 O 319.432 -4.47399 3.53822 0
M  V30 3605 O 318.366 -3.2666 5.05546 0
M  V30 3606 H 322.192 -0.715013 2.95163 0
M  V30 3607 H 319.777 -0.287531 1.46607 0
M  V30 3608 H 321.659 -3.16218 2.78539 0
M  V30 3609 H 320.334 -2.78447 1.65072 0
M  V30 3610 H 319.241 -1.36558 3.48285 0
M  V30 3611 H 320.574 -1.81499 4.57514 0
M  V30 3612 N 322.226 -1.5378 -0.344866 0
M  V30 3613 C 323.174 -1.82373 -1.4437 0
M  V30 3614 C 324.168 -0.694128 -1.54526 0
M  V30 3615 O 325.374 -0.877442 -1.57165 0
M  V30 3616 H 321.749 -0.577765 -0.481344 0
M  V30 3617 H 323.72 -2.74306 -1.17468 0
M  V30 3618 C 322.469 -2.04898 -2.80913 0
M  V30 3619 H 321.792 -2.9127 -2.73865 0
M  V30 3620 H 323.232 -2.28871 -3.56923 0
M  V30 3621 C 321.691 -0.834116 -3.26411 0
M  V30 3622 O 322.221 -0.0328885 -4.01687 0
M  V30 3623 N 320.427 -0.65171 -2.83198 0
M  V30 3624 H 319.974 -1.30489 -2.22104 0
M  V30 3625 H 319.932 0.159686 -3.13994 0
M  V30 3626 N 323.704 0.605807 -1.45491 0
M  V30 3627 C 324.614 1.74466 -1.56839 0
M  V30 3628 C 325.63 1.68006 -0.452772 0
M  V30 3629 O 326.806 1.8833 -0.713708 0
M  V30 3630 C 323.871 3.10931 -1.53371 0
M  V30 3631 C 322.932 3.28832 -2.75986 0
M  V30 3632 C 322.165 4.58787 -2.72673 0
M  V30 3633 O 322.388 5.4122 -1.80102 0
M  V30 3634 O 321.322 4.79438 -3.63899 0
M  V30 3635 H 325.148 1.67843 -2.53106 0
M  V30 3636 H 322.733 0.770108 -1.28022 0
M  V30 3637 H 324.615 3.92233 -1.54051 0
M  V30 3638 H 323.29 3.18042 -0.602572 0
M  V30 3639 H 322.197 2.47112 -2.80867 0
M  V30 3640 H 323.53 3.26599 -3.68231 0
M  V30 3641 N 325.182 1.32811 0.848464 0
M  V30 3642 C 326.13 1.22231 1.97895 0
M  V30 3643 C 327.124 0.125749 1.68933 0
M  V30 3644 O 328.33 0.289083 1.77663 0
M  V30 3645 H 324.705 0.379058 0.649476 0
M  V30 3646 H 326.676 2.17828 2.03945 0
M  V30 3647 C 325.425 0.968572 3.33937 0
M  V30 3648 H 324.748 1.80458 3.56756 0
M  V30 3649 H 326.188 0.934808 4.13567 0
M  V30 3650 C 324.647 -0.328628 3.35293 0
M  V30 3651 O 325.177 -1.33848 3.78745 0
M  V30 3652 N 323.383 -0.352788 2.88451 0
M  V30 3653 H 322.93 0.469541 2.53285 0
M  V30 3654 H 322.888 -1.22057 2.89741 0
M  V30 3655 N 326.66 -1.06551 1.16123 0
M  V30 3656 C 327.885 -1.83544 0.965735 0
M  V30 3657 C 328.31 -1.81843 -0.481102 0
M  V30 3658 O 327.668 -1.21732 -1.34354 0
M  V30 3659 C 327.716 -3.28169 1.49457 0
M  V30 3660 O 326.82 -4.0643 0.699157 0
M  V30 3661 H 326.161 -0.568026 0.343864 0
M  V30 3662 H 328.691 -1.34362 1.54299 0
M  V30 3663 H 328.701 -3.78992 1.51092 0
M  V30 3664 H 327.376 -3.28722 2.54784 0
M  V30 3665 H 325.953 -3.65216 0.7531 0
M  V30 3666 N 328.138 -0.959301 -1.25041 0
M  V30 3667 C 329.385 -0.616611 -1.92884 0
M  V30 3668 C 329.713 0.847036 -1.75087 0
M  V30 3669 O 328.968 1.62374 -1.09239 0
M  V30 3670 C 329.267 -0.927136 -3.45165 0
M  V30 3671 C 328.933 -2.37757 -3.83122 0
M  V30 3672 C 327.595 -2.77402 -3.93194 0
M  V30 3673 C 329.947 -3.31929 -4.01836 0
M  V30 3674 C 327.275 -4.10277 -4.19392 0
M  V30 3675 C 329.627 -4.64423 -4.29528 0
M  V30 3676 C 328.291 -5.03857 -4.37818 0
M  V30 3677 H 327.561 -0.225634 -0.705812 0
M  V30 3678 H 330.208 -1.20921 -1.48493 0
M  V30 3679 H 328.513 -0.252195 -3.90987 0
M  V30 3680 H 330.21 -0.6405 -3.95852 0
M  V30 3681 H 326.8 -2.06013 -3.75841 0
M  V30 3682 H 330.984 -3.02488 -3.93465 0
M  V30 3683 H 326.24 -4.40467 -4.24027 0
M  V30 3684 H 330.414 -5.37369 -4.42953 0
M  V30 3685 H 328.041 -6.06843 -4.57871 0
M  V30 3686 N 329.616 1.39756 -0.72842 0
M  V30 3687 C 330.862 2.01425 -0.282761 0
M  V30 3688 C 331.217 1.56754 1.11561 0
M  V30 3689 O 330.51 0.783482 1.74849 0
M  V30 3690 C 330.704 3.56002 -0.315776 0
M  V30 3691 C 330.533 4.1568 -1.71582 0
M  V30 3692 C 329.303 4.48555 -2.32651 0
M  V30 3693 C 331.501 4.39667 -2.66829 0
M  V30 3694 N 329.483 4.93698 -3.64877 0
M  V30 3695 C 330.854 4.86942 -3.8378 0
M  V30 3696 C 332.909 4.21724 -2.64675 0
M  V30 3697 C 331.612 5.18158 -4.98904 0
M  V30 3698 C 333.638 4.54049 -3.78937 0
M  V30 3699 C 333 5.01525 -4.94623 0
M  V30 3700 H 329.099 0.76756 -0.149583 0
M  V30 3701 H 331.683 1.69784 -0.952976 0
M  V30 3702 H 329.854 3.87046 0.324057 0
M  V30 3703 H 331.586 4.0443 0.147808 0
M  V30 3704 H 328.341 4.36128 -1.84633 0
M  V30 3705 H 328.765 5.20635 -4.32744 0
M  V30 3706 H 333.407 3.84228 -1.76433 0
M  V30 3707 H 331.125 5.54562 -5.87781 0
M  V30 3708 H 334.711 4.41795 -3.78561 0
M  V30 3709 H 333.591 5.26065 -5.81572 0
M  V30 3710 N 331.094 0.475555 1.50254 0
M  V30 3711 C 332.324 -0.0753399 2.06463 0
M  V30 3712 C 332.732 -1.33661 1.33908 0
M  V30 3713 O 332.075 -1.79219 0.403257 0
M  V30 3714 C 332.137 -0.424921 3.5698 0
M  V30 3715 C 331.801 0.734965 4.51051 0
M  V30 3716 C 332.798 1.61827 4.94073 0
M  V30 3717 C 330.483 0.926557 4.9368 0
M  V30 3718 C 332.477 2.67754 5.78434 0
M  V30 3719 C 330.164 1.98904 5.77824 0
M  V30 3720 C 331.162 2.8629 6.20103 0
M  V30 3721 O 330.85 3.90708 7.02568 0
M  V30 3722 H 330.582 0.00576308 0.675975 0
M  V30 3723 H 333.136 0.664662 1.94349 0
M  V30 3724 H 331.366 -1.21817 3.67012 0
M  V30 3725 H 333.055 -0.911422 3.95535 0
M  V30 3726 H 333.821 1.48196 4.61804 0
M  V30 3727 H 329.7 0.25584 4.6029 0
M  V30 3728 H 333.244 3.35992 6.11355 0
M  V30 3729 H 329.141 2.12541 6.09505 0
M  V30 3730 H 329.909 3.87751 7.20827 0
M  V30 3731 N 332.573 -1.56217 0.208337 0
M  V30 3732 C 333.85 -1.89739 -0.475234 0
M  V30 3733 C 334.23 -1.1238 -1.78701 0
M  V30 3734 O 333.578 -0.228979 -2.2735 0
M  V30 3735 C 333.788 -3.42289 -0.681101 0
M  V30 3736 C 335.136 -4.12789 -0.994507 0
M  V30 3737 O 336.16 -3.47814 -0.768357 0
M  V30 3738 O 335.019 -5.27649 -1.42299 0
M  V30 3739 H 332.113 -0.788478 -0.249461 0
M  V30 3740 H 334.659 -1.67855 0.249538 0
M  V30 3741 H 333.431 -3.90534 0.244722 0
M  V30 3742 H 333.054 -3.69909 -1.45785 0
M  V30 3743 N 334.051 0.0651679 -1.57465 0
M  V30 3744 C 334.984 1.10876 -1.99453 0
M  V30 3745 C 335.962 1.37205 -0.872555 0
M  V30 3746 O 337.146 1.50468 -1.13542 0
M  V30 3747 C 334.273 2.45167 -2.3369 0
M  V30 3748 C 333.319 2.3493 -3.55964 0
M  V30 3749 S 334.152 1.73708 -5.06543 0
M  V30 3750 C 335.308 3.09563 -5.43987 0
M  V30 3751 H 335.541 0.750967 -2.87659 0
M  V30 3752 H 333.074 0.273933 -1.51951 0
M  V30 3753 H 335.032 3.22412 -2.54088 0
M  V30 3754 H 333.693 2.78105 -1.46001 0
M  V30 3755 H 332.886 3.3398 -3.77457 0
M  V30 3756 H 332.488 1.65823 -3.3523 0
M  V30 3757 H 334.78 4.05882 -5.42463 0
M  V30 3758 H 335.723 2.92843 -6.44708 0
M  V30 3759 H 336.131 3.10474 -4.71451 0
M  V30 3760 N 335.529 1.53961 0.336706 0
M  V30 3761 C 336.462 1.77255 1.43722 0
M  V30 3762 C 337.44 0.62193 1.50236 0
M  V30 3763 O 338.624 0.857874 1.67847 0
M  V30 3764 C 335.751 1.87733 2.81912 0
M  V30 3765 C 334.797 3.09933 2.92991 0
M  V30 3766 S 335.63 4.68836 2.58753 0
M  V30 3767 C 336.786 4.82202 3.99039 0
M  V30 3768 H 337.019 2.70322 1.23748 0
M  V30 3769 H 334.552 1.44917 0.532777 0
M  V30 3770 H 336.51 1.94455 3.61521 0
M  V30 3771 H 335.171 0.956666 2.99177 0
M  V30 3772 H 334.364 3.1396 3.94265 0
M  V30 3773 H 333.966 3.01472 2.21338 0
M  V30 3774 H 336.258 4.64032 4.9364 0
M  V30 3775 H 337.201 5.84298 4.00002 0
M  V30 3776 H 337.609 4.10604 3.87382 0
M  V30 3777 N 337.007 -0.598083 1.45811 0
M  V30 3778 C 338.418 -1.18011 1.44673 0
M  V30 3779 C 338.769 -1.95378 0.179364 0
M  V30 3780 O 337.894 -2.04124 -0.718509 0
M  V30 3781 C 338.489 -2.14677 2.62105 0
M  V30 3782 C 337.048 -2.68236 2.64057 0
M  V30 3783 C 336.195 -1.43816 2.37091 0
M  V30 3784 H 339.146 -0.38686 1.53913 0
M  V30 3785 H 339.167 -2.97878 2.36746 0
M  V30 3786 H 338.679 -1.5834 3.5433 0
M  V30 3787 H 336.78 -3.28486 1.75864 0
M  V30 3788 H 336.893 -3.12021 3.63566 0
M  V30 3789 H 335.257 -1.731 1.86838 0
M  V30 3790 H 336.04 -0.893333 3.31473 0
M  V30 3791 N 338.485 -1.33259 -0.841409 0
M  V30 3792 C 339.448 -1.23221 -1.9326 0
M  V30 3793 C 340.448 -0.151895 -1.60081 0
M  V30 3794 O 341.638 -0.403246 -1.69468 0
M  V30 3795 C 338.77 -0.898123 -3.28856 0
M  V30 3796 H 339.963 -2.2021 -2.03587 0
M  V30 3797 H 337.516 -1.17281 -1.03319 0
M  V30 3798 H 338.251 0.0693841 -3.24226 0
M  V30 3799 H 338.036 -1.67934 -3.54317 0
M  V30 3800 H 339.526 -0.852563 -4.08805 0
M  V30 3801 N 339.963 1.05934 -1.16686 0
M  V30 3802 C 341.374 1.60263 -0.957745 0
M  V30 3803 C 341.725 1.89789 0.49745 0
M  V30 3804 O 340.85 1.67401 1.37135 0
M  V30 3805 C 341.445 2.91172 -1.73218 0
M  V30 3806 C 340.004 3.42188 -1.56794 0
M  V30 3807 C 339.151 2.16028 -1.73859 0
M  V30 3808 H 342.102 0.888392 -1.31504 0
M  V30 3809 H 342.123 3.60744 -1.21014 0
M  V30 3810 H 341.635 2.6965 -2.79124 0
M  V30 3811 H 339.736 3.68762 -0.533437 0
M  V30 3812 H 339.849 4.17273 -2.35414 0
M  V30 3813 H 338.213 2.26426 -1.16633 0
M  V30 3814 H 338.996 1.96985 -2.81161 0
M  V30 3815 N 341.441 0.965919 1.2453 0
M  V30 3816 C 342.689 0.625593 1.92174 0
M  V30 3817 C 343.01 -0.841652 1.75901 0
M  V30 3818 O 342.28 -1.60061 1.12948 0
M  V30 3819 H 340.86 0.228388 0.71123 0
M  V30 3820 H 343.522 1.2266 1.51461 0
M  V30 3821 H 342.618 0.864653 2.99884 0
M  V30 3822 N 342.919 -1.39368 0.735821 0
M  V30 3823 C 344.196 -1.94465 0.210395 0
M  V30 3824 C 344.576 -1.67254 -1.28799 0
M  V30 3825 O 343.924 -1.00123 -2.05396 0
M  V30 3826 C 344.134 -3.4472 0.544897 0
M  V30 3827 C 345.482 -4.21708 0.494689 0
M  V30 3828 O 346.506 -3.52922 0.482136 0
M  V30 3829 O 345.365 -5.44299 0.489947 0
M  V30 3830 H 342.459 -0.826096 0.0386666 0
M  V30 3831 H 345.005 -1.48863 0.814735 0
M  V30 3832 H 343.777 -3.57963 1.58045 0
M  V30 3833 H 343.4 -3.97502 -0.08837 0
M  V30 3834 N 344.397 -0.483516 -1.5 0
M  V30 3835 C 345.344 0.304164 -2.28787 0
M  V30 3836 C 346.314 0.976114 -1.34392 0
M  V30 3837 O 347.499 0.986156 -1.63339 0
M  V30 3838 C 344.639 1.37298 -3.16612 0
M  V30 3839 C 343.752 0.714561 -4.26049 0
M  V30 3840 C 342.887 1.76232 -5.01114 0
M  V30 3841 C 341.926 1.08483 -6.0241 0
M  V30 3842 N 341.063 2.076 -6.70706 0
M  V30 3843 H 345.903 -0.373981 -2.95644 0
M  V30 3844 H 343.44 -0.196275 -1.45785 0
M  V30 3845 H 345.398 2.00445 -3.65893 0
M  V30 3846 H 344.028 2.02012 -2.51776 0
M  V30 3847 H 343.08 -0.0297798 -3.80388 0
M  V30 3848 H 344.392 0.180383 -4.98474 0
M  V30 3849 H 343.546 2.46929 -5.54176 0
M  V30 3850 H 342.285 2.33033 -4.28424 0
M  V30 3851 H 341.29 0.363545 -5.48597 0
M  V30 3852 H 342.515 0.523551 -6.77079 0
M  V30 3853 H 340.461 2.63394 -6.00799 0
M  V30 3854 H 340.378 1.59201 -7.39047 0
M  V30 3855 H 341.646 2.77639 -7.2838 0
M  V30 3856 N 345.875 1.56104 -0.216619 0
M  V30 3857 C 347.122 1.98172 0.416416 0
M  V30 3858 C 347.45 1.10413 1.60122 0
M  V30 3859 O 346.705 0.147967 1.9514 0
M  V30 3860 C 347.004 3.45923 0.898464 0
M  V30 3861 C 346.67 4.50559 -0.175288 0
M  V30 3862 C 345.332 4.78897 -0.470271 0
M  V30 3863 C 347.684 5.1334 -0.901728 0
M  V30 3864 C 345.012 5.67299 -1.4963 0
M  V30 3865 C 347.364 6.02853 -1.91705 0
M  V30 3866 C 346.028 6.29537 -2.21901 0
M  V30 3867 H 345.298 0.725164 0.152377 0
M  V30 3868 H 347.945 1.88839 -0.318103 0
M  V30 3869 H 346.25 3.52434 1.71165 0
M  V30 3870 H 347.947 3.75841 1.39803 0
M  V30 3871 H 344.537 4.28551 0.0647806 0
M  V30 3872 H 348.721 4.91521 -0.687072 0
M  V30 3873 H 343.977 5.86239 -1.73592 0
M  V30 3874 H 348.151 6.50552 -2.48505 0
M  V30 3875 H 345.778 6.97835 -3.01548 0
M  V30 3876 N 347.353 -0.0568162 1.57498 0
M  V30 3877 C 348.63 -0.786954 1.79071 0
M  V30 3878 C 349.01 -1.95028 0.80792 0
M  V30 3879 O 348.358 -2.27968 -0.155858 0
M  V30 3880 C 348.568 -1.24594 3.26002 0
M  V30 3881 C 349.916 -1.67323 3.90241 0
M  V30 3882 O 350.94 -1.34124 3.29984 0
M  V30 3883 O 349.799 -2.28842 4.9628 0
M  V30 3884 H 346.893 -0.378262 0.735423 0
M  V30 3885 H 349.439 -0.035734 1.69662 0
M  V30 3886 H 348.211 -0.41423 3.89101 0
M  V30 3887 H 347.834 -2.05803 3.40192 0
M  V30 3888 N 348.832 -1.54138 -0.328536 0
M  V30 3889 C 349.764 -1.79509 -1.4251 0
M  V30 3890 C 350.777 -0.67688 -1.48061 0
M  V30 3891 O 351.966 -0.953898 -1.50874 0
M  V30 3892 C 349.066 -1.89337 -2.81078 0
M  V30 3893 C 348.239 -3.19443 -2.98789 0
M  V30 3894 C 347.298 -3.20036 -4.17688 0
M  V30 3895 O 346.324 -3.93697 -4.11086 0
M  V30 3896 N 347.526 -2.43467 -5.26976 0
M  V30 3897 H 350.291 -2.74139 -1.21111 0
M  V30 3898 H 347.852 -1.53373 -0.518499 0
M  V30 3899 H 349.844 -1.87167 -3.58818 0
M  V30 3900 H 348.414 -1.01826 -2.95551 0
M  V30 3901 H 347.634 -3.34614 -2.08391 0
M  V30 3902 H 348.922 -4.05354 -3.07515 0
M  V30 3903 H 348.32 -1.83201 -5.35214 0
M  V30 3904 H 346.877 -2.4708 -6.03154 0
M  V30 3905 N 350.31 0.590341 -1.46126 0
M  V30 3906 C 351.535 1.37991 -1.54833 0
M  V30 3907 C 351.96 1.87163 -0.187506 0
M  V30 3908 O 351.318 1.61133 0.831008 0
M  V30 3909 C 351.366 2.54867 -2.55098 0
M  V30 3910 O 350.47 3.56061 -2.08073 0
M  V30 3911 H 349.811 0.411265 -0.521303 0
M  V30 3912 H 352.341 0.716819 -1.91632 0
M  V30 3913 H 352.351 3.01886 -2.74461 0
M  V30 3914 H 351.026 2.18429 -3.53923 0
M  V30 3915 H 349.603 3.15574 -1.98664 0
M  V30 3916 N 351.788 1.33704 0.83433 0
M  V30 3917 C 352.735 1.24335 1.94447 0
M  V30 3918 C 353.705 0.120991 1.65659 0
M  V30 3919 O 354.89 0.300035 1.88426 0
M  V30 3920 C 352.03 0.993124 3.30501 0
M  V30 3921 C 351.143 2.20217 3.71657 0
M  V30 3922 C 350.278 1.88572 4.96602 0
M  V30 3923 C 349.317 3.05683 5.30306 0
M  V30 3924 N 348.454 2.73997 6.46429 0
M  V30 3925 H 353.294 2.1928 2.01792 0
M  V30 3926 H 350.831 1.09035 0.987404 0
M  V30 3927 H 352.789 0.828467 4.08892 0
M  V30 3928 H 351.419 0.0803902 3.227 0
M  V30 3929 H 350.471 2.47642 2.88752 0
M  V30 3930 H 351.783 3.07752 3.92543 0
M  V30 3931 H 350.937 1.68776 5.82752 0
M  V30 3932 H 349.676 0.982799 4.77695 0
M  V30 3933 H 348.681 3.26088 4.42659 0
M  V30 3934 H 349.906 3.96737 5.51159 0
M  V30 3935 H 347.852 1.86268 6.28999 0
M  V30 3936 H 347.769 3.55064 6.67432 0
M  V30 3937 H 349.037 2.57679 7.35678 0
M  V30 3938 N 353.266 -1.05314 1.17247 0
M  V30 3939 C 354.496 -1.81707 0.983166 0
M  V30 3940 C 354.904 -1.83222 -0.471822 0
M  V30 3941 O 354.247 -1.25721 -1.3394 0
M  V30 3942 C 354.309 -3.29134 1.44606 0
M  V30 3943 C 353.973 -3.51304 2.92292 0
M  V30 3944 C 354.97 -3.4353 3.90235 0
M  V30 3945 C 352.655 -3.78306 3.30439 0
M  V30 3946 C 354.649 -3.62442 5.24323 0
M  V30 3947 C 352.336 -3.96866 4.64694 0
M  V30 3948 C 353.334 -3.88933 5.61445 0
M  V30 3949 O 353.022 -4.06976 6.93272 0
M  V30 3950 H 352.754 -0.579476 0.348114 0
M  V30 3951 H 355.308 -1.33705 1.55924 0
M  V30 3952 H 353.538 -3.78046 0.813537 0
M  V30 3953 H 355.227 -3.87049 1.22262 0
M  V30 3954 H 355.993 -3.22648 3.62109 0
M  V30 3955 H 351.872 -3.83585 2.55702 0
M  V30 3956 H 355.416 -3.56165 5.99827 0
M  V30 3957 H 351.313 -4.1724 4.92525 0
M  V30 3958 H 352.081 -4.24209 6.99992 0
M  V30 3959 N 354.744 -0.972509 -1.24016 0
M  V30 3960 C 355.674 -0.525548 -2.27509 0
M  V30 3961 C 356.655 0.437262 -1.64384 0
M  V30 3962 O 357.84 0.332343 -1.91335 0
M  V30 3963 C 354.97 0.180448 -3.46831 0
M  V30 3964 C 353.924 -0.698859 -4.22256 0
M  V30 3965 C 353.25 0.138903 -5.3452 0
M  V30 3966 C 354.55 -1.98582 -4.83076 0
M  V30 3967 H 356.244 -1.39058 -2.65148 0
M  V30 3968 H 353.79 -0.67009 -1.27459 0
M  V30 3969 H 355.743 0.504387 -4.18371 0
M  V30 3970 H 354.467 1.07987 -3.08231 0
M  V30 3971 H 353.126 -1.00614 -3.52523 0
M  V30 3972 H 352.774 1.03862 -4.9216 0
M  V30 3973 H 352.474 -0.446259 -5.85903 0
M  V30 3974 H 353.998 0.457404 -6.08884 0
M  V30 3975 H 355.412 -1.72715 -5.46665 0
M  V30 3976 H 353.809 -2.5181 -5.44713 0
M  V30 3977 H 354.879 -2.67769 -4.04262 0
M  V30 3978 N 356.222 1.38976 -0.743202 0
M  V30 3979 C 357.155 2.28128 -0.0572165 0
M  V30 3980 C 358.133 1.44827 0.739182 0
M  V30 3981 O 359.317 1.74207 0.720009 0
M  V30 3982 C 356.444 3.25796 0.926001 0
M  V30 3983 C 355.49 4.25947 0.217099 0
M  V30 3984 S 356.323 5.24604 -1.07477 0
M  V30 3985 C 357.479 6.25829 -0.0943545 0
M  V30 3986 H 357.712 2.85961 -0.813246 0
M  V30 3987 H 355.245 1.44822 -0.535341 0
M  V30 3988 H 357.203 3.82583 1.48797 0
M  V30 3989 H 355.864 2.66966 1.65493 0
M  V30 3990 H 355.057 4.94746 0.961372 0
M  V30 3991 H 354.659 3.73002 -0.273059 0
M  V30 3992 H 356.951 6.73411 0.743239 0
M  V30 3993 H 357.894 7.0412 -0.749713 0
M  V30 3994 H 358.302 5.63797 0.281706 0
M  V30 3995 N 357.7 0.491464 1.49741 0
M  V30 3996 C 358.633 -0.338464 2.25676 0
M  V30 3997 C 359.611 -0.978676 1.29849 0
M  V30 3998 O 360.795 -1.01064 1.59117 0
M  V30 3999 C 357.922 -1.47588 3.04853 0
M  V30 4000 C 356.968 -0.951 4.15762 0
M  V30 4001 S 357.801 0.150626 5.35288 0
M  V30 4002 C 358.957 -0.990178 6.18018 0
M  V30 4003 H 359.19 0.306068 2.9572 0
M  V30 4004 H 356.723 0.276622 1.51902 0
M  V30 4005 H 358.681 -2.12764 3.51058 0
M  V30 4006 H 357.342 -2.09199 2.34296 0
M  V30 4007 H 356.535 -1.80311 4.70642 0
M  V30 4008 H 356.137 -0.376607 3.72099 0
M  V30 4009 H 358.429 -1.89748 6.50386 0
M  V30 4010 H 359.372 -0.480205 7.0647 0
M  V30 4011 H 359.78 -1.25321 5.50413 0
M  V30 4012 N 359.178 -1.55987 0.224894 0
M  V30 4013 C 360.408 -2.02489 -0.41007 0
M  V30 4014 C 360.816 -1.10391 -1.53657 0
M  V30 4015 O 360.159 -0.106458 -1.83391 0
M  V30 4016 C 360.221 -3.45319 -0.999757 0
M  V30 4017 C 359.885 -4.56999 -0.00827976 0
M  V30 4018 C 360.882 -5.13812 0.793314 0
M  V30 4019 C 358.567 -5.02176 0.111442 0
M  V30 4020 C 360.561 -6.14276 1.7013 0
M  V30 4021 C 358.248 -6.02477 1.02296 0
M  V30 4022 C 359.246 -6.58403 1.81643 0
M  V30 4023 O 358.934 -7.56751 2.71262 0
M  V30 4024 H 358.666 -0.667915 -0.104235 0
M  V30 4025 H 361.22 -2.0257 0.339782 0
M  V30 4026 H 359.45 -3.42318 -1.79876 0
M  V30 4027 H 361.139 -3.7545 -1.54248 0
M  V30 4028 H 361.905 -4.79756 0.711288 0
M  V30 4029 H 357.784 -4.58323 -0.49605 0
M  V30 4030 H 361.328 -6.57854 2.32107 0
M  V30 4031 H 357.225 -6.35954 1.10599 0
M  V30 4032 H 357.993 -7.74286 2.65375 0
M  V30 4033 N 360.656 0.0484629 -1.57525 0
M  V30 4034 C 361.604 1.07359 -2.06341 0
M  V30 4035 C 362.598 1.3865 -0.973269 0
M  V30 4036 O 363.804 1.37783 -1.15827 0
M  V30 4037 H 360.179 0.363662 -0.65822 0
M  V30 4038 H 362.15 0.635916 -2.91545 0
M  V30 4039 C 360.899 2.37198 -2.54229 0
M  V30 4040 H 360.222 2.13977 -3.37719 0
M  V30 4041 H 361.662 3.07319 -2.92115 0
M  V30 4042 C 360.121 3.04805 -1.43511 0
M  V30 4043 O 360.651 3.93848 -0.79034 0
M  V30 4044 N 358.857 2.65811 -1.17444 0
M  V30 4045 H 358.404 1.93488 -1.70059 0
M  V30 4046 H 358.362 3.11366 -0.435737 0
M  V30 4047 N 362.134 1.5431 0.320358 0
M  V30 4048 C 363.411 1.63322 1.07635 0
M  V30 4049 C 363.791 0.46912 2.05821 0
M  V30 4050 O 363.139 -0.536274 2.22118 0
M  V30 4051 C 363.349 3.00465 1.77544 0
M  V30 4052 C 364.697 3.56621 2.30449 0
M  V30 4053 O 365.721 3.02791 1.87606 0
M  V30 4054 O 364.58 4.5083 3.08892 0
M  V30 4055 H 361.674 0.661502 0.496331 0
M  V30 4056 H 364.22 1.66656 0.319992 0
M  V30 4057 H 362.992 3.76629 1.06143 0
M  V30 4058 H 362.615 3.00824 2.59982 0
M  V30 4059 N 363.613 -0.582584 1.46437 0
M  V30 4060 C 364.561 -1.71272 1.5738 0
M  V30 4061 C 365.555 -1.63524 0.44229 0
M  V30 4062 O 366.761 -1.69016 0.619166 0
M  V30 4063 H 363.136 -0.566273 0.494813 0
M  V30 4064 H 365.107 -1.59174 2.52401 0
M  V30 4065 C 363.856 -3.09658 1.58136 0
M  V30 4066 H 363.179 -3.16291 2.44541 0
M  V30 4067 H 364.619 -3.88494 1.69847 0
M  V30 4068 C 363.078 -3.3547 0.310026 0
M  V30 4069 O 363.608 -3.97199 -0.599683 0
M  V30 4070 N 361.814 -2.89925 0.197901 0
M  V30 4071 H 361.361 -2.39873 0.93909 0
M  V30 4072 H 361.319 -3.07568 -0.65185 0
M  V30 4073 N 365.091 -1.34144 -0.827227 0
M  V30 4074 C 366.038 -1.25364 -1.93785 0
M  V30 4075 C 367.008 -0.129774 -1.65592 0
M  V30 4076 O 368.193 -0.310024 -1.88264 0
M  V30 4077 C 365.333 -1.01064 -3.2997 0
M  V30 4078 C 364.446 -2.22185 -3.70484 0
M  V30 4079 C 363.581 -1.91203 -4.95595 0
M  V30 4080 C 362.62 -3.08491 -5.28677 0
M  V30 4081 N 361.757 -2.77421 -6.44967 0
M  V30 4082 H 366.597 -2.20347 -2.00627 0
M  V30 4083 H 364.134 -1.09558 -0.981608 0
M  V30 4084 H 366.092 -0.850139 -4.08446 0
M  V30 4085 H 364.722 -0.0975026 -3.22653 0
M  V30 4086 H 363.774 -2.4917 -2.87434 0
M  V30 4087 H 365.086 -3.0983 -3.90905 0
M  V30 4088 H 364.24 -1.71864 -5.81848 0
M  V30 4089 H 362.979 -1.00812 -4.77167 0
M  V30 4090 H 361.984 -3.28431 -4.40923 0
M  V30 4091 H 363.209 -3.99655 -5.49047 0
M  V30 4092 H 361.155 -1.89601 -6.28003 0
M  V30 4093 H 361.072 -3.58598 -6.6554 0
M  V30 4094 H 362.34 -2.61577 -7.34301 0
M  V30 4095 N 366.569 1.04691 -1.17803 0
M  V30 4096 C 367.502 2.12068 -0.842765 0
M  V30 4097 C 368.48 1.61455 0.192608 0
M  V30 4098 O 369.664 1.88359 0.072995 0
M  V30 4099 C 366.791 3.37715 -0.258063 0
M  V30 4100 C 365.837 4.07164 -1.26962 0
M  V30 4101 S 366.67 4.55047 -2.82299 0
M  V30 4102 C 367.826 5.83935 -2.25323 0
M  V30 4103 H 368.059 2.4018 -1.75217 0
M  V30 4104 H 365.592 1.17366 -1.00323 0
M  V30 4105 H 367.55 4.10435 0.0727935 0
M  V30 4106 H 366.211 3.0773 0.629357 0
M  V30 4107 H 365.404 4.9746 -0.809263 0
M  V30 4108 H 365.006 3.40533 -1.54639 0
M  V30 4109 H 367.298 6.57552 -1.63192 0
M  V30 4110 H 368.241 6.34725 -3.13894 0
M  V30 4111 H 368.649 5.3874 -1.68582 0
M  V30 4112 N 368.047 0.979072 1.23499 0
M  V30 4113 C 369.293 0.648178 1.92163 0
M  V30 4114 C 369.626 -0.816049 1.76222 0
M  V30 4115 O 368.901 -1.58849 1.12237 0
M  V30 4116 C 369.184 1.03773 3.44824 0
M  V30 4117 C 369.037 2.55948 3.69879 0
M  V30 4118 C 370.356 0.580653 4.36253 0
M  V30 4119 H 367.475 0.236952 0.69787 0
M  V30 4120 H 370.117 1.22012 1.45647 0
M  V30 4121 H 368.267 0.551058 3.84572 0
M  V30 4122 H 369.939 3.12179 3.3962 0
M  V30 4123 H 368.182 2.98641 3.14636 0
M  V30 4124 H 368.853 2.78255 4.76737 0
M  V30 4125 H 371.329 0.998465 4.03943 0
M  V30 4126 H 370.205 0.881663 5.41773 0
M  V30 4127 H 370.466 -0.519052 4.39042 0
M  V30 4128 N 369.525 -1.3858 0.750561 0
M  V30 4129 C 370.802 -1.94231 0.231009 0
M  V30 4130 C 371.182 -1.68611 -1.27018 0
M  V30 4131 O 370.53 -1.02296 -2.04323 0
M  V30 4132 C 370.74 -3.44123 0.581428 0
M  V30 4133 C 372.088 -4.2116 0.539389 0
M  V30 4134 O 373.112 -3.52391 0.519541 0
M  V30 4135 O 371.971 -5.43749 0.54765 0
M  V30 4136 H 369.065 -0.825639 0.0474263 0
M  V30 4137 H 371.611 -1.4799 0.830478 0
M  V30 4138 H 370.383 -3.56267 1.61833 0
M  V30 4139 H 370.006 -3.97573 -0.0462047 0
M  V30 4140 N 371.003 -0.499398 -1.49478 0
M  V30 4141 C 372.228 0.044722 -2.07352 0
M  V30 4142 C 372.653 1.30207 -1.35749 0
M  V30 4143 O 372.011 1.76516 -0.413732 0
M  V30 4144 C 372.059 0.283013 -3.59488 0
M  V30 4145 O 371.163 1.35804 -3.89398 0
M  V30 4146 H 370.504 -0.0255147 -0.66351 0
M  V30 4147 H 373.034 -0.698561 -1.92305 0
M  V30 4148 H 373.044 0.515007 -4.04737 0
M  V30 4149 H 371.719 -0.635636 -4.11014 0
M  V30 4150 H 370.296 1.11113 -3.55961 0
M  V30 4151 N 372.481 1.55866 -0.233164 0
M  V30 4152 C 373.428 2.20796 0.67215 0
M  V30 4153 C 374.398 1.16731 1.18166 0
M  V30 4154 O 375.583 1.45129 1.23864 0
M  V30 4155 C 372.723 2.90072 1.86955 0
M  V30 4156 C 371.836 4.08759 1.39786 0
M  V30 4157 C 370.971 4.65787 2.55374 0
M  V30 4158 C 370.01 5.76752 2.04998 0
M  V30 4159 N 369.147 6.28021 3.13901 0
M  V30 4160 H 373.987 2.9779 0.111749 0
M  V30 4161 H 371.524 1.47036 0.0434007 0
M  V30 4162 H 373.482 3.28428 2.57276 0
M  V30 4163 H 372.112 2.15575 2.40265 0
M  V30 4164 H 371.164 3.7581 0.589173 0
M  V30 4165 H 372.476 4.88906 0.98856 0
M  V30 4166 H 371.63 5.06646 3.33758 0
M  V30 4167 H 370.369 3.84828 2.99598 0
M  V30 4168 H 369.374 5.35383 1.25079 0
M  V30 4169 H 370.599 6.59553 1.61759 0
M  V30 4170 H 368.545 5.49971 3.57586 0
M  V30 4171 H 368.462 7.03323 2.7726 0
M  V30 4172 H 369.73 6.73538 3.92386 0
M  V30 4173 N 373.959 -0.0401083 1.57549 0
M  V30 4174 C 375.236 -0.767917 1.79896 0
M  V30 4175 C 375.616 -1.9416 0.82856 0
M  V30 4176 O 374.964 -2.2812 -0.131671 0
M  V30 4177 C 375.174 -1.2113 3.27305 0
M  V30 4178 C 376.522 -1.63175 3.91994 0
M  V30 4179 O 377.546 -1.30616 3.31388 0
M  V30 4180 O 376.405 -2.23565 4.98679 0
M  V30 4181 H 373.499 -0.370441 0.739393 0
M  V30 4182 H 376.045 -0.017737 1.69691 0
M  V30 4183 H 374.817 -0.372937 3.89519 0
M  V30 4184 H 374.44 -2.02183 3.42356 0
M  V30 4185 N 375.437 -1.54477 -0.31217 0
M  V30 4186 C 376.683 -1.73483 -1.0503 0
M  V30 4187 C 377.016 -0.513125 -1.87298 0
M  V30 4188 O 376.291 0.489864 -1.8823 0
M  V30 4189 C 376.574 -3.01723 -1.96558 0
M  V30 4190 C 376.427 -4.3417 -1.17545 0
M  V30 4191 C 377.746 -3.25772 -2.95907 0
M  V30 4192 H 374.865 -0.631222 -0.380432 0
M  V30 4193 H 377.507 -1.87184 -0.325932 0
M  V30 4194 H 375.657 -2.90174 -2.58324 0
M  V30 4195 H 377.329 -4.5762 -0.581513 0
M  V30 4196 H 375.572 -4.31159 -0.477925 0
M  V30 4197 H 376.243 -5.20143 -1.84811 0
M  V30 4198 H 378.719 -3.36857 -2.44267 0
M  V30 4199 H 377.595 -4.16838 -3.57123 0
M  V30 4200 H 377.856 -2.43537 -3.68974 0
M  V30 4201 N 376.915 0.57481 -1.46744 0
M  V30 4202 C 377.862 1.68329 -1.57905 0
M  V30 4203 C 378.832 1.60625 -0.422927 0
M  V30 4204 O 380.017 1.79721 -0.640711 0
M  V30 4205 C 377.157 3.06665 -1.58274 0
M  V30 4206 C 376.27 3.24935 -2.84678 0
M  V30 4207 C 375.405 4.53566 -2.76499 0
M  V30 4208 C 374.444 4.65207 -3.97806 0
M  V30 4209 N 373.581 5.85172 -3.87967 0
M  V30 4210 H 378.421 1.58127 -2.52587 0
M  V30 4211 H 375.958 0.770552 -1.25303 0
M  V30 4212 H 377.916 3.86745 -1.56473 0
M  V30 4213 H 376.546 3.15745 -0.671194 0
M  V30 4214 H 375.598 2.38405 -2.96424 0
M  V30 4215 H 376.91 3.29403 -3.7456 0
M  V30 4216 H 376.064 5.41885 -2.72848 0
M  V30 4217 H 374.803 4.51548 -1.8427 0
M  V30 4218 H 373.808 3.75304 -4.0178 0
M  V30 4219 H 375.033 4.68997 -4.9114 0
M  V30 4220 H 372.979 5.84137 -2.98529 0
M  V30 4221 H 372.896 5.90943 -4.71511 0
M  V30 4222 H 374.164 6.759 -3.88303 0
M  V30 4223 N 378.394 1.34581 0.820102 0
M  V30 4224 C 379.643 1.26437 1.57151 0
M  V30 4225 C 379.956 -0.163111 1.94919 0
M  V30 4226 O 381.162 -0.366722 2.69012 0
M  V30 4227 C 379.618 2.21658 2.83541 0
M  V30 4228 C 379.226 3.69679 2.53065 0
M  V30 4229 C 380.97 2.22428 3.61561 0
M  V30 4230 C 378.877 4.56761 3.75664 0
M  V30 4231 H 377.807 0.469707 0.589823 0
M  V30 4232 H 380.458 1.59763 0.902656 0
M  V30 4233 H 378.84 1.81287 3.52067 0
M  V30 4234 H 380.014 4.18605 1.92631 0
M  V30 4235 H 378.329 3.71384 1.88316 0
M  V30 4236 H 380.926 2.8471 4.52597 0
M  V30 4237 H 381.269 1.22434 3.97889 0
M  V30 4238 H 381.802 2.61259 2.99981 0
M  V30 4239 H 378.541 5.57702 3.44454 0
M  V30 4240 H 378.061 4.12568 4.35371 0
M  V30 4241 H 379.74 4.71509 4.43044 0
M  V30 4242 N 379.872 -1.04064 1.18357 0
M  V30 4243 C 380.782 -2.15569 0.925596 0
M  V30 4244 C 381.798 -1.7365 -0.110295 0
M  V30 4245 O 382.974 -2.01273 0.0716218 0
M  V30 4246 C 380.039 -3.43704 0.454836 0
M  V30 4247 C 379.1 -4.00004 1.55869 0
M  V30 4248 C 378.333 -5.22023 1.1103 0
M  V30 4249 O 378.556 -5.70392 -0.0309756 0
M  V30 4250 O 377.49 -5.70856 1.90805 0
M  V30 4251 H 381.316 -2.40187 1.8586 0
M  V30 4252 H 378.901 -1.1402 0.965394 0
M  V30 4253 H 380.783 -4.20923 0.200382 0
M  V30 4254 H 379.458 -3.20559 -0.449876 0
M  V30 4255 H 378.365 -3.24172 1.86716 0
M  V30 4256 H 379.698 -4.2749 2.43953 0
M  V30 4257 N 381.35 -0.985608 -1.22978 0
M  V30 4258 C 382.596 -0.65836 -1.91816 0
M  V30 4259 C 382.929 0.806692 -1.76653 0
M  V30 4260 O 382.204 1.58252 -1.13078 0
M  V30 4261 C 382.487 -1.056 -3.44268 0
M  V30 4262 C 382.34 -2.57906 -3.68516 0
M  V30 4263 C 383.659 -0.603781 -4.35939 0
M  V30 4264 H 380.778 -0.24065 -0.696604 0
M  V30 4265 H 383.42 -1.22783 -1.44998 0
M  V30 4266 H 381.57 -0.571445 -3.84274 0
M  V30 4267 H 383.242 -3.13976 -3.3796 0
M  V30 4268 H 381.485 -3.00305 -3.13048 0
M  V30 4269 H 382.156 -2.80779 -4.75255 0
M  V30 4270 H 384.632 -1.01987 -4.03408 0
M  V30 4271 H 383.508 -0.910383 -5.41298 0
M  V30 4272 H 383.769 0.495761 -4.39312 0
M  V30 4273 N 382.828 1.3818 -0.7579 0
M  V30 4274 C 384.058 2.04004 -0.326463 0
M  V30 4275 C 384.466 1.57286 1.05156 0
M  V30 4276 O 383.809 0.743144 1.67997 0
M  V30 4277 C 383.871 3.58444 -0.275402 0
M  V30 4278 C 383.535 4.28237 -1.59569 0
M  V30 4279 C 384.532 4.53312 -2.54566 0
M  V30 4280 C 382.217 4.66341 -1.86631 0
M  V30 4281 C 384.211 5.15531 -3.74842 0
M  V30 4282 C 381.898 5.28283 -3.0718 0
M  V30 4283 C 382.896 5.52814 -4.01106 0
M  V30 4284 O 382.584 6.13465 -5.19534 0
M  V30 4285 H 382.316 0.662026 -0.136739 0
M  V30 4286 H 384.87 1.7777 -1.02893 0
M  V30 4287 H 383.1 3.83667 0.483337 0
M  V30 4288 H 384.789 4.05701 0.127099 0
M  V30 4289 H 385.555 4.24299 -2.34936 0
M  V30 4290 H 381.434 4.46591 -1.14358 0
M  V30 4291 H 384.978 5.34594 -4.48168 0
M  V30 4292 H 380.875 5.56719 -3.26702 0
M  V30 4293 H 381.643 6.31951 -5.20173 0
M  V30 4294 N 384.306 0.507319 1.49211 0
M  V30 4295 C 385.236 -0.256939 2.32082 0
M  V30 4296 C 386.217 -0.956609 1.40652 0
M  V30 4297 O 387.402 -0.946788 1.69557 0
M  V30 4298 C 384.532 -1.31802 3.21318 0
M  V30 4299 C 383.486 -0.737855 4.21592 0
M  V30 4300 C 382.812 -1.89992 4.99807 0
M  V30 4301 C 384.112 0.275325 5.21574 0
M  V30 4302 H 385.806 0.434798 2.96226 0
M  V30 4303 H 383.352 0.210546 1.42452 0
M  V30 4304 H 385.305 -1.86045 3.78107 0
M  V30 4305 H 384.029 -2.03903 2.5513 0
M  V30 4306 H 382.688 -0.217126 3.65956 0
M  V30 4307 H 382.336 -2.60877 4.30061 0
M  V30 4308 H 382.036 -1.51777 5.6766 0
M  V30 4309 H 383.56 -2.44657 5.59442 0
M  V30 4310 H 384.974 -0.179193 5.7302 0
M  V30 4311 H 383.371 0.573649 5.97352 0
M  V30 4312 H 384.441 1.18903 4.70096 0
M  V30 4313 N 385.784 -1.5574 0.241426 0
M  V30 4314 C 387.012 -2.03208 -0.389134 0
M  V30 4315 C 387.427 -1.12082 -1.51931 0
M  V30 4316 O 386.784 -0.134183 -1.82006 0
M  V30 4317 C 386.835 -3.50064 -0.902087 0
M  V30 4318 O 386.556 -4.37717 0.18305 0
M  V30 4319 C 388.057 -4.13268 -1.60389 0
M  V30 4320 H 385.277 -0.664509 -0.0931053 0
M  V30 4321 H 387.821 -2.0124 0.36369 0
M  V30 4322 H 385.976 -3.52583 -1.60511 0
M  V30 4323 H 386.39 -5.24097 -0.205579 0
M  V30 4324 H 387.864 -5.17733 -1.91458 0
M  V30 4325 H 388.341 -3.59434 -2.52397 0
M  V30 4326 H 388.947 -4.14655 -0.945576 0
M  V30 4327 N 387.262 0.0317525 -1.57568 0
M  V30 4328 C 388.49 0.734949 -1.93407 0
M  V30 4329 C 388.905 1.69036 -0.84096 0
M  V30 4330 O 388.262 1.81582 0.182836 0
M  V30 4331 C 388.313 1.49432 -3.29169 0
M  V30 4332 O 388.034 0.577261 -4.3428 0
M  V30 4333 C 389.535 2.29492 -3.79273 0
M  V30 4334 H 386.755 0.206706 -0.638368 0
M  V30 4335 H 389.299 -0.00992046 -2.04498 0
M  V30 4336 H 387.454 2.1911 -3.19483 0
M  V30 4337 H 387.868 1.10952 -5.1263 0
M  V30 4338 H 389.342 2.78172 -4.76785 0
M  V30 4339 H 389.819 3.10794 -3.10328 0
M  V30 4340 H 390.425 1.64894 -3.92033 0
M  V30 4341 N 388.74 1.54641 0.303973 0
M  V30 4342 C 389.687 1.85386 1.37479 0
M  V30 4343 C 390.657 0.702528 1.50512 0
M  V30 4344 O 391.842 0.950867 1.65418 0
M  V30 4345 C 388.982 2.10413 2.73533 0
M  V30 4346 C 388.095 3.38049 2.68974 0
M  V30 4347 C 387.23 3.52934 3.97002 0
M  V30 4348 C 386.269 4.74373 3.86829 0
M  V30 4349 N 385.406 4.8608 5.06627 0
M  V30 4350 H 390.246 2.76732 1.1056 0
M  V30 4351 H 387.783 1.37034 0.534805 0
M  V30 4352 H 389.741 2.22919 3.52652 0
M  V30 4353 H 388.371 1.22338 2.98719 0
M  V30 4354 H 387.423 3.3418 1.81736 0
M  V30 4355 H 388.735 4.27288 2.57346 0
M  V30 4356 H 387.889 3.65088 4.84557 0
M  V30 4357 H 386.628 2.61824 4.1146 0
M  V30 4358 H 385.633 4.62255 2.97658 0
M  V30 4359 H 386.858 5.66888 3.73918 0
M  V30 4360 H 384.804 3.97891 5.21554 0
M  V30 4361 H 384.721 5.69315 4.9741 0
M  V30 4362 H 385.989 5.02587 5.95841 0
M  V30 4363 N 390.218 -0.567019 1.47046 0
M  V30 4364 C 391.165 -1.67489 1.58796 0
M  V30 4365 C 392.135 -1.60399 0.43144 0
M  V30 4366 O 393.32 -1.79378 0.650233 0
M  V30 4367 C 390.46 -3.05821 1.59899 0
M  V30 4368 C 389.573 -3.2342 2.86397 0
M  V30 4369 C 388.708 -4.52093 2.789 0
M  V30 4370 C 387.747 -4.6309 4.00267 0
M  V30 4371 N 386.884 -5.83106 3.91064 0
M  V30 4372 H 391.724 -1.56785 2.53422 0
M  V30 4373 H 389.261 -0.763896 1.2571 0
M  V30 4374 H 391.219 -3.8591 1.58522 0
M  V30 4375 H 389.849 -3.15384 0.687929 0
M  V30 4376 H 388.901 -2.3683 2.97684 0
M  V30 4377 H 390.213 -3.27412 3.76301 0
M  V30 4378 H 389.367 -5.4043 2.75718 0
M  V30 4379 H 388.106 -4.50565 1.86662 0
M  V30 4380 H 387.111 -3.73168 4.03765 0
M  V30 4381 H 388.336 -4.66386 4.93621 0
M  V30 4382 H 386.282 -5.82546 3.01623 0
M  V30 4383 H 386.199 -5.88434 4.74638 0
M  V30 4384 H 387.467 -6.73831 3.91882 0
M  V30 4385 N 391.696 -1.35014 -0.812953 0
M  V30 4386 C 392.643 -1.27412 -1.92444 0
M  V30 4387 C 393.613 -0.14733 -1.65445 0
M  V30 4388 O 394.798 -0.329974 -1.87925 0
M  V30 4389 C 391.938 -1.04558 -3.28879 0
M  V30 4390 C 391.051 -2.26101 -3.68106 0
M  V30 4391 C 390.186 -1.96449 -4.9354 0
M  V30 4392 C 389.225 -3.14081 -5.25376 0
M  V30 4393 N 388.362 -2.84246 -6.41988 0
M  V30 4394 H 393.202 -2.22463 -1.98278 0
M  V30 4395 H 390.739 -1.10593 -0.969933 0
M  V30 4396 H 392.697 -0.893413 -4.07522 0
M  V30 4397 H 391.327 -0.131719 -3.22531 0
M  V30 4398 H 390.379 -2.52204 -2.84775 0
M  V30 4399 H 391.691 -3.13959 -3.87597 0
M  V30 4400 H 390.845 -1.78026 -5.79993 0
M  V30 4401 H 389.584 -1.05867 -4.76071 0
M  V30 4402 H 388.589 -3.33089 -4.37415 0
M  V30 4403 H 389.814 -4.05455 -5.44778 0
M  V30 4404 H 387.76 -1.96252 -6.25956 0
M  V30 4405 H 387.677 -3.65637 -6.61699 0
M  V30 4406 H 388.945 -2.6935 -7.31485 0
M  V30 4407 O 393.213 0.951708 -1.30479 0
M  V30 4408 H 393.904 1.58029 -1.12012 0
M  V30 END ATOM
M  V30 BEGIN BOND
M  V30 END BOND
M  V30 END CTAB
M  END
$$$$
