drugbank_target|P11216 Glycogen phosphorylase, brain form (DB00114; DB03496)
 OpenBabel12092120063D

  0  0  0     0  0            999 V3000
M  V30 BEGIN CTAB
M  V30 COUNTS 13599 13756 0 0 0
M  V30 BEGIN ATOM
M  V30 1 H -0.908 1.98254 -0.117106 0
M  V30 2 N 0 1.576 0 0
M  V30 3 C 0.933 2.03868 1.02534 0
M  V30 4 C 1.911 0.928543 1.3348 0
M  V30 5 O 3.095 1.19667 1.45644 0
M  V30 6 C 0.222 2.43627 2.35294 0
M  V30 7 C -0.732 3.65373 2.2001 0
M  V30 8 S 0.101 5.13292 1.52614 0
M  V30 9 C 1.257 5.56322 2.86805 0
M  V30 10 H 1.49 2.90518 0.631377 0
M  V30 11 H -0.977 1.52953 0.210867 0
M  V30 12 H 0.981 2.67203 3.11629 0
M  V30 13 H -0.358 1.57376 2.7183 0
M  V30 14 H -1.165 3.90944 3.18086 0
M  V30 15 H -1.563 3.418 1.51819 0
M  V30 16 H 0.729 5.58782 3.83104 0
M  V30 17 H 1.672 6.56266 2.65933 0
M  V30 18 H 2.08 4.83886 2.90714 0
M  V30 19 N 1.4781 -0.272755 1.55222 0
M  V30 20 C 2.4411 -1.32041 1.87344 0
M  V30 21 C 3.4411 -1.42342 0.74803 0
M  V30 22 O 4.6311 -1.41488 1.0162 0
M  V30 23 C 1.7631 -2.70173 2.07893 0
M  V30 24 H 2.9561 -1.04789 2.80997 0
M  V30 25 H 0.5091 -0.51083 1.47717 0
M  V30 26 H 1.2441 -3.02605 1.16622 0
M  V30 27 H 1.0291 -2.64082 2.89833 0
M  V30 28 H 2.5191 -3.45869 2.34017 0
M  V30 29 N 2.9562 -1.48159 -0.537278 0
M  V30 30 C 3.9032 -1.62138 -1.64256 0
M  V30 31 C 4.8732 -0.463668 -1.59497 0
M  V30 32 O 6.0582 -0.686241 -1.78032 0
M  V30 33 C 3.1982 -1.66028 -3.02537 0
M  V30 34 C 2.3112 -2.92855 -3.17585 0
M  V30 35 C 1.4462 -2.87952 -4.46382 0
M  V30 36 C 0.4852 -4.09516 -4.54932 0
M  V30 37 N -0.3778 -4.02733 -5.75109 0
M  V30 38 H 4.4622 -2.56529 -1.51647 0
M  V30 39 H 1.9992 -1.27224 -0.738414 0
M  V30 40 H 3.9572 -1.66265 -3.82638 0
M  V30 41 H 2.5872 -0.751331 -3.13934 0
M  V30 42 H 1.6392 -3.02395 -2.30784 0
M  V30 43 H 2.9512 -3.82822 -3.19764 0
M  V30 44 H 2.1052 -2.8655 -5.34765 0
M  V30 45 H 0.8442 -1.95702 -4.46712 0
M  V30 46 H -0.1508 -4.11201 -3.64957 0
M  V30 47 H 1.0742 -5.02917 -4.56346 0
M  V30 48 H -0.9798 -3.13299 -5.76351 0
M  V30 49 H -1.0628 -4.86397 -5.78752 0
M  V30 50 H 0.2052 -4.05379 -6.65799 0
M  V30 51 N 4.4343 0.785586 -1.36625 0
M  V30 52 C 5.8453 1.36101 -1.27803 0
M  V30 53 C 6.1963 1.96035 0.0804875 0
M  V30 54 O 5.3213 1.92834 0.982042 0
M  V30 55 C 5.9163 2.47442 -2.31426 0
M  V30 56 C 4.4753 3.00789 -2.26281 0
M  V30 57 C 3.6223 1.73896 -2.15999 0
M  V30 58 H 6.5733 0.586928 -1.47448 0
M  V30 59 H 6.5943 3.2656 -1.95291 0
M  V30 60 H 6.1063 2.03791 -3.30289 0
M  V30 61 H 4.2073 3.48851 -1.30896 0
M  V30 62 H 4.3203 3.57343 -3.19128 0
M  V30 63 H 2.6843 1.9628 -1.62316 0
M  V30 64 H 3.4673 1.32368 -3.16755 0
M  V30 65 N 5.9124 1.20967 1.01018 0
M  V30 66 C 6.8424 0.988272 2.11555 0
M  V30 67 C 7.8234 -0.0849778 1.69888 0
M  V30 68 O 9.0084 0.0738202 1.9406 0
M  V30 69 C 6.1384 0.546528 3.42973 0
M  V30 70 C 5.0924 1.56375 3.9841 0
M  V30 71 C 4.4184 0.97842 5.25672 0
M  V30 72 C 5.7184 2.94922 4.31066 0
M  V30 73 H 7.4124 1.91276 2.30334 0
M  V30 74 H 4.9584 0.921073 1.1069 0
M  V30 75 H 6.9114 0.378839 4.19694 0
M  V30 76 H 5.6354 -0.413598 3.23971 0
M  V30 77 H 4.2944 1.71891 3.23804 0
M  V30 78 H 3.9424 0.0101688 5.02999 0
M  V30 79 H 3.6424 1.65784 5.63728 0
M  V30 80 H 5.1664 0.821939 6.05043 0
M  V30 81 H 6.5804 2.8288 4.9865 0
M  V30 82 H 4.9774 3.5983 4.80253 0
M  V30 83 H 6.0474 3.4616 3.39561 0
M  V30 84 N 7.3905 -1.2043 1.01659 0
M  V30 85 C 8.6185 -1.93777 0.725132 0
M  V30 86 C 9.0335 -1.74772 -0.714166 0
M  V30 87 O 8.3905 -1.06169 -1.4844 0
M  V30 88 C 8.4415 -3.45876 1.05129 0
M  V30 89 O 8.1625 -3.6426 2.43406 0
M  V30 90 C 9.6635 -4.36368 0.780891 0
M  V30 91 H 6.8835 -0.615901 0.266284 0
M  V30 92 H 9.4275 -1.52922 1.35776 0
M  V30 93 H 7.5825 -3.8461 0.464065 0
M  V30 94 H 7.9965 -4.58246 2.55169 0
M  V30 95 H 9.4705 -5.41743 1.05918 0
M  V30 96 H 9.9475 -4.38275 -0.284937 0
M  V30 97 H 10.5535 -4.03296 1.35027 0
M  V30 98 N 8.8686 -0.792821 -1.36206 0
M  V30 99 C 10.1456 -0.290627 -1.93429 0
M  V30 100 C 10.5256 1.21773 -1.72437 0
M  V30 101 O 9.8736 2.0108 -1.08531 0
M  V30 102 C 10.0836 -0.686973 -3.42172 0
M  V30 103 C 11.4316 -0.668643 -4.19302 0
M  V30 104 O 12.4556 -0.627658 -3.50626 0
M  V30 105 O 11.3146 -0.714597 -5.41808 0
M  V30 106 H 8.4086 -0.0727927 -0.82379 0
M  V30 107 H 10.9546 -0.875593 -1.45367 0
M  V30 108 H 9.7266 -1.72711 -3.51122 0
M  V30 109 H 9.3496 -0.0760733 -3.97527 0
M  V30 110 N 10.3467 1.47872 -0.545128 0
M  V30 111 C 11.5717 2.07391 -0.0190611 0
M  V30 112 C 11.9967 1.39688 1.25971 0
M  V30 113 O 11.3547 0.467816 1.7516 0
M  V30 114 C 11.4027 3.60188 0.172335 0
M  V30 115 O 10.5067 3.9339 1.23766 0
M  V30 116 H 9.8477 0.662411 -0.0459059 0
M  V30 117 H 12.3777 1.90066 -0.757365 0
M  V30 118 H 12.3877 4.06129 0.390305 0
M  V30 119 H 11.0627 4.08865 -0.761725 0
M  V30 120 H 9.6397 3.5921 1.00114 0
M  V30 121 N 11.8248 0.280983 1.55075 0
M  V30 122 C 12.7348 -0.61388 2.26426 0
M  V30 123 C 13.7508 -1.16521 1.29224 0
M  V30 124 O 14.9268 -1.19426 1.62171 0
M  V30 125 C 11.9918 -1.7788 2.9759 0
M  V30 126 C 11.0528 -1.26355 4.10284 0
M  V30 127 C 10.2858 -2.37295 4.78045 0
M  V30 128 O 10.5088 -3.56777 4.45047 0
M  V30 129 O 9.4428 -2.05119 5.65871 0
M  V30 130 H 13.2688 -0.0356932 3.03679 0
M  V30 131 H 10.8538 0.0481686 1.49322 0
M  V30 132 H 12.7358 -2.45791 3.42293 0
M  V30 133 H 11.4108 -2.34397 2.23249 0
M  V30 134 H 10.3178 -0.550735 3.70024 0
M  V30 135 H 11.6508 -0.744065 4.86543 0
M  V30 136 N 13.3029 -1.57598 0.00835791 0
M  V30 137 C 14.2499 -2.08945 -0.980346 0
M  V30 138 C 15.2199 -0.986738 -1.33614 0
M  V30 139 O 16.4049 -1.25968 -1.43306 0
M  V30 140 C 13.5449 -2.60425 -2.26435 0
M  V30 141 C 12.6579 -3.84628 -1.96685 0
M  V30 142 C 11.7929 -4.24579 -3.19228 0
M  V30 143 C 10.8319 -5.41596 -2.85202 0
M  V30 144 N 9.9689 -5.768 -4.00307 0
M  V30 145 H 14.8089 -2.93148 -0.535551 0
M  V30 146 H 12.3459 -1.44912 -0.252776 0
M  V30 147 H 14.3039 -2.88354 -3.01509 0
M  V30 148 H 12.9339 -1.79083 -2.68568 0
M  V30 149 H 11.9859 -3.63556 -1.11942 0
M  V30 150 H 13.2979 -4.69796 -1.67611 0
M  V30 151 H 12.4519 -4.53834 -4.02641 0
M  V30 152 H 11.1909 -3.38137 -3.51447 0
M  V30 153 H 10.1959 -5.12056 -2.00198 0
M  V30 154 H 11.4209 -6.29721 -2.54222 0
M  V30 155 H 9.3669 -4.93316 -4.32407 0
M  V30 156 H 9.2839 -6.5656 -3.74786 0
M  V30 157 H 10.5519 -6.10652 -4.84484 0
M  V30 158 N 14.781 0.264519 -1.55364 0
M  V30 159 C 16.197 0.61215 -1.47394 0
M  V30 160 C 16.397 1.89134 -0.695018 0
M  V30 161 O 15.453 2.51563 -0.217275 0
M  V30 162 C 16.766 0.731235 -2.91674 0
M  V30 163 C 18.314 0.82473 -3.01939 0
M  V30 164 C 18.789 0.975522 -4.4749 0
M  V30 165 N 20.28 1.04083 -4.51354 0
M  V30 166 C 21.015 1.17646 -5.61201 0
M  V30 167 N 20.511 1.27874 -6.80896 0
M  V30 168 N 22.304 1.20823 -5.48961 0
M  V30 169 H 14.455 -0.575456 -2.04456 0
M  V30 170 H 16.718 -0.196099 -0.927496 0
M  V30 171 H 16.424 -0.138392 -3.51428 0
M  V30 172 H 16.298 1.60883 -3.41169 0
M  V30 173 H 18.685 1.68482 -2.42276 0
M  V30 174 H 18.766 -0.0776479 -2.55682 0
M  V30 175 H 18.41 0.120058 -5.07758 0
M  V30 176 H 18.34 1.89268 -4.91412 0
M  V30 177 H 20.831 0.973846 -3.65136 0
M  V30 178 H 21.144 1.38081 -7.60364 0
M  V30 179 H 19.489 1.24863 -6.83692 0
M  V30 180 H 22.68 1.12469 -4.54388 0
M  V30 181 H 22.853 1.31049 -6.3461 0
M  V30 182 N 16.2591 1.48442 0.529413 0
M  V30 183 C 17.2061 1.63007 1.63394 0
M  V30 184 C 18.1761 0.47212 1.59249 0
M  V30 185 O 19.3611 0.695673 1.77666 0
M  V30 186 C 16.5011 1.6763 3.01653 0
M  V30 187 C 15.6141 2.94535 3.16027 0
M  V30 188 C 14.7491 2.90316 4.44849 0
M  V30 189 C 13.7881 4.11923 4.52754 0
M  V30 190 N 12.9251 4.05777 5.72965 0
M  V30 191 H 17.7651 2.5733 1.50285 0
M  V30 192 H 15.3021 1.27613 0.731656 0
M  V30 193 H 17.2601 1.68292 3.81751 0
M  V30 194 H 15.8901 0.76797 3.13532 0
M  V30 195 H 14.9421 3.03615 2.29177 0
M  V30 196 H 16.2541 3.84512 3.17729 0
M  V30 197 H 15.4081 2.89382 5.33238 0
M  V30 198 H 14.1471 1.98068 4.45668 0
M  V30 199 H 13.1521 4.13131 3.62771 0
M  V30 200 H 14.3771 5.0533 4.53672 0
M  V30 201 H 12.3231 3.16351 5.74681 0
M  V30 202 H 12.2401 4.8946 5.76164 0
M  V30 203 H 13.5081 4.08904 6.6364 0
M  V30 204 N 17.7372 -0.778329 1.37039 0
M  V30 205 C 18.6692 -1.90034 1.2814 0
M  V30 206 C 19.6822 -1.61585 0.198558 0
M  V30 207 O 20.8712 -1.72625 0.454175 0
M  V30 208 C 17.9712 -3.25108 0.956968 0
M  V30 209 C 17.1442 -3.81253 2.14394 0
M  V30 210 C 16.2032 -4.94789 1.79082 0
M  V30 211 O 15.2292 -5.10721 2.51301 0
M  V30 212 N 16.4312 -5.75878 0.731043 0
M  V30 213 H 19.1962 -1.98186 2.24816 0
M  V30 214 H 16.7572 -0.957129 1.30578 0
M  V30 215 H 18.7492 -3.9857 0.701701 0
M  V30 216 H 17.3192 -3.125 0.0789812 0
M  V30 217 H 16.5392 -2.99647 2.56135 0
M  V30 218 H 17.8272 -4.15495 2.93668 0
M  V30 219 H 17.2252 -5.65547 0.131618 0
M  V30 220 H 15.7822 -6.49596 0.535622 0
M  V30 221 N 19.2153 -1.21501 -1.00376 0
M  V30 222 C 20.4643 -1.02718 -1.73586 0
M  V30 223 C 20.7773 0.439589 -1.90596 0
M  V30 224 O 21.9833 0.746848 -2.61026 0
M  V30 225 C 20.4393 -1.78929 -3.1227 0
M  V30 226 C 20.0473 -3.29783 -3.03228 0
M  V30 227 C 21.7913 -1.68557 -3.89601 0
M  V30 228 C 19.6983 -3.98479 -4.36999 0
M  V30 229 H 18.6283 -0.380733 -0.650814 0
M  V30 230 H 21.2793 -1.45248 -1.1214 0
M  V30 231 H 19.6613 -1.29192 -3.74333 0
M  V30 232 H 20.8353 -3.86832 -2.50395 0
M  V30 233 H 19.1503 -3.40711 -2.39385 0
M  V30 234 H 21.7473 -2.17211 -4.88593 0
M  V30 235 H 22.0903 -0.644021 -4.11288 0
M  V30 236 H 22.6233 -2.15778 -3.34193 0
M  V30 237 H 19.3623 -5.02841 -4.20513 0
M  V30 238 H 18.8823 -3.46219 -4.89788 0
M  V30 239 H 20.5613 -4.03462 -5.05794 0
M  V30 240 N 20.6934 1.19889 -1.02296 0
M  V30 241 C 21.9184 1.9393 -0.735237 0
M  V30 242 C 22.3434 1.74639 0.698782 0
M  V30 243 O 21.7014 1.04481 1.48167 0
M  V30 244 C 21.7494 3.43916 -1.08417 0
M  V30 245 O 20.8534 4.11917 -0.199446 0
M  V30 246 H 20.1944 0.605645 -0.272196 0
M  V30 247 H 22.7244 1.52137 -1.36804 0
M  V30 248 H 22.7344 3.9456 -1.03856 0
M  V30 249 H 21.4094 3.5728 -2.12894 0
M  V30 250 H 19.9864 3.71666 -0.303136 0
M  V30 251 N 22.1715 0.800033 1.35784 0
M  V30 252 C 23.4175 0.377901 1.99248 0
M  V30 253 C 23.7505 -1.05052 1.63333 0
M  V30 254 O 23.0255 -1.72768 0.893385 0
M  V30 255 C 23.3085 0.553922 3.55814 0
M  V30 256 C 23.1615 2.0268 4.01548 0
M  V30 257 C 24.4805 -0.0244802 4.40093 0
M  V30 258 H 21.5995 0.138782 0.723815 0
M  V30 259 H 24.2415 1.00835 1.61035 0
M  V30 260 H 22.3915 0.0172398 3.88496 0
M  V30 261 H 24.0635 2.62536 3.79305 0
M  V30 262 H 22.3065 2.5256 3.52698 0
M  V30 263 H 22.9775 2.10087 5.10458 0
M  V30 264 H 25.4535 0.433775 4.13833 0
M  V30 265 H 24.3295 0.128637 5.48749 0
M  V30 266 H 24.5905 -1.11758 4.27741 0
M  V30 267 N 23.6496 -1.47581 0.552962 0
M  V30 268 C 25.0656 -1.5818 0.212424 0
M  V30 269 C 25.2656 -1.55213 -1.28496 0
M  V30 270 O 24.3216 -1.45329 -2.06484 0
M  V30 271 C 25.6346 -2.88865 0.835318 0
M  V30 272 C 27.1826 -3.0244 0.806156 0
M  V30 273 C 27.6576 -4.35819 1.40804 0
M  V30 274 N 29.1486 -4.42444 1.37103 0
M  V30 275 C 29.8836 -5.44202 1.80641 0
M  V30 276 N 29.3796 -6.52795 2.32015 0
M  V30 277 N 31.1726 -5.35222 1.71738 0
M  V30 278 H 23.3236 -1.47753 1.52587 0
M  V30 279 H 25.5866 -0.702941 0.636064 0
M  V30 280 H 25.2926 -2.9676 1.88749 0
M  V30 281 H 25.1666 -3.7579 0.325848 0
M  V30 282 H 27.5536 -2.94144 -0.237317 0
M  V30 283 H 27.6346 -2.17068 1.35334 0
M  V30 284 H 27.2786 -4.44871 2.45056 0
M  V30 285 H 27.2086 -5.19916 0.836338 0
M  V30 286 H 29.6996 -3.6456 0.995202 0
M  V30 287 H 30.0126 -7.26609 2.63171 0
M  V30 288 H 28.3576 -6.53696 2.36023 0
M  V30 289 H 31.5486 -4.49284 1.31382 0
M  V30 290 H 31.7216 -6.14389 2.05987 0
M  V30 291 N 25.1277 -0.289203 -1.54924 0
M  V30 292 C 26.3757 0.322879 -1.99504 0
M  V30 293 C 26.6967 1.55313 -1.1791 0
M  V30 294 O 25.9667 1.94001 -0.272097 0
M  V30 295 H 24.5467 0.122291 -0.736922 0
M  V30 296 H 27.2087 -0.397802 -1.90797 0
M  V30 297 H 26.3047 0.603061 -3.06218 0
M  V30 298 N 26.6058 1.57591 -0.0167156 0
M  V30 299 C 27.5358 2.12496 0.967858 0
M  V30 300 C 28.5168 1.03807 1.34752 0
M  V30 301 O 29.7018 1.31577 1.42833 0
M  V30 302 C 26.8318 2.64194 2.25431 0
M  V30 303 C 25.7858 3.77559 2.01576 0
M  V30 304 C 25.1118 4.15636 3.36379 0
M  V30 305 C 26.4118 5.04151 1.36489 0
M  V30 306 H 28.1058 2.95013 0.510643 0
M  V30 307 H 25.6518 1.41915 0.244181 0
M  V30 308 H 27.6048 3.01236 2.94678 0
M  V30 309 H 26.3288 1.78821 2.73296 0
M  V30 310 H 24.9878 3.40937 1.34751 0
M  V30 311 H 24.6358 3.27263 3.81979 0
M  V30 312 H 24.3358 4.92022 3.21229 0
M  V30 313 H 25.8598 4.5525 4.06915 0
M  V30 314 H 27.2738 5.38857 1.95718 0
M  V30 315 H 25.6708 5.85453 1.31776 0
M  V30 316 H 26.7408 4.83733 0.336219 0
M  V30 317 N 28.0839 -0.256276 1.55502 0
M  V30 318 C 29.0469 -1.30047 1.88734 0
M  V30 319 C 30.0469 -1.4154 0.763086 0
M  V30 320 O 31.2369 -1.40403 1.03115 0
M  V30 321 C 28.3689 -2.67953 2.10747 0
M  V30 322 H 29.5619 -1.01802 2.82093 0
M  V30 323 H 27.1149 -0.495134 1.4825 0
M  V30 324 H 27.8499 -3.01351 1.19825 0
M  V30 325 H 27.6349 -2.60993 2.92617 0
M  V30 326 H 29.1249 -3.43368 2.37673 0
M  V30 327 N 29.562 -1.4872 -0.521534 0
M  V30 328 C 30.81 -1.56857 -1.27437 0
M  V30 329 C 31.131 -0.247982 -1.93417 0
M  V30 330 O 30.401 0.731151 -1.81744 0
M  V30 331 H 28.981 -0.577885 -0.473347 0
M  V30 332 H 31.643 -1.85233 -0.606205 0
M  V30 333 H 30.739 -2.35402 -2.0492 0
M  V30 334 N 31.0401 0.771051 -1.3745 0
M  V30 335 C 31.9701 1.89827 -1.3597 0
M  V30 336 C 32.9511 1.68562 -0.228216 0
M  V30 337 O 34.1361 1.8941 -0.428675 0
M  V30 338 C 31.2661 3.2712 -1.16662 0
M  V30 339 C 30.2201 3.6295 -2.2683 0
M  V30 340 C 29.5461 4.98791 -1.92644 0
M  V30 341 C 30.8461 3.69627 -3.69017 0
M  V30 342 H 32.5401 1.91323 -2.30295 0
M  V30 343 H 30.0861 0.919082 -1.10855 0
M  V30 344 H 32.0391 4.05615 -1.14256 0
M  V30 345 H 30.7631 3.26059 -0.187926 0
M  V30 346 H 29.4221 2.86763 -2.28392 0
M  V30 347 H 29.0701 4.94271 -0.933021 0
M  V30 348 H 28.7701 5.23733 -2.66416 0
M  V30 349 H 30.2941 5.79685 -1.91826 0
M  V30 350 H 31.7081 4.38273 -3.69581 0
M  V30 351 H 30.1051 4.06067 -4.41848 0
M  V30 352 H 31.1751 2.70273 -4.02592 0
M  V30 353 N 32.5182 1.22032 0.997298 0
M  V30 354 C 33.7662 1.04016 1.73278 0
M  V30 355 C 34.0872 -0.426255 1.90284 0
M  V30 356 O 33.3572 -1.30694 1.45931 0
M  V30 357 H 31.9372 0.381897 0.642 0
M  V30 358 H 34.5992 1.5347 1.20137 0
M  V30 359 H 33.6952 1.51441 2.72896 0
M  V30 360 N 33.9963 -1.19345 1.0293 0
M  V30 361 C 35.2733 -1.84811 0.640642 0
M  V30 362 C 35.6533 -1.91855 -0.88062 0
M  V30 363 O 35.0013 -1.43587 -1.7775 0
M  V30 364 C 35.2113 -3.23755 1.30321 0
M  V30 365 C 36.5593 -3.99912 1.42673 0
M  V30 366 O 37.5833 -3.33155 1.26041 0
M  V30 367 O 36.4423 -5.19494 1.6967 0
M  V30 368 H 33.5363 -0.796443 0.222726 0
M  V30 369 H 36.0823 -1.26831 1.12748 0
M  V30 370 H 34.8543 -3.13466 2.34211 0
M  V30 371 H 34.4773 -3.89381 0.804261 0
M  V30 372 N 35.4744 -0.807222 -1.35358 0
M  V30 373 C 36.7204 -0.388463 -1.99045 0
M  V30 374 C 37.0534 1.04184 -1.63888 0
M  V30 375 O 36.3284 1.72292 -0.902535 0
M  V30 376 C 36.6114 -0.572783 -3.55515 0
M  V30 377 C 36.4644 -2.04807 -4.00468 0
M  V30 378 C 37.7834 0.00114064 -4.401 0
M  V30 379 H 34.9024 -0.142619 -0.723069 0
M  V30 380 H 37.5444 -1.01687 -1.60498 0
M  V30 381 H 35.6944 -0.0378425 -3.88482 0
M  V30 382 H 37.3664 -2.64544 -3.77908 0
M  V30 383 H 35.6094 -2.54427 -3.51353 0
M  V30 384 H 36.2804 -2.12792 -5.09337 0
M  V30 385 H 38.7564 -0.455716 -4.13597 0
M  V30 386 H 37.6324 -0.157737 -5.48673 0
M  V30 387 H 37.8934 1.09488 -4.28328 0
M  V30 388 N 36.9525 1.47285 -0.560781 0
M  V30 389 C 37.9155 2.28535 0.174488 0
M  V30 390 C 38.9155 1.37153 0.839388 0
M  V30 391 O 40.1055 1.59748 0.694702 0
M  V30 392 C 37.2375 3.16934 1.25561 0
M  V30 393 H 38.4305 2.95012 -0.539262 0
M  V30 394 H 35.9835 1.53034 -0.317865 0
M  V30 395 H 36.7185 2.55157 2.00164 0
M  V30 396 H 36.5035 3.8419 0.783604 0
M  V30 397 H 37.9935 3.78143 1.77193 0
M  V30 398 N 38.4306 0.297415 1.54768 0
M  V30 399 C 39.3406 -0.58983 2.27064 0
M  V30 400 C 40.3566 -1.15144 1.30453 0
M  V30 401 O 41.5326 -1.17699 1.63428 0
M  V30 402 C 38.5976 -1.74714 2.9946 0
M  V30 403 C 37.6586 -1.21997 4.11601 0
M  V30 404 C 36.8916 -2.32212 4.80535 0
M  V30 405 O 37.1146 -3.52036 4.48806 0
M  V30 406 O 36.0486 -1.99106 5.68014 0
M  V30 407 H 39.8746 -0.00348199 3.037 0
M  V30 408 H 37.4596 0.0640035 1.49263 0
M  V30 409 H 39.3416 -2.42147 3.44881 0
M  V30 410 H 38.0166 -2.32016 2.25722 0
M  V30 411 H 36.9236 -0.511458 3.70587 0
M  V30 412 H 38.2566 -0.692419 4.87305 0
M  V30 413 N 39.9087 -1.5758 0.0250728 0
M  V30 414 C 41.1547 -1.91917 -0.655413 0
M  V30 415 C 41.4877 -0.901433 -1.72011 0
M  V30 416 O 40.7627 0.0764069 -1.9435 0
M  V30 417 C 41.0457 -3.36751 -1.27558 0
M  V30 418 C 40.8987 -4.49258 -0.220719 0
M  V30 419 C 42.2177 -3.81469 -2.19475 0
M  V30 420 H 39.3367 -0.697925 -0.23679 0
M  V30 421 H 41.9787 -1.89825 0.0815036 0
M  V30 422 H 40.1287 -3.38664 -1.90365 0
M  V30 423 H 41.8007 -4.59478 0.409601 0
M  V30 424 H 40.0437 -4.31415 0.454264 0
M  V30 425 H 40.7147 -5.47618 -0.694175 0
M  V30 426 H 43.1907 -3.81266 -1.66659 0
M  V30 427 H 42.0667 -4.83512 -2.59822 0
M  V30 428 H 42.3277 -3.16744 -3.08424 0
M  V30 429 N 41.3868 0.248026 -1.55636 0
M  V30 430 C 42.8028 0.596483 -1.48035 0
M  V30 431 C 43.0028 1.88386 -0.715039 0
M  V30 432 O 42.0588 2.51319 -0.243944 0
M  V30 433 C 43.3718 0.700258 -2.92433 0
M  V30 434 C 44.9198 0.792659 -3.02797 0
M  V30 435 C 45.3948 0.928005 -4.485 0
M  V30 436 N 46.8858 0.992903 -4.52433 0
M  V30 437 C 47.6208 1.11687 -5.62418 0
M  V30 438 N 47.1168 1.20645 -6.82214 0
M  V30 439 N 48.9098 1.14994 -5.50212 0
M  V30 440 H 41.0608 -0.597109 -2.03834 0
M  V30 441 H 43.3238 -0.205925 -0.925364 0
M  V30 442 H 43.0298 -0.175658 -3.51261 0
M  V30 443 H 42.9038 1.57255 -3.42857 0
M  V30 444 H 45.2908 1.65903 -2.4405 0
M  V30 445 H 45.3718 -0.104762 -2.55585 0
M  V30 446 H 45.0158 0.0661971 -5.07857 0
M  V30 447 H 44.9458 1.84045 -4.93391 0
M  V30 448 H 47.4368 0.935064 -3.66149 0
M  V30 449 H 47.7498 1.30008 -7.61786 0
M  V30 450 H 46.0948 1.17605 -6.84977 0
M  V30 451 H 49.2858 1.07643 -4.55555 0
M  V30 452 H 49.4588 1.24311 -6.35965 0
M  V30 453 N 42.8649 1.48995 0.513639 0
M  V30 454 C 43.8119 1.6473 1.61656 0
M  V30 455 C 44.7819 0.488984 1.58739 0
M  V30 456 O 45.9669 0.714478 1.76918 0
M  V30 457 C 43.1069 1.7082 2.99858 0
M  V30 458 C 42.2199 2.9787 3.12885 0
M  V30 459 C 41.3549 2.95017 4.41744 0
M  V30 460 C 40.3939 4.16702 4.48359 0
M  V30 461 N 39.5309 4.11832 5.68629 0
M  V30 462 H 44.3709 2.58909 1.47547 0
M  V30 463 H 41.9079 1.28382 0.71808 0
M  V30 464 H 43.8659 1.72331 3.79944 0
M  V30 465 H 42.4959 0.801181 3.12699 0
M  V30 466 H 41.5479 3.06029 2.25944 0
M  V30 467 H 42.8599 3.8786 3.13633 0
M  V30 468 H 42.0139 2.95021 5.30139 0
M  V30 469 H 40.7529 2.02784 4.43542 0
M  V30 470 H 39.7579 4.16955 3.58369 0
M  V30 471 H 40.9829 5.10113 4.48287 0
M  V30 472 H 38.9289 3.22428 5.71293 0
M  V30 473 H 38.8459 4.95543 5.7094 0
M  V30 474 H 40.1139 4.1592 6.59266 0
M  V30 475 N 44.343 -0.763751 1.37857 0
M  V30 476 C 45.568 -1.55805 1.36893 0
M  V30 477 C 45.993 -1.88054 -0.0416135 0
M  V30 478 O 45.351 -1.49825 -1.02089 0
M  V30 479 C 45.399 -2.84012 2.22192 0
M  V30 480 O 44.503 -3.78732 1.63204 0
M  V30 481 H 43.844 -0.471638 0.46739 0
M  V30 482 H 46.374 -0.944657 1.81487 0
M  V30 483 H 46.384 -3.33037 2.35691 0
M  V30 484 H 45.059 -2.59869 3.24716 0
M  V30 485 H 43.636 -3.37402 1.58791 0
M  V30 486 N 45.8211 -1.22559 -0.990812 0
M  V30 487 C 47.0681 -1.05141 -1.73065 0
M  V30 488 C 47.3961 0.413191 -1.9006 0
M  V30 489 O 46.6511 1.32257 -1.44245 0
M  V30 490 C 46.9501 -1.71011 -3.13831 0
M  V30 491 C 46.6161 -3.20911 -3.16745 0
M  V30 492 C 45.2781 -3.61812 -3.17247 0
M  V30 493 C 47.6301 -4.16846 -3.12872 0
M  V30 494 C 44.9581 -4.97127 -3.1158 0
M  V30 495 C 47.3101 -5.5214 -3.08746 0
M  V30 496 C 45.9741 -5.92419 -3.07565 0
M  V30 497 H 45.2441 -0.384738 -0.633291 0
M  V30 498 H 47.8911 -1.5235 -1.16025 0
M  V30 499 H 46.1961 -1.16133 -3.74193 0
M  V30 500 H 47.8931 -1.55023 -3.69823 0
M  V30 501 H 44.4831 -2.88344 -3.17105 0
M  V30 502 H 48.6671 -3.86263 -3.11632 0
M  V30 503 H 43.9231 -5.27562 -3.09012 0
M  V30 504 H 48.0971 -6.26201 -3.04705 0
M  V30 505 H 45.7241 -6.97236 -3.02929 0
M  V30 506 N 47.2992 1.18797 -1.03562 0
M  V30 507 C 48.2472 2.24297 -0.615905 0
M  V30 508 C 49.2412 1.65643 0.354808 0
M  V30 509 O 50.4472 1.78618 0.22265 0
M  V30 510 H 46.8222 0.729909 -0.180934 0
M  V30 511 H 48.7932 2.5701 -1.5162 0
M  V30 512 C 47.5422 3.47698 0.0104735 0
M  V30 513 H 46.8652 3.93125 -0.727509 0
M  V30 514 H 48.3052 4.23159 0.266995 0
M  V30 515 C 46.7642 3.12489 1.25905 0
M  V30 516 O 47.2942 3.25761 2.35038 0
M  V30 517 N 45.5002 2.6686 1.15039 0
M  V30 518 H 45.0472 2.56261 0.262328 0
M  V30 519 H 45.0052 2.43674 1.98672 0
M  V30 520 N 48.7773 0.814389 1.34928 0
M  V30 521 C 50.1933 0.499084 1.51596 0
M  V30 522 C 50.3933 -0.978319 1.76157 0
M  V30 523 O 49.4493 -1.76309 1.80752 0
M  V30 524 C 50.7623 1.35121 2.68631 0
M  V30 525 C 52.3103 1.34746 2.82511 0
M  V30 526 C 52.7853 2.18388 4.0258 0
M  V30 527 N 54.2763 2.15966 4.09772 0
M  V30 528 C 55.0113 2.77437 5.01813 0
M  V30 529 N 54.5073 3.47866 5.99134 0
M  V30 530 N 56.3003 2.67037 4.94619 0
M  V30 531 H 48.4513 1.7711 1.17243 0
M  V30 532 H 50.7143 0.754256 0.574284 0
M  V30 533 H 50.4203 2.40001 2.57085 0
M  V30 534 H 50.2943 1.00991 3.63429 0
M  V30 535 H 52.6813 0.30648 2.93504 0
M  V30 536 H 52.7623 1.72869 1.88547 0
M  V30 537 H 52.4063 3.2253 3.92347 0
M  V30 538 H 52.3363 1.77621 4.9574 0
M  V30 539 H 54.8273 1.64729 3.40107 0
M  V30 540 H 55.1403 3.92038 6.65977 0
M  V30 541 H 53.4853 3.51972 5.99284 0
M  V30 542 H 56.6763 2.11597 4.17546 0
M  V30 543 H 56.8493 3.15232 5.66156 0
M  V30 544 N 50.2554 -1.46986 0.568584 0
M  V30 545 C 51.2054 -2.27179 -0.193339 0
M  V30 546 C 52.1894 -1.35035 -0.874895 0
M  V30 547 O 53.3814 -1.5931 -0.771322 0
M  V30 548 C 50.5104 -3.21063 -1.21546 0
M  V30 549 C 49.5964 -4.2069 -0.536738 0
M  V30 550 N 49.9874 -5.04218 0.399673 0
M  V30 551 C 48.2854 -4.38961 -0.789254 0
M  V30 552 C 48.9864 -5.76242 0.795017 0
M  V30 553 N 47.9624 -5.434 0.1473 0
M  V30 554 H 51.7644 -2.89146 0.526458 0
M  V30 555 H 49.2784 -1.57664 0.389342 0
M  V30 556 H 51.2754 -3.77209 -1.77536 0
M  V30 557 H 49.9354 -2.60654 -1.93623 0
M  V30 558 H 50.9464 -5.12077 0.774454 0
M  V30 559 H 47.6234 -3.89713 -1.49767 0
M  V30 560 H 49.0134 -6.53417 1.56513 0
M  V30 561 N 51.7335 -0.305618 -1.54608 0
M  V30 562 C 52.6635 0.561482 -2.26649 0
M  V30 563 C 53.6445 1.13415 -1.26772 0
M  V30 564 O 54.8295 1.16262 -1.55553 0
M  V30 565 C 51.9595 1.73122 -3.01075 0
M  V30 566 C 50.9135 1.2887 -4.08138 0
M  V30 567 C 50.2395 2.54396 -4.70305 0
M  V30 568 C 51.5395 0.416578 -5.20636 0
M  V30 569 H 53.2335 -0.0393902 -2.99374 0
M  V30 570 H 50.7795 -0.020385 -1.43986 0
M  V30 571 H 52.7325 2.34396 -3.50195 0
M  V30 572 H 51.4565 2.3584 -2.25936 0
M  V30 573 H 50.1155 0.698991 -3.59875 0
M  V30 574 H 49.7635 3.15439 -3.918 0
M  V30 575 H 49.4635 2.25486 -5.42614 0
M  V30 576 H 50.9875 3.16464 -5.2219 0
M  V30 577 H 52.4015 0.935116 -5.65622 0
M  V30 578 H 50.7985 0.221046 -5.99693 0
M  V30 579 H 51.8685 -0.557162 -4.81688 0
M  V30 580 N 53.2116 1.57565 -0.0334293 0
M  V30 581 C 54.1616 2.06978 0.956237 0
M  V30 582 C 55.1456 0.971193 1.28283 0
M  V30 583 O 56.3376 1.23471 1.26822 0
M  V30 584 C 53.4666 2.60393 2.23719 0
M  V30 585 C 52.5526 3.7719 1.93877 0
M  V30 586 N 52.9436 4.87639 1.34321 0
M  V30 587 C 51.2416 3.85758 2.23845 0
M  V30 588 C 51.9426 5.68825 1.21709 0
M  V30 589 N 50.9186 5.1587 1.71404 0
M  V30 590 H 54.7206 2.89773 0.490815 0
M  V30 591 H 52.2346 1.61492 0.171478 0
M  V30 592 H 54.2316 2.94088 2.95496 0
M  V30 593 H 52.8916 1.79031 2.70884 0
M  V30 594 H 53.9026 5.07803 1.01767 0
M  V30 595 H 50.5796 3.1531 2.73653 0
M  V30 596 H 51.9696 6.67631 0.75621 0
M  V30 597 N 54.6897 -0.239769 1.55765 0
M  V30 598 C 55.9367 -0.966801 1.7793 0
M  V30 599 C 56.2647 -1.85046 0.599015 0
M  V30 600 O 55.5197 -1.91197 -0.417395 0
M  V30 601 C 55.8187 -1.852 3.05672 0
M  V30 602 C 55.4847 -1.1231 4.36689 0
M  V30 603 C 54.1467 -0.921689 4.72291 0
M  V30 604 C 56.4987 -0.607019 5.17653 0
M  V30 605 C 53.8267 -0.191996 5.86386 0
M  V30 606 C 56.1787 0.109241 6.32506 0
M  V30 607 C 54.8427 0.322073 6.66723 0
M  V30 608 H 54.1127 -0.353778 0.651093 0
M  V30 609 H 56.7597 -0.23634 1.90036 0
M  V30 610 H 55.0647 -2.64975 2.8861 0
M  V30 611 H 56.7617 -2.41635 3.20021 0
M  V30 612 H 53.3517 -1.29004 4.08725 0
M  V30 613 H 57.5357 -0.750153 4.90598 0
M  V30 614 H 52.7917 -0.0166949 6.11398 0
M  V30 615 H 56.9657 0.516737 6.9448 0
M  V30 616 H 54.5927 0.88944 7.54979 0
M  V30 617 N 56.1678 -1.49265 -0.50573 0
M  V30 618 C 57.3958 -1.62215 -1.28429 0
M  V30 619 C 57.8108 -0.291697 -1.86533 0
M  V30 620 O 57.1678 0.722233 -1.67601 0
M  V30 621 C 57.2188 -2.68735 -2.41793 0
M  V30 622 O 56.9398 -3.96619 -1.86078 0
M  V30 623 C 58.4408 -2.92346 -3.3324 0
M  V30 624 H 55.6608 -0.546239 -0.389697 0
M  V30 625 H 58.2048 -1.95265 -0.607609 0
M  V30 626 H 56.3598 -2.38476 -3.053 0
M  V30 627 H 56.7738 -4.55256 -2.60465 0
M  V30 628 H 58.2478 -3.70623 -4.09075 0
M  V30 629 H 58.7248 -2.02081 -3.89948 0
M  V30 630 H 59.3308 -3.24003 -2.75503 0
M  V30 631 N 57.6459 0.756429 -1.3826 0
M  V30 632 C 58.5759 1.88374 -1.37976 0
M  V30 633 C 59.5569 1.68311 -0.246082 0
M  V30 634 O 60.7419 1.88944 -0.44874 0
M  V30 635 C 57.8719 3.25864 -1.20125 0
M  V30 636 C 56.8259 3.60523 -2.30666 0
M  V30 637 C 56.1519 4.9672 -1.97923 0
M  V30 638 C 57.4519 3.65692 -3.72916 0
M  V30 639 H 59.1459 1.88869 -2.32312 0
M  V30 640 H 56.6919 0.907272 -1.11824 0
M  V30 641 H 58.6449 4.0438 -1.18552 0
M  V30 642 H 57.3689 3.25841 -0.222498 0
M  V30 643 H 56.0279 2.84324 -2.3142 0
M  V30 644 H 55.6759 4.93253 -0.985393 0
M  V30 645 H 55.3759 5.20878 -2.71955 0
M  V30 646 H 56.8999 5.77618 -1.97964 0
M  V30 647 H 58.3139 4.34328 -3.74208 0
M  V30 648 H 56.7109 4.01358 -4.4613 0
M  V30 649 H 57.7809 2.65987 -4.05436 0
M  V30 650 N 59.124 1.23083 0.984299 0
M  V30 651 C 60.37 1.06214 1.72761 0
M  V30 652 C 60.703 -0.400584 1.90024 0
M  V30 653 O 59.978 -1.29672 1.44967 0
M  V30 654 C 60.261 1.78375 3.12817 0
M  V30 655 C 60.114 3.32296 3.03149 0
M  V30 656 C 61.433 1.54309 4.12161 0
M  V30 657 H 58.552 0.387251 0.627061 0
M  V30 658 H 61.194 1.51536 1.14616 0
M  V30 659 H 59.344 1.39848 3.62457 0
M  V30 660 H 61.016 3.8032 2.61064 0
M  V30 661 H 59.259 3.6153 2.39747 0
M  V30 662 H 59.93 3.77972 4.02295 0
M  V30 663 H 62.406 1.87791 3.71314 0
M  V30 664 H 61.282 2.07281 5.08258 0
M  V30 665 H 61.543 0.477572 4.39513 0
M  V30 666 N 60.6021 -1.18246 1.0419 0
M  V30 667 C 61.5491 -2.2192 0.634037 0
M  V30 668 C 62.5191 -1.62179 -0.358765 0
M  V30 669 O 63.7041 -1.89122 -0.252466 0
M  V30 670 C 60.8441 -3.451 0.00445535 0
M  V30 671 C 59.9571 -4.19174 1.04487 0
M  V30 672 C 59.0921 -5.29813 0.383676 0
M  V30 673 C 58.1311 -5.9566 1.4091 0
M  V30 674 N 57.2681 -6.97834 0.772784 0
M  V30 675 H 62.1081 -2.56164 1.52263 0
M  V30 676 H 59.6451 -1.25843 0.761701 0
M  V30 677 H 61.6031 -4.15485 -0.377919 0
M  V30 678 H 60.2331 -3.11472 -0.847652 0
M  V30 679 H 59.2851 -3.47604 1.54518 0
M  V30 680 H 60.5971 -4.64267 1.82368 0
M  V30 681 H 59.7511 -6.06677 -0.0528366 0
M  V30 682 H 58.4901 -4.85825 -0.427208 0
M  V30 683 H 57.4951 -5.17535 1.85574 0
M  V30 684 H 58.7201 -6.4173 2.22171 0
M  V30 685 H 56.6661 -6.55998 -0.0177708 0
M  V30 686 H 56.5831 -7.41186 1.48928 0
M  V30 687 H 57.8511 -7.78665 0.36071 0
M  V30 688 N 62.0802 -0.821533 -1.34494 0
M  V30 689 C 63.3572 -0.33159 -1.92769 0
M  V30 690 C 63.7372 1.18088 -1.74981 0
M  V30 691 O 63.0852 1.98733 -1.12772 0
M  V30 692 C 63.2952 -0.759398 -3.40638 0
M  V30 693 C 64.6432 -0.757433 -4.1779 0
M  V30 694 O 65.6672 -0.70189 -3.49216 0
M  V30 695 O 64.5262 -0.829361 -5.4017 0
M  V30 696 H 61.6202 -0.0902502 -0.822061 0
M  V30 697 H 64.1662 -0.906231 -1.43477 0
M  V30 698 H 62.9382 -1.8012 -3.47379 0
M  V30 699 H 62.5612 -0.160378 -3.97276 0
M  V30 700 N 63.5583 1.46682 -0.576371 0
M  V30 701 C 64.9743 1.57822 -0.237562 0
M  V30 702 C 65.1743 1.57237 1.26011 0
M  V30 703 O 64.2303 1.48596 2.04146 0
M  V30 704 C 65.5433 2.87499 -0.881168 0
M  V30 705 C 67.0913 3.01119 -0.85417 0
M  V30 706 C 67.5663 4.33524 -1.4772 0
M  V30 707 N 69.0573 4.40207 -1.44125 0
M  V30 708 C 69.7923 5.4126 -1.89276 0
M  V30 709 N 69.2883 6.49021 -2.42371 0
M  V30 710 N 71.0813 5.32422 -1.80231 0
M  V30 711 H 63.2323 1.45306 -1.54919 0
M  V30 712 H 65.4953 0.692733 -0.647167 0
M  V30 713 H 65.2013 2.9372 -1.93447 0
M  V30 714 H 65.0753 3.75224 -0.385592 0
M  V30 715 H 67.4623 2.94485 0.190491 0
M  V30 716 H 67.5433 2.14887 -1.3877 0
M  V30 717 H 67.1873 4.40916 -2.52103 0
M  V30 718 H 67.1173 5.1852 -0.918947 0
M  V30 719 H 69.6083 3.62931 -1.05307 0
M  V30 720 H 69.9213 7.2233 -2.74698 0
M  V30 721 H 68.2663 6.49858 -2.46393 0
M  V30 722 H 71.4573 4.47137 -1.38514 0
M  V30 723 H 71.6303 6.11034 -2.15735 0
M  V30 724 N 65.0364 0.313813 1.54444 0
M  V30 725 C 65.9844 -0.572171 2.25453 0
M  V30 726 C 66.9784 -1.12657 1.2651 0
M  V30 727 O 68.1844 -1.07573 1.44319 0
M  V30 728 H 64.5594 -0.203146 0.724041 0
M  V30 729 H 66.5304 0.0491145 2.9836 0
M  V30 730 C 65.2794 -1.72626 3.0182 0
M  V30 731 H 64.6024 -1.30891 3.77767 0
M  V30 732 H 66.0424 -2.32199 3.54767 0
M  V30 733 C 64.5014 -2.63806 2.09542 0
M  V30 734 O 65.0314 -3.65256 1.67185 0
M  V30 735 N 63.2374 -2.31824 1.75232 0
M  V30 736 H 62.7844 -1.49368 2.09873 0
M  V30 737 H 62.7424 -2.93095 1.13767 0
M  V30 738 N 66.5145 -1.57545 0.0417849 0
M  V30 739 C 67.7605 -1.92601 -0.635021 0
M  V30 740 C 68.0935 -0.919627 -1.71045 0
M  V30 741 O 67.3685 0.0557892 -1.9442 0
M  V30 742 C 67.6515 -3.38085 -1.23979 0
M  V30 743 C 67.5045 -4.49467 -0.173057 0
M  V30 744 C 68.8235 -3.83776 -2.15416 0
M  V30 745 H 65.9425 -0.700397 -0.229374 0
M  V30 746 H 68.5845 -1.89728 0.101633 0
M  V30 747 H 66.7345 -3.40664 -1.86762 0
M  V30 748 H 68.4065 -4.59018 0.458312 0
M  V30 749 H 66.6495 -4.30909 0.499996 0
M  V30 750 H 67.3205 -5.48323 -0.636054 0
M  V30 751 H 69.7965 -3.83013 -1.62605 0
M  V30 752 H 68.6725 -4.8624 -2.54679 0
M  V30 753 H 68.9335 -3.19998 -3.05047 0
M  V30 754 N 67.9926 0.231505 -1.5589 0
M  V30 755 C 68.9556 1.27028 -1.90779 0
M  V30 756 C 69.9556 1.40308 -0.785507 0
M  V30 757 O 71.1456 1.38744 -1.05336 0
M  V30 758 C 68.2776 2.64566 -2.14983 0
M  V30 759 H 69.4706 0.973017 -2.83677 0
M  V30 760 H 67.0236 0.471486 -1.49019 0
M  V30 761 H 67.7586 2.99406 -1.24604 0
M  V30 762 H 67.5436 2.56305 -2.96732 0
M  V30 763 H 69.0336 3.39543 -2.43105 0
M  V30 764 N 69.4707 1.49531 0.497807 0
M  V30 765 C 70.6987 1.62893 1.27567 0
M  V30 766 C 71.1137 0.301585 1.86376 0
M  V30 767 O 70.4707 -0.713335 1.67982 0
M  V30 768 C 70.5217 2.70013 2.40364 0
M  V30 769 O 70.2427 3.976 1.83972 0
M  V30 770 C 71.7437 2.94109 3.31685 0
M  V30 771 H 68.9637 0.548298 0.386794 0
M  V30 772 H 71.5077 1.95584 0.597245 0
M  V30 773 H 69.6627 2.40092 3.04031 0
M  V30 774 H 70.0767 4.56631 2.58047 0
M  V30 775 H 71.5507 3.72788 4.07104 0
M  V30 776 H 72.0277 2.04147 3.88871 0
M  V30 777 H 72.6337 3.2546 2.73781 0
M  V30 778 N 70.9488 -0.749086 1.3866 0
M  V30 779 C 72.3598 -1.32664 1.31366 0
M  V30 780 C 72.7108 -1.96179 -0.028484 0
M  V30 781 O 71.8358 -1.9537 -0.93057 0
M  V30 782 C 72.4308 -2.41219 2.37905 0
M  V30 783 C 70.9898 -2.94684 2.34176 0
M  V30 784 C 70.1368 -1.68108 2.20533 0
M  V30 785 H 73.0878 -0.547628 1.48952 0
M  V30 786 H 73.1088 -3.21268 2.0388 0
M  V30 787 H 72.6208 -1.94962 3.35576 0
M  V30 788 H 70.7218 -3.45258 1.401 0
M  V30 789 H 70.8348 -3.48757 3.2849 0
M  V30 790 H 69.1988 -1.91907 1.67463 0
M  V30 791 H 69.9818 -1.23923 3.20153 0
M  V30 792 N 72.4269 -1.23603 -0.977757 0
M  V30 793 C 73.8429 -0.999251 -1.24447 0
M  V30 794 C 74.0429 0.298053 -1.99283 0
M  V30 795 O 73.0989 1.01681 -2.31122 0
M  V30 796 C 74.4119 -2.20784 -2.04144 0
M  V30 797 C 75.9599 -2.25303 -2.17273 0
M  V30 798 C 76.4349 -3.45755 -3.00362 0
M  V30 799 N 77.9259 -3.4601 -3.07947 0
M  V30 800 C 78.6609 -4.35868 -3.72568 0
M  V30 801 N 78.1569 -5.35966 -4.38991 0
M  V30 802 N 79.9499 -4.23605 -3.6948 0
M  V30 803 H 72.1009 -2.06986 -0.476483 0
M  V30 804 H 74.3639 -0.907801 -0.273134 0
M  V30 805 H 74.0699 -3.14945 -1.56533 0
M  V30 806 H 73.9439 -2.22085 -3.04891 0
M  V30 807 H 76.3309 -1.3168 -2.64092 0
M  V30 808 H 76.4119 -2.28033 -1.15907 0
M  V30 809 H 76.0559 -4.39687 -2.5424 0
M  V30 810 H 75.9859 -3.40266 -4.01904 0
M  V30 811 H 78.4769 -2.73588 -2.60688 0
M  V30 812 H 78.7899 -6.00783 -4.86086 0
M  V30 813 H 77.1349 -5.39863 -4.37691 0
M  V30 814 H 80.3259 -3.44647 -3.16759 0
M  V30 815 H 80.4989 -4.93836 -4.1956 0
M  V30 816 N 73.905 1.17692 -1.04816 0
M  V30 817 C 75.182 1.83768 -0.669963 0
M  V30 818 C 75.562 1.93232 0.849986 0
M  V30 819 O 74.91 1.46397 1.75443 0
M  V30 820 C 75.12 3.21641 -1.35455 0
M  V30 821 C 76.468 3.97592 -1.49017 0
M  V30 822 O 77.492 3.31107 -1.31326 0
M  V30 823 O 76.351 5.16729 -1.77914 0
M  V30 824 H 73.445 0.792799 -0.235368 0
M  V30 825 H 75.991 1.25021 -1.14751 0
M  V30 826 H 74.763 3.097 -2.39168 0
M  V30 827 H 74.386 3.88052 -0.866107 0
M  V30 828 N 75.3831 0.828654 1.34056 0
M  V30 829 C 76.6131 0.431993 2.02033 0
M  V30 830 C 77.0211 -0.96844 1.62536 0
M  V30 831 O 76.3641 -1.6391 0.829408 0
M  V30 832 C 76.4261 0.461224 3.56529 0
M  V30 833 C 76.0901 1.81599 4.1937 0
M  V30 834 C 77.0871 2.7777 4.39477 0
M  V30 835 C 74.7721 2.10604 4.56017 0
M  V30 836 C 76.7661 4.01115 4.95364 0
M  V30 837 C 74.4531 3.34207 5.11614 0
M  V30 838 C 75.4511 4.2928 5.31232 0
M  V30 839 O 75.1391 5.50699 5.8565 0
M  V30 840 H 74.8711 0.170943 0.654029 0
M  V30 841 H 77.4251 1.11988 1.72185 0
M  V30 842 H 75.6551 -0.283388 3.8566 0
M  V30 843 H 77.3441 0.0838149 4.05813 0
M  V30 844 H 78.1101 2.56659 4.11523 0
M  V30 845 H 73.9891 1.37402 4.40047 0
M  V30 846 H 77.5331 4.75333 5.10592 0
M  V30 847 H 73.4301 3.55179 5.38997 0
M  V30 848 H 74.1981 5.52298 6.04077 0
M  V30 849 N 76.8612 -1.46375 0.584142 0
M  V30 850 C 78.1082 -2.02378 0.0702675 0
M  V30 851 C 78.4362 -1.45545 -1.29023 0
M  V30 852 O 77.6912 -0.610967 -1.85918 0
M  V30 853 C 77.9902 -3.57373 -0.0439342 0
M  V30 854 C 77.6562 -4.33252 1.24915 0
M  V30 855 C 76.3182 -4.53701 1.60341 0
M  V30 856 C 78.6702 -4.7681 2.1048 0
M  V30 857 C 75.9982 -5.1496 2.81128 0
M  V30 858 C 78.3502 -5.39404 3.30494 0
M  V30 859 C 77.0142 -5.5808 3.66201 0
M  V30 860 H 76.2842 -0.740554 0.0257127 0
M  V30 861 H 78.9312 -1.75727 0.761065 0
M  V30 862 H 77.2362 -3.83169 -0.817869 0
M  V30 863 H 78.9332 -3.98384 -0.457318 0
M  V30 864 H 75.5232 -4.17633 0.963364 0
M  V30 865 H 79.7072 -4.60766 1.84414 0
M  V30 866 H 74.9632 -5.27611 3.08928 0
M  V30 867 H 79.1372 -5.72114 3.97063 0
M  V30 868 H 76.7642 -6.05318 4.59885 0
M  V30 869 N 78.3393 -0.321999 -1.54275 0
M  V30 870 C 79.5863 0.281044 -2.0054 0
M  V30 871 C 79.9143 1.52265 -1.21019 0
M  V30 872 O 79.1693 1.93687 -0.279982 0
M  V30 873 C 79.4683 0.661769 -3.5122 0
M  V30 874 C 79.1343 -0.480482 -4.48333 0
M  V30 875 C 77.7963 -0.794005 -4.74604 0
M  V30 876 C 80.1483 -1.24783 -5.06042 0
M  V30 877 C 77.4763 -1.87763 -5.55844 0
M  V30 878 C 79.8283 -2.32153 -5.88462 0
M  V30 879 C 78.4923 -2.64089 -6.13036 0
M  V30 880 H 77.7623 0.102841 -0.733829 0
M  V30 881 H 80.4093 -0.445453 -1.86247 0
M  V30 882 H 78.7143 1.46867 -3.63232 0
M  V30 883 H 80.4113 1.13989 -3.84457 0
M  V30 884 H 77.0013 -0.226039 -4.28004 0
M  V30 885 H 81.1853 -1.01887 -4.85729 0
M  V30 886 H 76.4413 -2.12954 -5.73115 0
M  V30 887 H 80.6153 -2.92057 -6.32199 0
M  V30 888 H 78.2423 -3.48185 -6.75775 0
M  V30 889 N 79.8174 1.5752 -0.0501392 0
M  V30 890 C 80.7804 2.1037 0.909786 0
M  V30 891 C 81.7804 1.02308 1.24056 0
M  V30 892 O 82.9704 1.28385 1.17741 0
M  V30 893 C 80.1024 2.58708 2.21998 0
M  V30 894 H 81.2954 2.96479 0.451665 0
M  V30 895 H 78.8484 1.55038 0.198248 0
M  V30 896 H 79.5834 1.75989 2.72394 0
M  V30 897 H 79.3684 3.37675 1.99295 0
M  V30 898 H 80.8584 2.99747 2.9076 0
M  V30 899 N 81.2955 -0.223234 1.56011 0
M  V30 900 C 82.2255 -1.27988 1.95298 0
M  V30 901 C 83.2065 -1.48976 0.820979 0
M  V30 902 O 84.3915 -1.61188 1.08315 0
M  V30 903 C 81.5215 -2.63 2.26822 0
M  V30 904 C 80.4755 -2.56671 3.42497 0
M  V30 905 C 79.8015 -3.95697 3.59622 0
M  V30 906 C 81.1015 -2.11601 4.77517 0
M  V30 907 H 82.7955 -0.953525 2.8381 0
M  V30 908 H 80.3415 -0.457244 1.36548 0
M  V30 909 H 82.2945 -3.37077 2.52898 0
M  V30 910 H 81.0185 -2.9732 1.35161 0
M  V30 911 H 79.6775 -1.85051 3.16467 0
M  V30 912 H 79.3255 -4.27322 2.6534 0
M  V30 913 H 79.0255 -3.92345 4.37424 0
M  V30 914 H 80.5495 -4.71438 3.88044 0
M  V30 915 H 81.9635 -2.7542 5.02809 0
M  V30 916 H 80.3605 -2.19311 5.5859 0
M  V30 917 H 81.4305 -1.06824 4.72987 0
M  V30 918 N 82.7736 -1.49793 -0.48987 0
M  V30 919 C 83.7366 -1.66752 -1.57246 0
M  V30 920 C 84.7366 -0.538867 -1.51502 0
M  V30 921 O 85.9266 -0.805545 -1.54456 0
M  V30 922 C 83.0586 -1.67528 -2.96896 0
M  V30 923 H 84.2516 -2.63321 -1.43534 0
M  V30 924 H 81.8046 -1.38992 -0.714914 0
M  V30 925 H 82.5396 -0.725837 -3.16073 0
M  V30 926 H 82.3246 -2.49504 -3.02473 0
M  V30 927 H 83.8146 -1.82667 -3.7553 0
M  V30 928 N 84.2517 0.741722 -1.39055 0
M  V30 929 C 85.2017 1.84661 -1.33732 0
M  V30 930 C 86.1857 1.59397 -0.219401 0
M  V30 931 O 87.3777 1.71015 -0.456375 0
M  V30 932 C 84.5067 3.22512 -1.17647 0
M  V30 933 C 83.5927 3.53628 -2.34112 0
M  V30 934 N 83.9837 3.55723 -3.59576 0
M  V30 935 C 82.2817 3.83956 -2.26923 0
M  V30 936 C 82.9827 3.84443 -4.36553 0
M  V30 937 N 81.9587 4.01877 -3.66055 0
M  V30 938 H 85.7607 1.84576 -2.28711 0
M  V30 939 H 83.2747 0.939647 -1.32455 0
M  V30 940 H 85.2717 4.01597 -1.11917 0
M  V30 941 H 83.9317 3.2384 -0.236124 0
M  V30 942 H 84.9427 3.37196 -3.93089 0
M  V30 943 H 81.6197 3.92929 -1.41113 0
M  V30 944 H 83.0097 3.92588 -5.45274 0
M  V30 945 N 85.7298 1.2412 0.971189 0
M  V30 946 C 86.9578 1.10575 1.74874 0
M  V30 947 C 87.3728 -0.342017 1.85676 0
M  V30 948 O 86.7298 -1.23617 1.34258 0
M  V30 949 C 86.7808 1.73579 3.171 0
M  V30 950 O 86.5018 3.12695 3.06844 0
M  V30 951 C 88.0028 1.65598 4.11208 0
M  V30 952 H 85.2228 0.386504 0.548503 0
M  V30 953 H 87.7668 1.64156 1.21955 0
M  V30 954 H 85.9218 1.24009 3.67016 0
M  V30 955 H 86.3358 3.43412 3.96445 0
M  V30 956 H 87.8098 2.1437 5.08674 0
M  V30 957 H 88.2868 0.616532 4.34851 0
M  V30 958 H 88.8928 2.14578 3.67201 0
M  V30 959 N 87.2079 -1.17134 1.05439 0
M  V30 960 C 88.4539 -1.87733 0.767077 0
M  V30 961 C 88.7869 -1.8098 -0.704253 0
M  V30 962 O 88.0619 -1.21951 -1.5152 0
M  V30 963 C 88.3449 -3.37659 1.25133 0
M  V30 964 C 88.1979 -3.53149 2.78578 0
M  V30 965 C 89.5169 -4.31768 0.852324 0
M  V30 966 H 86.6359 -0.681687 0.280129 0
M  V30 967 H 89.2779 -1.37732 1.30881 0
M  V30 968 H 87.4279 -3.80373 0.790469 0
M  V30 969 H 89.0999 -3.19434 3.32806 0
M  V30 970 H 87.3429 -2.95345 3.17732 0
M  V30 971 H 88.0139 -4.58403 3.07523 0
M  V30 972 H 90.4899 -3.96909 1.24911 0
M  V30 973 H 89.3659 -5.35199 1.21873 0
M  V30 974 H 89.6269 -4.41429 -0.243485 0
M  V30 975 N 88.686 -0.835752 -1.33615 0
M  V30 976 C 90.102 -0.523139 -1.50783 0
M  V30 977 C 90.302 0.950171 -1.77691 0
M  V30 978 O 89.358 1.73411 -1.83534 0
M  V30 979 C 90.671 -1.39378 -2.66448 0
M  V30 980 C 92.219 -1.39223 -2.80332 0
M  V30 981 C 92.694 -2.24765 -3.99055 0
M  V30 982 N 94.185 -2.22458 -4.06284 0
M  V30 983 C 94.92 -2.85386 -4.97336 0
M  V30 984 N 94.416 -3.57354 -5.93523 0
M  V30 985 N 96.209 -2.74872 -4.90308 0
M  V30 986 H 88.36 -1.78952 -1.14411 0
M  V30 987 H 90.623 -0.763297 -0.562212 0
M  V30 988 H 90.329 -2.44061 -2.53234 0
M  V30 989 H 90.203 -1.0676 -3.61776 0
M  V30 990 H 92.59 -0.353136 -2.92979 0
M  V30 991 H 92.671 -1.75846 -1.85773 0
M  V30 992 H 92.315 -3.28732 -3.87167 0
M  V30 993 H 92.245 -1.85485 -4.92852 0
M  V30 994 H 94.736 -1.70119 -3.37443 0
M  V30 995 H 95.049 -4.02584 -6.59656 0
M  V30 996 H 93.394 -3.61461 -5.93608 0
M  V30 997 H 96.585 -2.18213 -4.14126 0
M  V30 998 H 96.758 -3.24199 -5.61069 0
M  V30 999 N 90.1641 1.46063 -0.591896 0
M  V30 1000 C 91.4411 1.95595 -0.0137119 0
M  V30 1001 C 91.8211 1.5345 1.4497 0
M  V30 1002 O 91.1691 0.789543 2.14426 0
M  V30 1003 C 91.3791 3.48453 -0.195373 0
M  V30 1004 C 92.7271 4.24546 -0.0679765 0
M  V30 1005 O 93.7511 3.55982 -0.124681 0
M  V30 1006 O 92.6101 5.46467 0.0600579 0
M  V30 1007 H 89.7041 0.825795 0.0446279 0
M  V30 1008 H 92.2501 1.56303 -0.660859 0
M  V30 1009 H 91.0221 3.72045 -1.21235 0
M  V30 1010 H 90.6451 3.94597 0.487775 0
M  V30 1011 N 91.6422 0.330177 1.54103 0
M  V30 1012 C 92.5922 -0.548456 2.21305 0
M  V30 1013 C 93.5762 -1.07651 1.19583 0
M  V30 1014 O 94.7682 -1.01243 1.45186 0
M  V30 1015 C 91.8972 -1.70559 2.97934 0
M  V30 1016 C 90.9832 -1.19212 4.07 0
M  V30 1017 N 91.3742 -0.398831 5.04225 0
M  V30 1018 C 89.6722 -1.47024 4.2107 0
M  V30 1019 C 90.3732 -0.121761 5.81573 0
M  V30 1020 N 89.3492 -0.709722 5.38947 0
M  V30 1021 H 93.1512 0.0648483 2.93828 0
M  V30 1022 H 90.6652 0.136363 1.61826 0
M  V30 1023 H 92.6622 -2.34688 3.44568 0
M  V30 1024 H 91.3222 -2.32231 2.26934 0
M  V30 1025 H 92.3332 -0.0410869 5.17884 0
M  V30 1026 H 89.0102 -2.09232 3.61287 0
M  V30 1027 H 90.4002 0.517298 6.69906 0
M  V30 1028 N 93.1203 -1.57491 0.0584922 0
M  V30 1029 C 94.0503 -2.14988 -0.911178 0
M  V30 1030 C 95.0313 -1.07343 -1.31952 0
M  V30 1031 O 96.2163 -1.35318 -1.39294 0
M  V30 1032 C 93.3463 -2.70078 -2.18347 0
M  V30 1033 C 92.3003 -3.82771 -1.91495 0
M  V30 1034 C 91.6263 -4.24408 -3.25241 0
M  V30 1035 C 92.9263 -5.07592 -1.23075 0
M  V30 1036 H 94.6203 -2.96263 -0.432246 0
M  V30 1037 H 92.1663 -1.42512 -0.206469 0
M  V30 1038 H 94.1193 -3.08943 -2.86587 0
M  V30 1039 H 92.8433 -1.86005 -2.68458 0
M  V30 1040 H 91.5023 -3.44389 -1.25664 0
M  V30 1041 H 91.1503 -3.37275 -3.73168 0
M  V30 1042 H 90.8503 -5.00366 -3.08071 0
M  V30 1043 H 92.3743 -4.65879 -3.94701 0
M  V30 1044 H 93.7883 -5.43857 -1.81362 0
M  V30 1045 H 92.1853 -5.88741 -1.16207 0
M  V30 1046 H 93.2553 -4.84454 -0.207847 0
M  V30 1047 N 94.5984 0.214957 -1.56127 0
M  V30 1048 C 95.8444 0.939762 -1.79712 0
M  V30 1049 C 96.1774 1.83723 -0.629247 0
M  V30 1050 O 95.4524 1.90925 0.371197 0
M  V30 1051 C 95.7354 1.77306 -3.13424 0
M  V30 1052 C 95.5884 0.90164 -4.40671 0
M  V30 1053 C 96.9074 2.74956 -3.43638 0
M  V30 1054 H 94.0264 0.340214 -0.653776 0
M  V30 1055 H 96.6684 0.20824 -1.88855 0
M  V30 1056 H 94.8184 2.39673 -3.0576 0
M  V30 1057 H 96.4904 0.294206 -4.60361 0
M  V30 1058 H 94.7334 0.207368 -4.33304 0
M  V30 1059 H 95.4044 1.51923 -5.30682 0
M  V30 1060 H 97.8804 2.22724 -3.51473 0
M  V30 1061 H 96.7564 3.30358 -4.38355 0
M  V30 1062 H 97.0174 3.53023 -2.66134 0
M  V30 1063 N 96.0765 1.50051 0.48192 0
M  V30 1064 C 97.3245 1.60181 1.23234 0
M  V30 1065 C 97.6455 0.299176 1.92691 0
M  V30 1066 O 96.9155 -0.682708 1.83619 0
M  V30 1067 H 95.4955 0.590232 0.457859 0
M  V30 1068 H 98.1575 1.86775 0.556881 0
M  V30 1069 H 97.2535 2.40753 1.98607 0
M  V30 1070 N 97.5546 -0.734337 1.39446 0
M  V30 1071 C 98.9706 -1.03997 1.21065 0
M  V30 1072 C 99.1706 -2.01369 0.0727019 0
M  V30 1073 O 98.2266 -2.45856 -0.575426 0
M  V30 1074 C 99.5396 -1.60163 2.54496 0
M  V30 1075 C 101.088 -1.7224 2.61347 0
M  V30 1076 C 101.563 -2.31814 3.95002 0
M  V30 1077 N 103.054 -2.39223 3.96644 0
M  V30 1078 C 103.789 -2.86258 4.96834 0
M  V30 1079 N 103.285 -3.33184 6.07421 0
M  V30 1080 N 105.078 -2.85473 4.84213 0
M  V30 1081 H 97.2286 -0.0885624 2.12215 0
M  V30 1082 H 99.4916 -0.10191 0.942506 0
M  V30 1083 H 99.1976 -0.960811 3.38321 0
M  V30 1084 H 99.0716 -2.5896 2.74262 0
M  V30 1085 H 101.459 -2.35443 1.77906 0
M  V30 1086 H 101.54 -0.720939 2.4543 0
M  V30 1087 H 101.184 -1.69238 4.78875 0
M  V30 1088 H 101.114 -3.32638 4.08239 0
M  V30 1089 H 103.605 -2.06057 3.16779 0
M  V30 1090 H 103.918 -3.67586 6.7978 0
M  V30 1091 H 102.263 -3.31191 6.11013 0
M  V30 1092 H 105.454 -2.48136 3.96921 0
M  V30 1093 H 105.627 -3.21814 5.62441 0
M  V30 1094 N 99.0327 -1.24633 -0.964593 0
M  V30 1095 C 100.279 -1.09957 -1.71117 0
M  V30 1096 C 100.634 0.357422 -1.89051 0
M  V30 1097 O 99.9267 1.26029 -1.44317 0
M  V30 1098 C 100.121 -1.7763 -3.10133 0
M  V30 1099 C 99.9497 -3.29759 -3.05759 0
M  V30 1100 C 98.7197 -3.98981 -3.10068 0
M  V30 1101 C 100.918 -4.26305 -2.87695 0
M  V30 1102 N 98.8997 -5.37966 -2.95747 0
M  V30 1103 C 100.271 -5.52308 -2.81702 0
M  V30 1104 C 102.326 -4.16842 -2.72299 0
M  V30 1105 C 101.029 -6.69931 -2.61887 0
M  V30 1106 C 103.055 -5.34147 -2.53853 0
M  V30 1107 C 102.417 -6.59084 -2.48572 0
M  V30 1108 H 98.5157 -0.457003 -0.634564 0
M  V30 1109 H 101.1 -1.57592 -1.14337 0
M  V30 1110 H 99.2707 -1.32504 -3.65099 0
M  V30 1111 H 101.003 -1.55786 -3.73514 0
M  V30 1112 H 97.7577 -3.50169 -3.18871 0
M  V30 1113 H 98.1817 -6.10877 -2.91818 0
M  V30 1114 H 102.824 -3.21007 -2.75163 0
M  V30 1115 H 100.542 -7.65886 -2.57767 0
M  V30 1116 H 104.128 -5.28678 -2.4288 0
M  V30 1117 H 103.008 -7.48324 -2.34481 0
M  V30 1118 N 100.511 1.16574 -1.06058 0
M  V30 1119 C 101.76 1.86385 -0.770944 0
M  V30 1120 C 102.073 1.82448 0.705129 0
M  V30 1121 O 103.279 2.47815 1.10905 0
M  V30 1122 C 101.735 3.34466 -1.32893 0
M  V30 1123 C 101.343 3.46883 -2.83507 0
M  V30 1124 C 103.087 4.09548 -1.11672 0
M  V30 1125 C 100.994 4.89036 -3.32562 0
M  V30 1126 H 99.9238 0.698181 -0.284709 0
M  V30 1127 H 102.575 1.31583 -1.27899 0
M  V30 1128 H 100.957 3.88859 -0.748662 0
M  V30 1129 H 102.131 3.02663 -3.47465 0
M  V30 1130 H 100.446 2.85232 -3.03368 0
M  V30 1131 H 103.043 5.14434 -1.45814 0
M  V30 1132 H 103.386 4.16264 -0.0549535 0
M  V30 1133 H 103.919 3.61387 -1.66265 0
M  V30 1134 H 100.658 4.87499 -4.38207 0
M  V30 1135 H 100.178 5.3389 -2.73351 0
M  V30 1136 H 101.857 5.57843 -3.2775 0
M  V30 1137 N 101.989 0.842826 1.3317 0
M  V30 1138 C 103.405 0.531128 1.50503 0
M  V30 1139 C 103.605 -0.940734 1.78192 0
M  V30 1140 O 102.661 -1.72436 1.84451 0
M  V30 1141 C 103.974 1.40789 2.65705 0
M  V30 1142 C 105.522 1.40708 2.79589 0
M  V30 1143 C 105.997 2.26878 3.97857 0
M  V30 1144 N 107.488 2.24609 4.05099 0
M  V30 1145 C 108.223 2.88019 4.95815 0
M  V30 1146 N 107.719 3.60496 5.9162 0
M  V30 1147 N 109.512 2.77469 4.88843 0
M  V30 1148 H 101.663 1.79557 1.1346 0
M  V30 1149 H 103.926 0.766267 0.558156 0
M  V30 1150 H 103.632 2.454 2.51936 0
M  V30 1151 H 103.506 1.08677 3.61205 0
M  V30 1152 H 105.893 0.368668 2.92788 0
M  V30 1153 H 105.974 1.76829 1.84838 0
M  V30 1154 H 105.618 3.3078 3.85418 0
M  V30 1155 H 105.548 1.88096 4.91861 0
M  V30 1156 H 108.039 1.71906 3.36536 0
M  V30 1157 H 108.352 4.06076 6.57512 0
M  V30 1158 H 106.697 3.64604 5.91683 0
M  V30 1159 H 109.888 2.20406 4.12963 0
M  V30 1160 H 110.061 3.2717 5.59342 0
M  V30 1161 N 103.467 -1.45747 0.599634 0
M  V30 1162 C 104.695 -2.06668 0.0978551 0
M  V30 1163 C 105.11 -1.44562 -1.21439 0
M  V30 1164 O 104.467 -0.556923 -1.73795 0
M  V30 1165 C 104.518 -3.61456 -0.0567044 0
M  V30 1166 O 104.239 -4.21242 1.20361 0
M  V30 1167 C 105.74 -4.39345 -0.590869 0
M  V30 1168 H 102.96 -0.667825 0.0651943 0
M  V30 1169 H 105.504 -1.87115 0.82511 0
M  V30 1170 H 103.659 -3.80378 -0.734251 0
M  V30 1171 H 104.073 -5.14323 1.02821 0
M  V30 1172 H 105.547 -5.48182 -0.648131 0
M  V30 1173 H 106.024 -4.08568 -1.61147 0
M  V30 1174 H 106.63 -4.25268 0.0523679 0
M  V30 1175 N 104.945 -0.338344 -1.53925 0
M  V30 1176 C 105.877 0.555117 -2.22376 0
M  V30 1177 C 106.89 1.06812 -1.22862 0
M  V30 1178 O 108.079 0.979163 -1.49247 0
M  V30 1179 C 105.179 1.77609 -2.88631 0
M  V30 1180 C 104.352 1.39927 -4.14414 0
M  V30 1181 C 103.411 2.47936 -4.64127 0
M  V30 1182 O 102.437 2.11461 -5.28463 0
M  V30 1183 N 103.639 3.79107 -4.39612 0
M  V30 1184 H 106.404 -0.0310778 -2.99684 0
M  V30 1185 H 103.965 -0.162226 -1.61085 0
M  V30 1186 H 105.957 2.49287 -3.18807 0
M  V30 1187 H 104.527 2.26978 -2.14941 0
M  V30 1188 H 103.747 0.513481 -3.90841 0
M  V30 1189 H 105.035 1.12341 -4.96243 0
M  V30 1190 H 104.433 4.11531 -3.88148 0
M  V30 1191 H 102.99 4.4697 -4.74406 0
M  V30 1192 N 106.423 1.57458 -0.0668435 0
M  V30 1193 C 107.355 2.09413 0.931601 0
M  V30 1194 C 108.368 1.02522 1.26464 0
M  V30 1195 O 109.557 1.30049 1.22269 0
M  V30 1196 C 106.657 2.53537 2.24882 0
M  V30 1197 C 105.83 3.83944 2.09537 0
M  V30 1198 C 104.889 4.14214 3.2452 0
M  V30 1199 O 103.915 4.83891 2.9973 0
M  V30 1200 N 105.117 3.67367 4.49469 0
M  V30 1201 H 107.882 2.95699 0.488048 0
M  V30 1202 H 105.443 1.61462 0.119009 0
M  V30 1203 H 107.435 2.70853 3.00701 0
M  V30 1204 H 106.005 1.72415 2.60753 0
M  V30 1205 H 105.225 3.76057 1.18215 0
M  V30 1206 H 106.513 4.69312 1.96529 0
M  V30 1207 H 105.911 3.11068 4.72497 0
M  V30 1208 H 104.468 3.89891 5.2233 0
M  V30 1209 N 107.901 -0.206675 1.56239 0
M  V30 1210 C 108.851 -1.26 1.90021 0
M  V30 1211 C 109.835 -1.41566 0.764721 0
M  V30 1212 O 111.027 -1.44131 1.02739 0
M  V30 1213 C 108.156 -2.6073 2.23326 0
M  V30 1214 C 107.242 -2.49005 3.43304 0
M  V30 1215 N 107.633 -2.06946 4.61527 0
M  V30 1216 C 105.931 -2.79927 3.47213 0
M  V30 1217 C 106.632 -2.06832 5.43687 0
M  V30 1218 N 105.608 -2.47892 4.83788 0
M  V30 1219 H 109.41 -0.925955 2.78932 0
M  V30 1220 H 106.924 -0.415172 1.57003 0
M  V30 1221 H 108.921 -3.36798 2.45708 0
M  V30 1222 H 107.581 -2.94968 1.35735 0
M  V30 1223 H 108.592 -1.77839 4.86409 0
M  V30 1224 H 105.269 -3.18438 2.70006 0
M  V30 1225 H 106.659 -1.76312 6.48354 0
M  V30 1226 N 109.379 -1.50304 -0.473955 0
M  V30 1227 C 110.609 -1.64663 -1.24778 0
M  V30 1228 C 111.017 -0.328174 -1.86332 0
M  V30 1229 O 110.36 0.699536 -1.69859 0
M  V30 1230 C 110.422 -2.6778 -2.39863 0
M  V30 1231 C 110.086 -4.11413 -1.98969 0
M  V30 1232 C 111.083 -4.97372 -1.51385 0
M  V30 1233 C 108.768 -4.57312 -2.07777 0
M  V30 1234 C 110.762 -6.27277 -1.13148 0
M  V30 1235 C 108.449 -5.87223 -1.69152 0
M  V30 1236 C 109.447 -6.72031 -1.21915 0
M  V30 1237 O 109.135 -7.99518 -0.838237 0
M  V30 1238 H 108.867 -0.556602 -0.383627 0
M  V30 1239 H 111.421 -1.9726 -0.572491 0
M  V30 1240 H 109.651 -2.30419 -3.10554 0
M  V30 1241 H 111.34 -2.71388 -3.01833 0
M  V30 1242 H 112.106 -4.63128 -1.44004 0
M  V30 1243 H 107.985 -3.91449 -2.43493 0
M  V30 1244 H 111.529 -6.93425 -0.762077 0
M  V30 1245 H 107.426 -6.20989 -1.76191 0
M  V30 1246 H 108.194 -8.12764 -0.967339 0
M  V30 1247 N 110.857 0.726932 -1.39834 0
M  V30 1248 C 112.087 1.51393 -1.40583 0
M  V30 1249 C 112.495 1.892 -0.000740625 0
M  V30 1250 O 111.838 1.55189 0.982951 0
M  V30 1251 C 111.9 2.82588 -2.22226 0
M  V30 1252 C 111.564 2.67169 -3.70769 0
M  V30 1253 C 112.561 2.3518 -4.63666 0
M  V30 1254 C 110.246 2.83788 -4.14451 0
M  V30 1255 C 112.24 2.20002 -5.98229 0
M  V30 1256 C 109.927 2.68229 -5.49087 0
M  V30 1257 C 110.925 2.36382 -6.4079 0
M  V30 1258 O 110.613 2.2093 -7.72946 0
M  V30 1259 H 110.345 0.474168 -0.48181 0
M  V30 1260 H 112.899 0.905247 -1.84376 0
M  V30 1261 H 111.129 3.45746 -1.73195 0
M  V30 1262 H 112.818 3.44247 -2.15055 0
M  V30 1263 H 113.584 2.21984 -4.31217 0
M  V30 1264 H 109.463 3.07566 -3.43401 0
M  V30 1265 H 113.007 1.95067 -6.69772 0
M  V30 1266 H 108.904 2.81006 -5.81125 0
M  V30 1267 H 109.672 2.35937 -7.83757 0
M  V30 1268 N 112.336 1.25143 0.95797 0
M  V30 1269 C 113.246 1.06968 2.08794 0
M  V30 1270 C 114.262 0.00773911 1.73998 0
M  V30 1271 O 115.438 0.207972 2.00323 0
M  V30 1272 C 112.503 0.68691 3.39827 0
M  V30 1273 C 111.564 1.82641 3.88511 0
M  V30 1274 C 110.797 1.46181 5.1329 0
M  V30 1275 O 111.02 0.355971 5.69288 0
M  V30 1276 O 109.954 2.29085 5.566 0
M  V30 1277 H 113.78 2.01723 2.27027 0
M  V30 1278 H 111.365 1.04051 1.07209 0
M  V30 1279 H 113.247 0.485417 4.18595 0
M  V30 1280 H 111.922 -0.231417 3.22872 0
M  V30 1281 H 110.829 2.08274 3.10762 0
M  V30 1282 H 112.162 2.72386 4.09959 0
M  V30 1283 N 113.814 -1.1601 1.06675 0
M  V30 1284 C 115.23 -1.38622 0.790948 0
M  V30 1285 C 115.43 -1.92109 -0.607965 0
M  V30 1286 O 114.486 -2.12239 -1.36787 0
M  V30 1287 C 115.799 -2.36347 1.85905 0
M  V30 1288 C 117.347 -2.50023 1.88301 0
M  V30 1289 C 117.822 -3.51033 2.94176 0
M  V30 1290 N 119.313 -3.58563 2.93235 0
M  V30 1291 C 120.048 -4.36521 3.71803 0
M  V30 1292 N 119.544 -5.17869 4.602 0
M  V30 1293 N 121.337 -4.31541 3.60178 0
M  V30 1294 H 113.488 -0.796294 1.96908 0
M  V30 1295 H 115.751 -0.412597 0.853503 0
M  V30 1296 H 115.457 -2.04147 2.86386 0
M  V30 1297 H 115.331 -3.36042 1.71334 0
M  V30 1298 H 117.718 -2.81524 0.884769 0
M  V30 1299 H 117.799 -1.5035 2.06951 0
M  V30 1300 H 117.443 -3.20268 3.94196 0
M  V30 1301 H 117.373 -4.50445 2.72776 0
M  V30 1302 H 119.864 -3.00496 2.29152 0
M  V30 1303 H 120.177 -5.74578 5.16797 0
M  V30 1304 H 118.522 -5.17199 4.64253 0
M  V30 1305 H 121.713 -3.67051 2.90502 0
M  V30 1306 H 121.886 -4.9205 4.21653 0
M  V30 1307 N 115.292 -0.849877 -1.32721 0
M  V30 1308 C 116.569 -0.372405 -1.92022 0
M  V30 1309 C 116.949 1.1435 -1.77447 0
M  V30 1310 O 116.297 1.96296 -1.16962 0
M  V30 1311 C 116.507 -0.831482 -3.3895 0
M  V30 1312 C 117.855 -0.845882 -4.16089 0
M  V30 1313 O 118.879 -0.775806 -3.47649 0
M  V30 1314 O 117.738 -0.943753 -5.38289 0
M  V30 1315 H 114.832 -0.107667 -0.819961 0
M  V30 1316 H 117.378 -0.93646 -1.41522 0
M  V30 1317 H 116.15 -1.87448 -3.4348 0
M  V30 1318 H 115.773 -0.24461 -3.96847 0
M  V30 1319 N 116.77 1.45427 -0.607355 0
M  V30 1320 C 118.181 1.85756 -0.187535 0
M  V30 1321 C 118.532 1.5077 1.25551 0
M  V30 1322 O 117.657 0.93427 1.95193 0
M  V30 1323 C 118.252 3.37154 -0.333572 0
M  V30 1324 C 116.811 3.76387 0.0315542 0
M  V30 1325 C 115.958 2.69377 -0.658117 0
M  V30 1326 H 118.909 1.36231 -0.81405 0
M  V30 1327 H 118.93 3.78014 0.43428 0
M  V30 1328 H 118.442 3.62586 -1.38393 0
M  V30 1329 H 116.543 3.56571 1.0811 0
M  V30 1330 H 116.656 4.77731 -0.361935 0
M  V30 1331 H 115.02 2.5452 -0.0957873 0
M  V30 1332 H 115.803 2.97646 -1.7106 0
M  V30 1333 N 118.248 0.346503 1.53744 0
M  V30 1334 C 119.195 -0.508914 2.25119 0
M  V30 1335 C 120.165 -1.09315 1.25058 0
M  V30 1336 O 121.35 -1.12921 1.53797 0
M  V30 1337 C 118.49 -1.65246 3.02965 0
M  V30 1338 C 117.603 -1.09525 4.17886 0
M  V30 1339 C 116.738 -2.20634 4.83212 0
M  V30 1340 C 115.777 -1.62279 5.90196 0
M  V30 1341 N 114.914 -2.67143 6.49291 0
M  V30 1342 H 119.754 0.106283 2.9781 0
M  V30 1343 H 117.291 0.0642227 1.4696 0
M  V30 1344 H 119.249 -2.32574 3.4636 0
M  V30 1345 H 117.879 -2.2386 2.32565 0
M  V30 1346 H 116.931 -0.312818 3.79112 0
M  V30 1347 H 118.243 -0.628444 4.94825 0
M  V30 1348 H 117.397 -2.95821 5.29693 0
M  V30 1349 H 116.136 -2.70659 4.05703 0
M  V30 1350 H 115.141 -0.855989 5.43096 0
M  V30 1351 H 116.366 -1.13102 6.69615 0
M  V30 1352 H 114.312 -3.16417 5.74645 0
M  V30 1353 H 114.229 -2.25093 7.21713 0
M  V30 1354 H 115.497 -3.4209 7.00425 0
M  V30 1355 N 119.726 -1.57421 0.075193 0
M  V30 1356 C 121.142 -1.57099 -0.281444 0
M  V30 1357 C 121.342 -1.08486 -1.69803 0
M  V30 1358 O 120.398 -0.752279 -2.41033 0
M  V30 1359 C 121.711 -3.00571 -0.0880041 0
M  V30 1360 C 123.259 -3.12605 -0.157281 0
M  V30 1361 C 123.734 -4.57999 0.0079207 0
M  V30 1362 N 125.225 -4.63176 -0.0475725 0
M  V30 1363 C 125.96 -5.73373 0.0557876 0
M  V30 1364 N 125.456 -6.92473 0.21286 0
M  V30 1365 N 127.249 -5.621 -0.00152098 0
M  V30 1366 H 119.4 -1.87335 1.00098 0
M  V30 1367 H 121.663 -0.86377 0.390646 0
M  V30 1368 H 121.369 -3.40262 0.889629 0
M  V30 1369 H 121.243 -3.67754 -0.838875 0
M  V30 1370 H 123.63 -2.72798 -1.1254 0
M  V30 1371 H 123.711 -2.48053 0.62475 0
M  V30 1372 H 123.355 -4.98496 0.972824 0
M  V30 1373 H 123.285 -5.20586 -0.793556 0
M  V30 1374 H 125.776 -3.7753 -0.167244 0
M  V30 1375 H 126.089 -7.72279 0.283781 0
M  V30 1376 H 124.434 -6.94556 0.248267 0
M  V30 1377 H 127.625 -4.67938 -0.122958 0
M  V30 1378 H 127.798 -6.47948 0.0824844 0
M  V30 1379 N 121.204 0.198386 -1.56346 0
M  V30 1380 C 122.453 0.917451 -1.79627 0
M  V30 1381 C 122.766 1.8456 -0.64784 0
M  V30 1382 O 123.972 2.60504 -0.764859 0
M  V30 1383 C 122.428 1.68175 -3.18191 0
M  V30 1384 C 122.036 0.798589 -4.40825 0
M  V30 1385 C 123.78 2.39065 -3.50782 0
M  V30 1386 C 121.687 1.56157 -5.70411 0
M  V30 1387 H 120.617 0.346317 -0.669762 0
M  V30 1388 H 123.268 0.170801 -1.82703 0
M  V30 1389 H 121.65 2.47216 -3.09354 0
M  V30 1390 H 122.824 0.0470665 -4.60776 0
M  V30 1391 H 121.139 0.200686 -4.15916 0
M  V30 1392 H 123.736 2.96692 -4.44835 0
M  V30 1393 H 124.079 3.13091 -2.74371 0
M  V30 1394 H 124.612 1.66993 -3.61052 0
M  V30 1395 H 121.351 0.864142 -6.49779 0
M  V30 1396 H 120.871 2.2871 -5.54483 0
M  V30 1397 H 122.55 2.11622 -6.11412 0
M  V30 1398 N 122.682 1.50554 0.465978 0
M  V30 1399 C 123.912 1.65323 1.23903 0
M  V30 1400 C 124.32 0.338051 1.86155 0
M  V30 1401 O 123.663 -0.690518 1.70228 0
M  V30 1402 C 123.725 2.69048 2.3844 0
M  V30 1403 C 123.389 4.12462 1.96784 0
M  V30 1404 C 124.386 4.98168 1.48745 0
M  V30 1405 C 122.071 4.58407 2.05349 0
M  V30 1406 C 124.065 6.27868 1.0982 0
M  V30 1407 C 121.752 5.88112 1.66035 0
M  V30 1408 C 122.75 6.72668 1.18349 0
M  V30 1409 O 122.438 7.99951 0.795825 0
M  V30 1410 H 122.17 0.558629 0.38067 0
M  V30 1411 H 124.724 1.97561 0.562022 0
M  V30 1412 H 122.954 2.32062 3.09328 0
M  V30 1413 H 124.643 2.72985 3.0039 0
M  V30 1414 H 125.409 4.63885 1.41546 0
M  V30 1415 H 121.288 3.92735 2.41414 0
M  V30 1416 H 124.832 6.93819 0.725293 0
M  V30 1417 H 120.729 6.21914 1.72895 0
M  V30 1418 H 121.497 8.13265 0.924222 0
M  V30 1419 N 124.16 -0.719506 1.40217 0
M  V30 1420 C 125.39 -1.50646 1.41384 0
M  V30 1421 C 125.798 -1.89197 0.0107743 0
M  V30 1422 O 125.141 -1.55709 -0.974708 0
M  V30 1423 C 125.203 -2.81405 2.23722 0
M  V30 1424 C 124.867 -2.65199 3.72181 0
M  V30 1425 C 125.864 -2.32717 4.64907 0
M  V30 1426 C 123.549 -2.81586 4.1595 0
M  V30 1427 C 125.543 -2.16827 5.99387 0
M  V30 1428 C 123.23 -2.65313 5.50502 0
M  V30 1429 C 124.228 -2.32981 6.42035 0
M  V30 1430 O 123.916 -2.16827 7.74107 0
M  V30 1431 H 123.648 -0.471606 0.484318 0
M  V30 1432 H 126.202 -0.895456 1.84853 0
M  V30 1433 H 124.432 -3.44823 1.75026 0
M  V30 1434 H 126.121 -3.43102 2.16878 0
M  V30 1435 H 126.887 -2.19694 4.32388 0
M  V30 1436 H 122.766 -3.0574 3.45027 0
M  V30 1437 H 126.31 -1.91513 6.70797 0
M  V30 1438 H 122.207 -2.7792 5.82607 0
M  V30 1439 H 122.975 -2.31778 7.84998 0
M  V30 1440 N 125.638 -1.25649 -0.95132 0
M  V30 1441 C 126.568 -1.08808 -2.06599 0
M  V30 1442 C 127.549 0.00382547 -1.701 0
M  V30 1443 O 128.734 -0.166325 -1.93486 0
M  V30 1444 C 125.864 -0.709542 -3.39975 0
M  V30 1445 C 124.818 -1.75206 -3.90496 0
M  V30 1446 C 124.144 -1.22811 -5.20405 0
M  V30 1447 C 125.444 -3.15153 -4.16504 0
M  V30 1448 H 127.138 -2.02048 -2.20946 0
M  V30 1449 H 124.684 -0.972835 -1.06169 0
M  V30 1450 H 126.637 -0.578649 -4.17408 0
M  V30 1451 H 125.361 0.258556 -3.25575 0
M  V30 1452 H 124.02 -1.87145 -3.15234 0
M  V30 1453 H 123.668 -0.250145 -5.02378 0
M  V30 1454 H 123.368 -1.92492 -5.55176 0
M  V30 1455 H 124.892 -1.10968 -6.00432 0
M  V30 1456 H 126.306 -3.06349 -4.84586 0
M  V30 1457 H 124.703 -3.82333 -4.62538 0
M  V30 1458 H 125.773 -3.61966 -3.22658 0
M  V30 1459 N 127.117 1.15442 -1.07289 0
M  V30 1460 C 128.342 1.90638 -0.816828 0
M  V30 1461 C 128.767 1.77445 0.624083 0
M  V30 1462 O 128.125 1.10671 1.43602 0
M  V30 1463 C 128.173 3.39008 -1.22906 0
M  V30 1464 O 127.277 4.10701 -0.373975 0
M  V30 1465 H 126.618 0.593555 -0.297638 0
M  V30 1466 H 129.148 1.46198 -1.43134 0
M  V30 1467 H 129.158 3.89801 -1.20497 0
M  V30 1468 H 127.833 3.47929 -2.27856 0
M  V30 1469 H 126.41 3.70046 -0.460499 0
M  V30 1470 N 128.595 0.856903 1.32268 0
M  V30 1471 C 129.525 0.31858 2.31316 0
M  V30 1472 C 130.506 -0.583487 1.59779 0
M  V30 1473 O 131.691 -0.503259 1.87566 0
M  V30 1474 C 128.821 -0.491979 3.43798 0
M  V30 1475 C 127.775 0.315849 4.26833 0
M  V30 1476 C 127.101 -0.619586 5.31098 0
M  V30 1477 C 128.401 1.54282 4.98993 0
M  V30 1478 H 130.095 1.14621 2.76591 0
M  V30 1479 H 127.641 0.552613 1.32974 0
M  V30 1480 H 129.594 -0.879012 4.1213 0
M  V30 1481 H 128.318 -1.35299 2.97257 0
M  V30 1482 H 126.977 0.684664 3.6015 0
M  V30 1483 H 126.625 -1.47751 4.8081 0
M  V30 1484 H 126.325 -0.0830621 5.87541 0
M  V30 1485 H 127.849 -1.00375 6.02293 0
M  V30 1486 H 129.263 1.22796 5.59995 0
M  V30 1487 H 127.66 2.01745 5.65172 0
M  V30 1488 H 128.73 2.30285 4.26728 0
M  V30 1489 N 130.073 -1.45103 0.615059 0
M  V30 1490 C 130.983 -2.34382 -0.101034 0
M  V30 1491 C 131.999 -1.51681 -0.852585 0
M  V30 1492 O 133.175 -1.8446 -0.808484 0
M  V30 1493 C 130.24 -3.29417 -1.08099 0
M  V30 1494 C 129.301 -4.28025 -0.330577 0
M  V30 1495 C 128.534 -5.1852 -1.26385 0
M  V30 1496 O 128.757 -5.12598 -2.50198 0
M  V30 1497 O 127.691 -5.97122 -0.756866 0
M  V30 1498 H 131.517 -2.97033 0.632855 0
M  V30 1499 H 129.102 -1.4461 0.375293 0
M  V30 1500 H 130.984 -3.87958 -1.6452 0
M  V30 1501 H 129.659 -2.69321 -1.79577 0
M  V30 1502 H 128.566 -3.73078 0.276283 0
M  V30 1503 H 129.899 -4.90997 0.343866 0
M  V30 1504 N 131.551 -0.354651 -1.53558 0
M  V30 1505 C 132.798 0.238443 -2.01091 0
M  V30 1506 C 133.126 1.49663 -1.24222 0
M  V30 1507 O 132.381 1.93049 -0.321003 0
M  V30 1508 C 132.68 0.587121 -3.52545 0
M  V30 1509 C 132.346 -0.575472 -4.47213 0
M  V30 1510 C 131.008 -0.894497 -4.72813 0
M  V30 1511 C 133.36 -1.35489 -5.03281 0
M  V30 1512 C 130.688 -1.99511 -5.51736 0
M  V30 1513 C 133.04 -2.44583 -5.83405 0
M  V30 1514 C 131.704 -2.77033 -6.07296 0
M  V30 1515 H 130.974 0.0872526 -0.735845 0
M  V30 1516 H 133.621 -0.484859 -1.8526 0
M  V30 1517 H 131.926 1.39129 -3.66265 0
M  V30 1518 H 133.623 1.05809 -3.86789 0
M  V30 1519 H 130.213 -0.316774 -4.27428 0
M  V30 1520 H 134.397 -1.12167 -4.83459 0
M  V30 1521 H 129.653 -2.25063 -5.68469 0
M  V30 1522 H 133.827 -3.05401 -6.25862 0
M  V30 1523 H 131.454 -3.6244 -6.68237 0
M  V30 1524 N 133.029 1.57378 -0.0835403 0
M  V30 1525 C 134.259 1.97975 0.590713 0
M  V30 1526 C 134.667 0.961083 1.62972 0
M  V30 1527 O 134.01 -0.0590879 1.83605 0
M  V30 1528 C 134.072 3.34915 1.3066 0
M  V30 1529 C 133.736 4.55069 0.419698 0
M  V30 1530 C 134.733 5.18868 -0.32749 0
M  V30 1531 C 132.418 5.0114 0.341137 0
M  V30 1532 C 134.412 6.27098 -1.14134 0
M  V30 1533 C 132.099 6.0924 -0.476374 0
M  V30 1534 C 133.097 6.72083 -1.21627 0
M  V30 1535 O 132.785 7.781 -2.02028 0
M  V30 1536 H 132.517 0.655818 0.163947 0
M  V30 1537 H 135.071 2.04807 -0.156021 0
M  V30 1538 H 133.301 3.24733 2.09966 0
M  V30 1539 H 134.99 3.60037 1.87424 0
M  V30 1540 H 135.756 4.84211 -0.276459 0
M  V30 1541 H 131.635 4.51996 0.90668 0
M  V30 1542 H 135.179 6.7608 -1.71935 0
M  V30 1543 H 131.076 6.43329 -0.528927 0
M  V30 1544 H 131.844 7.95034 -1.94586 0
M  V30 1545 N 134.507 -0.190092 1.56449 0
M  V30 1546 C 135.44 -1.26375 1.90012 0
M  V30 1547 C 136.418 -1.43705 0.760765 0
M  V30 1548 O 137.602 -1.59014 1.01226 0
M  V30 1549 C 134.729 -2.62962 2.13468 0
M  V30 1550 C 133.775 -2.62474 3.36169 0
M  V30 1551 S 134.608 -2.13412 4.91137 0
M  V30 1552 C 135.764 -3.51812 5.17667 0
M  V30 1553 H 135.997 -0.977181 2.80782 0
M  V30 1554 H 133.53 -0.393814 1.49293 0
M  V30 1555 H 135.488 -3.41583 2.27664 0
M  V30 1556 H 134.149 -2.88828 1.23439 0
M  V30 1557 H 133.342 -3.62918 3.49723 0
M  V30 1558 H 132.944 -1.91937 3.20992 0
M  V30 1559 H 135.236 -4.47706 5.08494 0
M  V30 1560 H 136.179 -3.43148 6.19399 0
M  V30 1561 H 136.587 -3.46956 4.45288 0
M  V30 1562 N 135.985 -1.50799 -0.457987 0
M  V30 1563 C 137.233 -1.62121 -1.2067 0
M  V30 1564 C 137.554 -0.329793 -1.92191 0
M  V30 1565 O 136.824 0.653409 -1.84682 0
M  V30 1566 H 135.404 -0.597441 -0.448411 0
M  V30 1567 H 138.066 -1.87637 -0.527096 0
M  V30 1568 H 137.162 -2.43882 -1.94751 0
M  V30 1569 N 137.463 0.71206 -1.40597 0
M  V30 1570 C 138.879 1.02058 -1.22704 0
M  V30 1571 C 139.079 2.01228 -0.104729 0
M  V30 1572 O 138.135 2.4674 0.53624 0
M  V30 1573 C 139.448 1.56094 -2.57012 0
M  V30 1574 C 140.996 1.6806 -2.64054 0
M  V30 1575 C 141.471 2.25501 -3.9864 0
M  V30 1576 N 142.962 2.32882 -4.004 0
M  V30 1577 C 143.697 2.78317 -5.01325 0
M  V30 1578 N 143.193 3.23478 -6.12645 0
M  V30 1579 N 144.986 2.77733 -4.88693 0
M  V30 1580 H 137.137 0.0547896 -2.12329 0
M  V30 1581 H 139.4 0.0869027 -0.944008 0
M  V30 1582 H 139.106 0.906865 -3.39807 0
M  V30 1583 H 138.98 2.54564 -2.78347 0
M  V30 1584 H 141.367 2.32583 -1.81629 0
M  V30 1585 H 141.448 0.681802 -2.46546 0
M  V30 1586 H 141.092 1.61598 -4.81506 0
M  V30 1587 H 141.022 3.26102 -4.13479 0
M  V30 1588 H 143.513 2.00991 -3.20017 0
M  V30 1589 H 143.826 3.56725 -6.85542 0
M  V30 1590 H 142.171 3.21429 -6.16205 0
M  V30 1591 H 145.362 2.4179 -4.00818 0
M  V30 1592 H 145.535 3.12826 -5.67489 0
M  V30 1593 N 138.941 1.26152 0.944643 0
M  V30 1594 C 140.169 1.14259 1.72489 0
M  V30 1595 C 140.584 -0.302555 1.8636 0
M  V30 1596 O 139.941 -1.20741 1.36849 0
M  V30 1597 C 139.992 1.80266 3.13347 0
M  V30 1598 O 139.713 3.19133 3.00143 0
M  V30 1599 C 141.214 1.74283 4.07603 0
M  V30 1600 H 138.434 0.398051 0.540181 0
M  V30 1601 H 140.978 1.66706 1.18446 0
M  V30 1602 H 139.133 1.31766 3.64303 0
M  V30 1603 H 139.547 3.51744 3.89071 0
M  V30 1604 H 141.021 2.25111 5.04013 0
M  V30 1605 H 141.498 0.708631 4.33446 0
M  V30 1606 H 142.104 2.22319 3.62567 0
M  V30 1607 N 140.419 -1.14872 1.07899 0
M  V30 1608 C 141.349 -2.2193 0.725887 0
M  V30 1609 C 142.33 -1.67622 -0.28927 0
M  V30 1610 O 143.515 -1.93533 -0.160787 0
M  V30 1611 C 140.645 -3.47061 0.128856 0
M  V30 1612 C 139.599 -4.14363 1.07178 0
M  V30 1613 C 138.925 -5.33636 0.337229 0
M  V30 1614 C 140.225 -4.63492 2.40775 0
M  V30 1615 H 141.919 -2.51724 1.62097 0
M  V30 1616 H 139.465 -1.20991 0.780838 0
M  V30 1617 H 141.418 -4.21199 -0.130147 0
M  V30 1618 H 140.142 -3.16617 -0.80134 0
M  V30 1619 H 138.801 -3.42173 1.3158 0
M  V30 1620 H 138.449 -4.99449 -0.596606 0
M  V30 1621 H 138.149 -5.79609 0.965788 0
M  V30 1622 H 139.673 -6.10539 0.0861567 0
M  V30 1623 H 141.087 -5.2913 2.20669 0
M  V30 1624 H 139.484 -5.20148 2.99276 0
M  V30 1625 H 140.554 -3.78834 3.02676 0
M  V30 1626 N 141.898 -0.863906 -1.31812 0
M  V30 1627 C 142.83 -0.272485 -2.27575 0
M  V30 1628 C 143.843 0.56104 -1.52827 0
M  V30 1629 O 145.032 0.384021 -1.7432 0
M  V30 1630 C 142.132 0.63283 -3.32939 0
M  V30 1631 C 141.305 -0.166902 -4.37081 0
M  V30 1632 C 140.364 0.665608 -5.21973 0
M  V30 1633 O 139.39 0.0958091 -5.69119 0
M  V30 1634 N 140.592 1.9787 -5.45736 0
M  V30 1635 H 143.357 -1.0954 -2.78964 0
M  V30 1636 H 140.918 -0.724791 -1.4477 0
M  V30 1637 H 142.91 1.19532 -3.86645 0
M  V30 1638 H 141.48 1.35642 -2.81638 0
M  V30 1639 H 140.7 -0.910838 -3.83533 0
M  V30 1640 H 141.988 -0.715874 -5.03739 0
M  V30 1641 H 141.386 2.46484 -5.09178 0
M  V30 1642 H 139.943 2.48911 -6.024 0
M  V30 1643 N 143.376 1.44774 -0.622745 0
M  V30 1644 C 144.324 2.32387 0.0994683 0
M  V30 1645 C 145.318 1.46859 0.844326 0
M  V30 1646 O 146.524 1.63254 0.758174 0
M  V30 1647 H 142.899 0.750273 0.0509291 0
M  V30 1648 H 144.87 2.91062 -0.65767 0
M  V30 1649 C 143.619 3.30723 1.07319 0
M  V30 1650 H 142.942 3.96541 0.509462 0
M  V30 1651 H 144.382 3.94725 1.54817 0
M  V30 1652 C 142.841 2.59021 2.15429 0
M  V30 1653 O 143.371 2.38286 3.23393 0
M  V30 1654 N 141.577 2.189 1.91131 0
M  V30 1655 H 141.124 2.35964 1.03337 0
M  V30 1656 H 141.082 1.71251 2.63668 0
M  V30 1657 N 144.854 0.36279 1.53368 0
M  V30 1658 C 146.082 -0.228613 2.05633 0
M  V30 1659 C 146.497 -1.42676 1.23649 0
M  V30 1660 O 145.854 -1.80394 0.27647 0
M  V30 1661 C 145.905 -0.624845 3.56059 0
M  V30 1662 O 145.626 0.525675 4.34935 0
M  V30 1663 C 147.127 -1.27493 4.24571 0
M  V30 1664 H 144.347 -0.0407183 0.669763 0
M  V30 1665 H 146.891 0.520352 1.97769 0
M  V30 1666 H 145.046 -1.32373 3.64083 0
M  V30 1667 H 145.46 0.205969 5.24095 0
M  V30 1668 H 146.934 -1.50277 5.31151 0
M  V30 1669 H 147.411 -2.23439 3.78116 0
M  V30 1670 H 148.017 -0.617558 4.20792 0
M  V30 1671 N 146.332 -1.57332 0.0918853 0
M  V30 1672 C 147.265 -2.09499 -0.904735 0
M  V30 1673 C 148.243 -1.00479 -1.27839 0
M  V30 1674 O 149.427 -1.27954 -1.38419 0
M  V30 1675 C 146.554 -2.56931 -2.2069 0
M  V30 1676 C 145.6 -3.77579 -1.98334 0
M  V30 1677 S 146.433 -5.21317 -1.22428 0
M  V30 1678 C 147.589 -5.72097 -2.53882 0
M  V30 1679 H 147.822 -2.93705 -0.460922 0
M  V30 1680 H 145.355 -1.53923 -0.121332 0
M  V30 1681 H 147.313 -2.84917 -2.95521 0
M  V30 1682 H 145.974 -1.72956 -2.62192 0
M  V30 1683 H 145.167 -4.08824 -2.94752 0
M  V30 1684 H 144.769 -3.5007 -1.31633 0
M  V30 1685 H 147.061 -5.80168 -3.49874 0
M  V30 1686 H 148.004 -6.70654 -2.27219 0
M  V30 1687 H 148.412 -5.00012 -2.62007 0
M  V30 1688 N 147.81 0.181792 -1.56548 0
M  V30 1689 C 149.056 0.901431 -1.81665 0
M  V30 1690 C 149.389 1.82347 -0.668075 0
M  V30 1691 O 148.664 1.91669 0.330615 0
M  V30 1692 C 148.947 1.70618 -3.17115 0
M  V30 1693 C 148.8 0.807964 -4.42484 0
M  V30 1694 C 150.119 2.67605 -3.49393 0
M  V30 1695 H 147.238 0.32627 -0.660846 0
M  V30 1696 H 149.88 0.168134 -1.89255 0
M  V30 1697 H 148.03 2.33133 -3.10775 0
M  V30 1698 H 149.702 0.19649 -4.60881 0
M  V30 1699 H 147.945 0.115411 -4.33646 0
M  V30 1700 H 148.616 1.40632 -5.33785 0
M  V30 1701 H 151.092 2.15218 -3.56118 0
M  V30 1702 H 149.968 3.20985 -4.45264 0
M  V30 1703 H 150.229 3.47298 -2.73563 0
M  V30 1704 N 149.288 1.51039 0.449983 0
M  V30 1705 C 150.236 1.71995 1.5659 0
M  V30 1706 C 151.23 0.586029 1.5894 0
M  V30 1707 O 152.436 0.76709 1.62837 0
M  V30 1708 H 148.811 0.543233 0.520001 0
M  V30 1709 H 150.782 2.65562 1.36085 0
M  V30 1710 C 149.531 1.8506 2.9436 0
M  V30 1711 H 148.854 2.71712 2.93279 0
M  V30 1712 H 150.294 2.0374 3.71842 0
M  V30 1713 C 148.753 0.607277 3.31382 0
M  V30 1714 O 149.283 -0.243903 4.00959 0
M  V30 1715 N 147.489 0.455073 2.87015 0
M  V30 1716 H 147.036 1.14879 2.30566 0
M  V30 1717 H 146.994 -0.375611 3.12148 0
M  V30 1718 N 150.766 -0.704594 1.40972 0
M  V30 1719 C 151.696 -1.83124 1.44872 0
M  V30 1720 C 152.677 -1.67281 0.30838 0
M  V30 1721 O 153.862 -1.87149 0.518556 0
M  V30 1722 C 150.992 -3.21181 1.32136 0
M  V30 1723 C 149.946 -3.51714 2.43888 0
M  V30 1724 C 149.272 -4.89032 2.16222 0
M  V30 1725 C 150.572 -3.516 3.86232 0
M  V30 1726 H 152.266 -1.80117 2.39161 0
M  V30 1727 H 149.812 -0.865145 1.15114 0
M  V30 1728 H 151.765 -3.99702 1.33479 0
M  V30 1729 H 150.489 -3.24791 0.343279 0
M  V30 1730 H 149.148 -2.75539 2.41813 0
M  V30 1731 H 148.796 -4.89256 1.16778 0
M  V30 1732 H 148.496 -5.10426 2.911 0
M  V30 1733 H 150.02 -5.69873 2.19265 0
M  V30 1734 H 151.434 -4.2014 3.9007 0
M  V30 1735 H 149.831 -3.84523 4.60719 0
M  V30 1736 H 150.901 -2.50757 4.15029 0
M  V30 1737 N 152.244 -1.26651 -0.937939 0
M  V30 1738 C 153.492 -1.12165 -1.68118 0
M  V30 1739 C 153.813 0.334983 -1.92101 0
M  V30 1740 O 153.083 1.23583 -1.52 0
M  V30 1741 H 151.663 -0.412093 -0.623048 0
M  V30 1742 H 154.325 -1.59027 -1.12678 0
M  V30 1743 H 153.421 -1.64289 -2.6536 0
M  V30 1744 N 153.722 1.14298 -1.08507 0
M  V30 1745 C 154.652 2.21542 -0.737646 0
M  V30 1746 C 155.633 1.67773 0.280377 0
M  V30 1747 O 156.818 1.93616 0.150521 0
M  V30 1748 C 153.948 3.46988 -0.147259 0
M  V30 1749 C 152.902 4.13789 -1.09374 0
M  V30 1750 C 152.228 5.33449 -0.365524 0
M  V30 1751 C 153.528 4.62208 -2.4323 0
M  V30 1752 H 155.222 2.5086 -1.6343 0
M  V30 1753 H 152.768 1.20576 -0.787243 0
M  V30 1754 H 154.721 4.21262 0.107808 0
M  V30 1755 H 153.445 3.17037 0.784538 0
M  V30 1756 H 152.104 3.4147 -1.33393 0
M  V30 1757 H 151.752 4.99759 0.57011 0
M  V30 1758 H 151.452 5.79088 -0.996512 0
M  V30 1759 H 152.976 6.10485 -0.118534 0
M  V30 1760 H 154.39 5.27952 -2.23472 0
M  V30 1761 H 152.787 5.18553 -3.02031 0
M  V30 1762 H 153.857 3.77224 -3.04681 0
M  V30 1763 N 155.201 0.870884 1.31352 0
M  V30 1764 C 156.133 0.28455 2.27427 0
M  V30 1765 C 157.146 -0.552927 1.53123 0
M  V30 1766 O 158.335 -0.374771 1.74521 0
M  V30 1767 C 155.435 -0.615164 3.3327 0
M  V30 1768 C 154.608 0.190079 4.36987 0
M  V30 1769 C 153.667 -0.637917 5.22319 0
M  V30 1770 O 152.693 -0.065626 5.69162 0
M  V30 1771 N 153.895 -1.94973 5.46778 0
M  V30 1772 H 156.66 1.11017 2.7838 0
M  V30 1773 H 154.221 0.732458 1.44384 0
M  V30 1774 H 156.213 -1.1748 3.87273 0
M  V30 1775 H 154.783 -1.34146 2.82354 0
M  V30 1776 H 154.003 0.931165 3.83044 0
M  V30 1777 H 155.291 0.742579 5.03352 0
M  V30 1778 H 154.689 -2.4378 5.10478 0
M  V30 1779 H 153.246 -2.45713 6.03712 0
M  V30 1780 N 156.679 -1.44442 0.630414 0
M  V30 1781 C 157.627 -2.32437 -0.0871428 0
M  V30 1782 C 158.621 -1.47304 -0.836525 0
M  V30 1783 O 159.827 -1.63653 -0.749506 0
M  V30 1784 H 156.202 -0.750533 -0.0469495 0
M  V30 1785 H 158.173 -2.90709 0.673096 0
M  V30 1786 C 156.922 -3.31288 -1.05563 0
M  V30 1787 H 156.245 -3.96805 -0.488426 0
M  V30 1788 H 157.685 -3.9554 -1.52721 0
M  V30 1789 C 156.144 -2.6016 -2.14052 0
M  V30 1790 O 156.674 -2.39997 -3.22124 0
M  V30 1791 N 154.88 -2.19911 -1.89967 0
M  V30 1792 H 154.427 -2.36509 -1.02085 0
M  V30 1793 H 154.385 -1.72646 -2.62756 0
M  V30 1794 N 158.157 -0.370918 -1.53173 0
M  V30 1795 C 159.12 0.460778 -2.24521 0
M  V30 1796 C 160.12 1.00536 -1.25496 0
M  V30 1797 O 161.31 0.890266 -1.49733 0
M  V30 1798 C 158.442 1.64457 -2.98608 0
M  V30 1799 H 159.635 -0.163613 -2.99453 0
M  V30 1800 H 157.188 -0.122699 -1.55818 0
M  V30 1801 H 157.923 2.30691 -2.2793 0
M  V30 1802 H 157.708 1.26099 -3.7127 0
M  V30 1803 H 159.198 2.23384 -3.5283 0
M  V30 1804 N 159.635 1.57281 -0.100228 0
M  V30 1805 C 160.875 1.96419 0.56558 0
M  V30 1806 C 161.239 0.981265 1.65031 0
M  V30 1807 O 162.44 1.26133 2.37369 0
M  V30 1808 C 160.711 3.39996 1.10171 0
M  V30 1809 S 162.27 4.01134 1.77867 0
M  V30 1810 H 159.088 0.68667 0.184406 0
M  V30 1811 H 161.69 1.94662 -0.180851 0
M  V30 1812 H 160.394 4.09296 0.300803 0
M  V30 1813 H 159.925 3.45361 1.88385 0
M  V30 1814 H 161.94 3.90358 3.06326 0
M  V30 1815 N 161.113 -0.173488 1.56642 0
M  V30 1816 C 162.39 -0.917617 1.7274 0
M  V30 1817 C 162.77 -2.00484 0.661027 0
M  V30 1818 O 162.118 -2.26184 -0.32453 0
M  V30 1819 C 162.328 -1.48433 3.15862 0
M  V30 1820 C 163.676 -1.95809 3.76754 0
M  V30 1821 O 164.7 -1.58231 3.19126 0
M  V30 1822 O 163.559 -2.65024 4.77938 0
M  V30 1823 H 160.653 -0.431772 0.705338 0
M  V30 1824 H 163.199 -0.161487 1.6893 0
M  V30 1825 H 161.971 -0.701715 3.84957 0
M  V30 1826 H 161.594 -2.30471 3.23989 0
M  V30 1827 N 162.591 -1.51276 -0.441967 0
M  V30 1828 C 163.501 -1.75092 -1.56141 0
M  V30 1829 C 164.517 -0.634963 -1.62001 0
M  V30 1830 O 165.693 -0.916686 -1.79329 0
M  V30 1831 C 162.758 -1.86666 -2.92158 0
M  V30 1832 C 161.819 -3.10506 -2.96453 0
M  V30 1833 C 161.052 -3.21519 -4.25982 0
M  V30 1834 O 161.275 -2.38586 -5.18105 0
M  V30 1835 O 160.209 -4.14465 -4.36466 0
M  V30 1836 H 164.035 -2.70044 -1.38961 0
M  V30 1837 H 161.62 -1.35722 -0.624499 0
M  V30 1838 H 163.502 -1.96292 -3.72891 0
M  V30 1839 H 162.177 -0.949014 -3.09476 0
M  V30 1840 H 161.084 -3.06363 -2.14692 0
M  V30 1841 H 162.417 -4.01945 -2.84079 0
M  V30 1842 N 164.069 0.697108 -1.41344 0
M  V30 1843 C 165.032 1.79281 -1.42797 0
M  V30 1844 C 166.032 1.57607 -0.318837 0
M  V30 1845 O 167.222 1.64309 -0.578642 0
M  V30 1846 C 164.354 3.17632 -1.23785 0
M  V30 1847 H 165.547 1.79385 -2.40335 0
M  V30 1848 H 163.1 0.904582 -1.27464 0
M  V30 1849 H 163.835 3.23167 -0.270814 0
M  V30 1850 H 163.62 3.34765 -2.04144 0
M  V30 1851 H 165.11 3.97617 -1.27633 0
M  V30 1852 N 165.547 1.27147 0.931209 0
M  V30 1853 C 166.796 1.12664 1.67302 0
M  V30 1854 C 167.109 -0.327718 1.92835 0
M  V30 1855 O 168.315 -0.593392 2.64936 0
M  V30 1856 C 166.771 1.9683 3.01307 0
M  V30 1857 C 166.379 3.46901 2.83485 0
M  V30 1858 C 168.123 1.90985 3.79111 0
M  V30 1859 C 166.03 4.23279 4.13024 0
M  V30 1860 H 164.96 0.41803 0.627509 0
M  V30 1861 H 167.611 1.51539 1.03481 0
M  V30 1862 H 165.993 1.50797 3.66164 0
M  V30 1863 H 167.167 4.00773 2.27415 0
M  V30 1864 H 165.482 3.54088 2.19113 0
M  V30 1865 H 168.079 2.45328 4.75098 0
M  V30 1866 H 168.422 0.882718 4.06834 0
M  V30 1867 H 168.955 2.34895 3.21044 0
M  V30 1868 H 165.694 5.26503 3.90481 0
M  V30 1869 H 165.214 3.74186 4.6877 0
M  V30 1870 H 166.893 4.32265 4.81411 0
M  V30 1871 N 167.025 -1.13721 1.09112 0
M  V30 1872 C 168.255 -1.88499 0.845671 0
M  V30 1873 C 168.663 -1.79218 -0.606432 0
M  V30 1874 O 168.006 -1.1544 -1.42896 0
M  V30 1875 C 168.068 -3.38954 1.19793 0
M  V30 1876 C 167.732 -3.72018 2.65428 0
M  V30 1877 C 168.729 -3.7153 3.63677 0
M  V30 1878 C 166.414 -4.01775 3.01467 0
M  V30 1879 C 168.408 -4.00336 4.95994 0
M  V30 1880 C 166.095 -4.30243 4.33975 0
M  V30 1881 C 167.093 -4.29508 5.31048 0
M  V30 1882 O 166.781 -4.5728 6.61173 0
M  V30 1883 H 166.513 -0.603702 0.304171 0
M  V30 1884 H 169.067 -1.44903 1.45576 0
M  V30 1885 H 167.297 -3.83039 0.530871 0
M  V30 1886 H 168.986 -3.95052 0.932146 0
M  V30 1887 H 169.752 -3.4862 3.37179 0
M  V30 1888 H 165.631 -4.01496 2.26544 0
M  V30 1889 H 169.175 -3.99678 5.71755 0
M  V30 1890 H 165.072 -4.52625 4.60219 0
M  V30 1891 H 165.84 -4.74964 6.66597 0
M  V30 1892 N 168.503 -0.877838 -1.30888 0
M  V30 1893 C 169.435 -0.296607 -2.27273 0
M  V30 1894 C 170.448 0.544799 -1.53414 0
M  V30 1895 O 171.637 0.365511 -1.74718 0
M  V30 1896 C 168.737 0.597481 -3.33592 0
M  V30 1897 C 167.91 -0.213251 -4.3688 0
M  V30 1898 C 166.969 0.610208 -5.2265 0
M  V30 1899 O 165.995 0.035441 -5.69189 0
M  V30 1900 N 167.197 1.92071 -5.47804 0
M  V30 1901 H 169.962 -1.12492 -2.77787 0
M  V30 1902 H 167.523 -0.740105 -1.43993 0
M  V30 1903 H 169.515 1.15425 -3.87891 0
M  V30 1904 H 168.085 1.32647 -2.83061 0
M  V30 1905 H 167.305 -0.951466 -3.82545 0
M  V30 1906 H 168.593 -0.769262 -5.02951 0
M  V30 1907 H 167.991 2.4107 -5.11763 0
M  V30 1908 H 166.548 2.42508 -6.05007 0
M  V30 1909 N 169.982 1.44106 -0.638065 0
M  V30 1910 C 170.912 2.33448 0.0494287 0
M  V30 1911 C 171.893 1.48606 0.827672 0
M  V30 1912 O 173.078 1.77308 0.792173 0
M  V30 1913 C 170.208 3.31771 1.02691 0
M  V30 1914 C 169.162 4.26485 0.359823 0
M  V30 1915 C 168.488 5.14729 1.44769 0
M  V30 1916 C 169.788 5.17056 -0.738296 0
M  V30 1917 H 171.482 2.91183 -0.696636 0
M  V30 1918 H 169.028 1.40014 -0.336456 0
M  V30 1919 H 170.981 3.93161 1.51666 0
M  V30 1920 H 169.705 2.7226 1.80395 0
M  V30 1921 H 168.364 3.66437 -0.10934 0
M  V30 1922 H 168.012 4.51566 2.21578 0
M  V30 1923 H 167.712 5.78913 1.00668 0
M  V30 1924 H 169.236 5.78991 1.93911 0
M  V30 1925 H 170.65 5.72342 -0.331354 0
M  V30 1926 H 169.047 5.89879 -1.10286 0
M  V30 1927 H 170.117 4.57652 -1.60258 0
M  V30 1928 N 171.46 0.379036 1.52974 0
M  V30 1929 C 172.708 -0.206014 2.01047 0
M  V30 1930 C 173.029 -1.48175 1.26765 0
M  V30 1931 O 172.299 -1.92085 0.384743 0
M  V30 1932 H 170.879 -0.0791184 0.742798 0
M  V30 1933 H 173.541 0.508366 1.88153 0
M  V30 1934 H 172.637 -0.423501 3.09213 0
M  V30 1935 N 172.938 -1.57226 0.108567 0
M  V30 1936 C 173.868 -2.17778 -0.84232 0
M  V30 1937 C 174.849 -1.11487 -1.2847 0
M  V30 1938 O 176.034 -1.39681 -1.34918 0
M  V30 1939 C 173.164 -2.76888 -2.09644 0
M  V30 1940 C 172.118 -3.88669 -1.79221 0
M  V30 1941 C 171.444 -4.34541 -3.11574 0
M  V30 1942 C 172.744 -5.11251 -1.06864 0
M  V30 1943 H 174.438 -2.97489 -0.337774 0
M  V30 1944 H 171.984 -1.43097 -0.161025 0
M  V30 1945 H 173.937 -3.17904 -2.76614 0
M  V30 1946 H 172.661 -1.94451 -2.62405 0
M  V30 1947 H 171.32 -3.48213 -1.14644 0
M  V30 1948 H 170.968 -3.48977 -3.62249 0
M  V30 1949 H 170.668 -5.09914 -2.91996 0
M  V30 1950 H 172.192 -4.782 -3.7968 0
M  V30 1951 H 173.606 -5.49352 -1.63968 0
M  V30 1952 H 172.003 -5.9214 -0.974178 0
M  V30 1953 H 173.073 -4.8487 -0.0536168 0
M  V30 1954 N 174.416 0.165178 -1.56732 0
M  V30 1955 C 175.693 0.908443 -1.73224 0
M  V30 1956 C 176.073 2.0013 -0.67165 0
M  V30 1957 O 175.421 2.26353 0.31253 0
M  V30 1958 C 175.631 1.46756 -3.16644 0
M  V30 1959 C 176.979 1.93809 -3.77787 0
M  V30 1960 O 178.003 1.56537 -3.1996 0
M  V30 1961 O 176.862 2.62486 -4.79336 0
M  V30 1962 H 173.956 0.428025 -0.707618 0
M  V30 1963 H 176.502 0.152526 -1.69013 0
M  V30 1964 H 175.274 0.68129 -3.85323 0
M  V30 1965 H 174.897 2.28749 -3.25207 0
M  V30 1966 N 175.894 1.51508 0.433938 0
M  V30 1967 C 176.824 1.76016 1.53429 0
M  V30 1968 C 177.805 0.610112 1.58782 0
M  V30 1969 O 178.99 0.853177 1.74455 0
M  V30 1970 C 176.12 1.88831 2.9148 0
M  V30 1971 C 175.074 3.04288 3.00987 0
M  V30 1972 C 174.4 3.0229 4.4105 0
M  V30 1973 C 175.7 4.44193 2.74754 0
M  V30 1974 H 177.394 2.68152 1.33171 0
M  V30 1975 H 174.94 1.29035 0.639214 0
M  V30 1976 H 176.893 2.04559 3.6842 0
M  V30 1977 H 175.617 0.933455 3.12976 0
M  V30 1978 H 174.276 2.8827 2.26486 0
M  V30 1979 H 173.924 2.04576 4.59519 0
M  V30 1980 H 173.624 3.79822 4.4834 0
M  V30 1981 H 175.148 3.20116 5.1996 0
M  V30 1982 H 176.562 4.60544 3.41426 0
M  V30 1983 H 174.959 5.23457 2.9345 0
M  V30 1984 H 176.029 4.53996 1.70339 0
M  V30 1985 N 177.372 -0.689602 1.41712 0
M  V30 1986 C 178.282 -1.83314 1.46401 0
M  V30 1987 C 179.298 -1.7036 0.35405 0
M  V30 1988 O 180.474 -1.92171 0.602692 0
M  V30 1989 C 177.539 -3.19344 1.34982 0
M  V30 1990 C 176.6 -3.44363 2.56344 0
M  V30 1991 C 175.833 -4.73904 2.45461 0
M  V30 1992 O 176.056 -5.508 1.48241 0
M  V30 1993 O 174.99 -4.99839 3.35328 0
M  V30 1994 H 178.816 -1.82314 2.42889 0
M  V30 1995 H 176.401 -0.843438 1.23315 0
M  V30 1996 H 178.283 -4.00547 1.3092 0
M  V30 1997 H 176.958 -3.21014 0.41612 0
M  V30 1998 H 175.865 -2.63067 2.65982 0
M  V30 1999 H 177.198 -3.47512 3.48563 0
M  V30 2000 N 178.85 -1.27639 -0.924453 0
M  V30 2001 C 179.76 -1.12466 -2.05885 0
M  V30 2002 C 180.776 -0.053869 -1.73917 0
M  V30 2003 O 181.952 -0.261012 -1.99702 0
M  V30 2004 C 179.017 -0.776768 -3.37886 0
M  V30 2005 C 178.078 -1.92878 -3.83532 0
M  V30 2006 C 177.311 -1.59739 -5.09234 0
M  V30 2007 O 177.534 -0.506782 -5.68144 0
M  V30 2008 O 176.468 -2.43761 -5.50331 0
M  V30 2009 H 180.294 -2.07671 -2.21599 0
M  V30 2010 H 177.879 -1.06857 -1.04413 0
M  V30 2011 H 179.761 -0.596229 -4.17161 0
M  V30 2012 H 178.436 0.145732 -3.23372 0
M  V30 2013 H 177.343 -2.1644 -3.0513 0
M  V30 2014 H 178.676 -2.8316 -4.02593 0
M  V30 2015 N 180.328 1.1314 -1.09713 0
M  V30 2016 C 181.258 2.20748 -0.761102 0
M  V30 2017 C 182.239 1.68061 0.262566 0
M  V30 2018 O 183.424 1.93765 0.129977 0
M  V30 2019 C 180.554 3.46812 -0.184054 0
M  V30 2020 C 179.508 4.12606 -1.13757 0
M  V30 2021 C 178.834 5.33031 -0.422083 0
M  V30 2022 C 180.134 4.59603 -2.48118 0
M  V30 2023 H 181.828 2.49113 -1.66082 0
M  V30 2024 H 179.374 1.19734 -0.799987 0
M  V30 2025 H 181.327 4.21353 0.0631215 0
M  V30 2026 H 180.051 3.17851 0.750868 0
M  V30 2027 H 178.71 3.40036 -1.37007 0
M  V30 2028 H 178.358 5.00335 0.517072 0
M  V30 2029 H 178.058 5.77999 -1.05788 0
M  V30 2030 H 179.582 6.10325 -0.183277 0
M  V30 2031 H 180.996 5.25552 -2.29059 0
M  V30 2032 H 179.393 5.15321 -3.07514 0
M  V30 2033 H 180.463 3.73971 -3.08665 0
M  V30 2034 N 181.806 0.884767 1.30421 0
M  V30 2035 C 182.716 0.355398 2.31892 0
M  V30 2036 C 183.732 -0.542261 1.65335 0
M  V30 2037 O 184.908 -0.435432 1.96637 0
M  V30 2038 C 181.973 -0.421661 3.44126 0
M  V30 2039 C 181.034 0.505727 4.26311 0
M  V30 2040 C 180.267 -0.234343 5.33185 0
M  V30 2041 O 180.49 -1.46045 5.51386 0
M  V30 2042 O 179.424 0.415443 6.00465 0
M  V30 2043 H 183.25 1.19685 2.79122 0
M  V30 2044 H 180.835 0.648596 1.34587 0
M  V30 2045 H 182.717 -0.861641 4.12497 0
M  V30 2046 H 181.392 -1.23942 2.99032 0
M  V30 2047 H 180.299 0.994513 3.60639 0
M  V30 2048 H 181.632 1.28948 4.75009 0
M  V30 2049 N 183.284 -1.43765 0.645699 0
M  V30 2050 C 184.194 -2.34544 -0.0512957 0
M  V30 2051 C 185.21 -1.53455 -0.82022 0
M  V30 2052 O 186.386 -1.86133 -0.769176 0
M  V30 2053 C 183.451 -3.31636 -1.01087 0
M  V30 2054 C 182.512 -4.2863 -0.239712 0
M  V30 2055 C 181.745 -5.21084 -1.15358 0
M  V30 2056 O 181.968 -5.1779 -2.39269 0
M  V30 2057 O 180.902 -5.98593 -0.630038 0
M  V30 2058 H 184.728 -2.95624 0.695718 0
M  V30 2059 H 182.313 -1.43781 0.405882 0
M  V30 2060 H 184.195 -3.9136 -1.56254 0
M  V30 2061 H 182.87 -2.73069 -1.73824 0
M  V30 2062 H 181.777 -3.72408 0.355356 0
M  V30 2063 H 183.11 -4.90157 0.447936 0
M  V30 2064 N 184.763 -0.387143 -1.52771 0
M  V30 2065 C 186.012 0.19697 -2.00736 0
M  V30 2066 C 186.325 1.48082 -1.27793 0
M  V30 2067 O 187.531 2.14485 -1.66458 0
M  V30 2068 C 185.987 0.401568 -3.57653 0
M  V30 2069 C 185.595 -0.868907 -4.39493 0
M  V30 2070 C 187.339 0.942164 -4.13912 0
M  V30 2071 C 185.246 -0.632705 -5.88006 0
M  V30 2072 H 184.176 0.0773827 -0.750019 0
M  V30 2073 H 186.827 -0.50921 -1.76293 0
M  V30 2074 H 185.209 1.16954 -3.78335 0
M  V30 2075 H 186.383 -1.64133 -4.30577 0
M  V30 2076 H 184.698 -1.33429 -3.94443 0
M  V30 2077 H 187.295 1.13455 -5.22525 0
M  V30 2078 H 187.638 1.9106 -3.69867 0
M  V30 2079 H 188.171 0.233814 -3.97112 0
M  V30 2080 H 184.91 -1.57208 -6.36369 0
M  V30 2081 H 184.43 0.100825 -5.99715 0
M  V30 2082 H 186.109 -0.26642 -6.46451 0
M  V30 2083 N 186.241 1.57166 -0.116904 0
M  V30 2084 C 187.151 2.18745 0.847812 0
M  V30 2085 C 188.167 1.163 1.29423 0
M  V30 2086 O 189.343 1.48761 1.35765 0
M  V30 2087 C 186.408 2.77307 2.0809 0
M  V30 2088 C 185.469 3.94781 1.68661 0
M  V30 2089 C 184.702 4.50541 2.86091 0
M  V30 2090 O 184.925 4.05202 4.01456 0
M  V30 2091 O 183.859 5.41256 2.63298 0
M  V30 2092 H 187.685 3.01632 0.353778 0
M  V30 2093 H 185.27 1.49005 0.108599 0
M  V30 2094 H 187.152 3.14647 2.80313 0
M  V30 2095 H 185.827 1.97452 2.56504 0
M  V30 2096 H 184.734 3.62214 0.935518 0
M  V30 2097 H 186.067 4.76065 1.24991 0
M  V30 2098 N 187.719 -0.156864 1.56817 0
M  V30 2099 C 188.629 -1.2136 2.00771 0
M  V30 2100 C 189.645 -1.47598 0.921459 0
M  V30 2101 O 190.821 -1.59462 1.2302 0
M  V30 2102 C 187.886 -2.52943 2.37109 0
M  V30 2103 C 186.947 -2.34439 3.59634 0
M  V30 2104 C 186.18 -3.59748 3.94229 0
M  V30 2105 O 186.403 -4.65526 3.29609 0
M  V30 2106 O 185.337 -3.52998 4.8752 0
M  V30 2107 H 189.163 -0.870468 2.90958 0
M  V30 2108 H 186.748 -0.36484 1.44877 0
M  V30 2109 H 188.63 -3.30538 2.61386 0
M  V30 2110 H 187.305 -2.86806 1.5008 0
M  V30 2111 H 186.212 -1.54828 3.40557 0
M  V30 2112 H 187.545 -2.05496 4.4725 0
M  V30 2113 N 189.197 -1.51736 -0.425897 0
M  V30 2114 C 190.474 -1.55519 -1.1863 0
M  V30 2115 C 190.854 -0.326219 -2.08564 0
M  V30 2116 O 190.202 0.688012 -2.17896 0
M  V30 2117 C 190.412 -2.87521 -1.9782 0
M  V30 2118 C 191.76 -3.39899 -2.54468 0
M  V30 2119 O 192.784 -2.89148 -2.08019 0
M  V30 2120 O 191.643 -4.2848 -3.39215 0
M  V30 2121 H 188.737 -0.625739 -0.540721 0
M  V30 2122 H 191.283 -1.64055 -0.434038 0
M  V30 2123 H 190.055 -3.68422 -1.31836 0
M  V30 2124 H 189.678 -2.822 -2.80088 0
M  V30 2125 N 190.675 0.682077 -1.42076 0
M  V30 2126 C 191.638 1.77756 -1.44691 0
M  V30 2127 C 192.638 1.5726 -0.335535 0
M  V30 2128 O 193.828 1.63686 -0.596037 0
M  V30 2129 C 190.96 3.16301 -1.27146 0
M  V30 2130 H 192.153 1.76826 -2.42224 0
M  V30 2131 H 189.706 0.891012 -1.28416 0
M  V30 2132 H 190.441 3.22862 -0.305075 0
M  V30 2133 H 190.226 3.32581 -2.07683 0
M  V30 2134 H 191.716 3.96241 -1.31843 0
M  V30 2135 N 192.153 1.28127 0.917671 0
M  V30 2136 C 193.401 1.14825 1.66312 0
M  V30 2137 C 193.722 -0.304379 1.9261 0
M  V30 2138 O 192.992 -1.21149 1.53947 0
M  V30 2139 H 191.572 0.421953 0.616413 0
M  V30 2140 H 194.234 1.608 1.10134 0
M  V30 2141 H 193.33 1.68489 2.62712 0
M  V30 2142 N 193.631 -1.12557 1.10312 0
M  V30 2143 C 194.561 -2.20341 0.772798 0
M  V30 2144 C 195.542 -1.68198 -0.25365 0
M  V30 2145 O 196.727 -1.93831 -0.119699 0
M  V30 2146 C 193.857 -3.46709 0.202443 0
M  V30 2147 C 192.811 -4.11996 1.15943 0
M  V30 2148 C 192.137 -5.328 0.450345 0
M  V30 2149 C 193.437 -4.5828 2.50552 0
M  V30 2150 H 195.131 -2.48229 1.674 0
M  V30 2151 H 192.677 -1.19308 0.806326 0
M  V30 2152 H 194.63 -4.2138 -0.0407752 0
M  V30 2153 H 193.354 -3.18245 -0.734001 0
M  V30 2154 H 192.013 -3.39305 1.38808 0
M  V30 2155 H 191.661 -5.00602 -0.490531 0
M  V30 2156 H 191.361 -5.7743 1.08851 0
M  V30 2157 H 192.885 -6.10219 0.215642 0
M  V30 2158 H 194.299 -5.2433 2.31843 0
M  V30 2159 H 192.696 -5.13683 3.10242 0
M  V30 2160 H 193.766 -3.72329 3.10643 0
M  V30 2161 N 195.109 -0.891671 -1.2995 0
M  V30 2162 C 196.357 -0.512486 -1.95494 0
M  V30 2163 C 196.678 0.942776 -1.70695 0
M  V30 2164 O 195.948 1.66374 -1.03424 0
M  V30 2165 H 194.528 -0.186533 -0.723336 0
M  V30 2166 H 197.19 -1.13621 -1.58355 0
M  V30 2167 H 196.286 -0.688342 -3.04415 0
M  V30 2168 N 196.587 1.43421 -0.653314 0
M  V30 2169 C 197.535 2.32546 0.0501531 0
M  V30 2170 C 198.529 1.48617 0.812985 0
M  V30 2171 O 199.735 1.64825 0.723375 0
M  V30 2172 H 196.11 0.751185 0.0350032 0
M  V30 2173 H 198.081 2.89602 -0.719261 0
M  V30 2174 C 196.83 3.32925 1.00279 0
M  V30 2175 H 196.153 3.97532 0.425236 0
M  V30 2176 H 197.593 3.9792 1.46409 0
M  V30 2177 C 196.052 2.63532 2.09886 0
M  V30 2178 O 196.582 2.45092 3.18265 0
M  V30 2179 N 194.788 2.22905 1.86445 0
M  V30 2180 H 194.335 2.38103 0.98309 0
M  V30 2181 H 194.293 1.76805 2.59976 0
M  V30 2182 N 198.065 0.39524 1.52563 0
M  V30 2183 C 199.313 -0.184678 2.01254 0
M  V30 2184 C 199.634 -1.46822 1.28329 0
M  V30 2185 O 198.904 -1.91666 0.405094 0
M  V30 2186 H 197.484 -0.0712355 0.743596 0
M  V30 2187 H 200.146 0.528293 1.87603 0
M  V30 2188 H 199.242 -0.390681 3.09645 0
M  V30 2189 N 199.544 -1.57102 0.125237 0
M  V30 2190 C 200.792 -1.95021 -0.530198 0
M  V30 2191 C 201.113 -1.00982 -1.66816 0
M  V30 2192 O 200.383 -0.0672693 -1.95784 0
M  V30 2193 H 198.963 -0.720046 -0.198853 0
M  V30 2194 H 201.625 -1.93916 0.19564 0
M  V30 2195 H 200.721 -2.98211 -0.920681 0
M  V30 2196 N 201.022 0.148545 -1.56898 0
M  V30 2197 C 201.952 1.18524 -2.01182 0
M  V30 2198 C 202.933 1.4489 -0.891123 0
M  V30 2199 O 204.118 1.55836 -1.15882 0
M  V30 2200 C 201.248 2.51879 -2.39112 0
M  V30 2201 C 200.202 2.40038 -3.54353 0
M  V30 2202 C 199.528 3.78089 -3.78091 0
M  V30 2203 C 200.828 1.88577 -4.87069 0
M  V30 2204 H 202.522 0.817029 -2.88036 0
M  V30 2205 H 200.068 0.391575 -1.38574 0
M  V30 2206 H 202.021 3.24627 -2.68692 0
M  V30 2207 H 200.745 2.90532 -1.49193 0
M  V30 2208 H 199.404 1.69742 -3.24936 0
M  V30 2209 H 199.052 4.14175 -2.85426 0
M  V30 2210 H 198.752 3.71028 -4.55645 0
M  V30 2211 H 200.276 4.52387 -4.10095 0
M  V30 2212 H 201.69 2.51117 -5.15377 0
M  V30 2213 H 200.087 1.9241 -5.68417 0
M  V30 2214 H 201.157 0.84136 -4.77545 0
M  V30 2215 N 202.5 1.5196 0.417844 0
M  V30 2216 C 203.748 1.65263 1.16329 0
M  V30 2217 C 204.069 0.380634 1.91249 0
M  V30 2218 O 203.339 -0.604214 1.86349 0
M  V30 2219 H 201.919 0.60912 0.432414 0
M  V30 2220 H 204.581 1.88969 0.477162 0
M  V30 2221 H 203.677 2.4896 1.88217 0
M  V30 2222 N 203.978 -0.674533 1.42435 0
M  V30 2223 C 205.394 -0.98769 1.25367 0
M  V30 2224 C 205.594 -2.00879 0.158044 0
M  V30 2225 O 204.65 -2.48075 -0.470633 0
M  V30 2226 C 205.963 -1.49224 2.6106 0
M  V30 2227 C 207.511 -1.61 2.68417 0
M  V30 2228 C 207.986 -2.14852 4.04478 0
M  V30 2229 N 209.477 -2.22185 4.06434 0
M  V30 2230 C 210.212 -2.64928 5.08528 0
M  V30 2231 N 209.708 -3.07121 6.21006 0
M  V30 2232 N 211.501 -2.64679 4.95885 0
M  V30 2233 H 203.652 0.00152503 2.124 0
M  V30 2234 H 205.915 -0.0618434 0.945981 0
M  V30 2235 H 205.621 -0.816453 3.42092 0
M  V30 2236 H 205.495 -2.47094 2.84999 0
M  V30 2237 H 207.882 -2.27686 1.87732 0
M  V30 2238 H 207.963 -0.616195 2.48267 0
M  V30 2239 H 207.607 -1.48775 4.85622 0
M  V30 2240 H 207.537 -3.15024 4.2198 0
M  V30 2241 H 210.028 -1.92435 3.25234 0
M  V30 2242 H 210.341 -3.38423 6.94759 0
M  V30 2243 H 208.686 -3.04978 6.24511 0
M  V30 2244 H 211.877 -2.31078 4.07088 0
M  V30 2245 H 212.05 -2.9767 5.75584 0
M  V30 2246 N 205.456 -1.28612 -0.910864 0
M  V30 2247 C 206.386 -1.15326 -2.03032 0
M  V30 2248 C 207.367 -0.0502924 -1.70026 0
M  V30 2249 O 208.552 -0.227797 -1.92859 0
M  V30 2250 C 205.682 -0.817343 -3.37545 0
M  V30 2251 C 204.636 -1.8754 -3.84724 0
M  V30 2252 C 203.962 -1.39305 -5.16235 0
M  V30 2253 C 205.262 -3.28244 -4.06267 0
M  V30 2254 H 206.956 -2.08975 -2.14406 0
M  V30 2255 H 204.502 -1.00612 -1.03021 0
M  V30 2256 H 206.455 -0.711151 -4.15356 0
M  V30 2257 H 205.179 0.154846 -3.26233 0
M  V30 2258 H 203.838 -1.97079 -3.09121 0
M  V30 2259 H 203.486 -0.409846 -5.01328 0
M  V30 2260 H 203.186 -2.10057 -5.48771 0
M  V30 2261 H 204.71 -1.30014 -5.96598 0
M  V30 2262 H 206.124 -3.21611 -4.74594 0
M  V30 2263 H 204.521 -3.96855 -4.5014 0
M  V30 2264 H 205.591 -3.72048 -3.10979 0
M  V30 2265 N 206.934 1.1197 -1.10907 0
M  V30 2266 C 207.897 2.16031 -0.765707 0
M  V30 2267 C 208.897 1.59393 0.212235 0
M  V30 2268 O 210.087 1.74196 -0.0115441 0
M  V30 2269 C 207.219 3.40632 -0.135053 0
M  V30 2270 H 208.412 2.47919 -1.68748 0
M  V30 2271 H 205.965 1.27061 -0.910226 0
M  V30 2272 H 206.7 3.14348 0.797218 0
M  V30 2273 H 206.485 3.8302 -0.838937 0
M  V30 2274 H 207.975 4.17505 0.0892469 0
M  V30 2275 N 208.412 0.89855 1.29475 0
M  V30 2276 C 209.375 0.380272 2.26023 0
M  V30 2277 C 210.375 -0.484891 1.53315 0
M  V30 2278 O 211.565 -0.290108 1.71767 0
M  V30 2279 C 208.697 -0.45651 3.3783 0
M  V30 2280 H 209.89 1.23295 2.73383 0
M  V30 2281 H 207.443 0.676589 1.40897 0
M  V30 2282 H 208.178 -1.32922 2.95808 0
M  V30 2283 H 207.963 0.163393 3.91759 0
M  V30 2284 H 209.453 -0.810466 4.0966 0
M  V30 2285 N 209.89 -1.43072 0.660911 0
M  V30 2286 C 211.13 -2.03596 0.181146 0
M  V30 2287 C 211.494 -1.51057 -1.18515 0
M  V30 2288 O 212.695 -2.03275 -1.75877 0
M  V30 2289 C 210.966 -3.56845 0.19911 0
M  V30 2290 S 212.525 -4.38289 -0.211684 0
M  V30 2291 H 209.343 -0.706954 0.0757479 0
M  V30 2292 H 211.945 -1.75027 0.870965 0
M  V30 2293 H 210.649 -3.92583 1.1961 0
M  V30 2294 H 210.18 -3.90067 -0.510996 0
M  V30 2295 H 212.195 -4.74583 -1.44863 0
M  V30 2296 N 211.368 -0.403325 -1.52352 0
M  V30 2297 C 212.615 0.174347 -2.01748 0
M  V30 2298 C 212.943 1.45636 -1.2892 0
M  V30 2299 O 212.198 1.9193 -0.382258 0
M  V30 2300 C 212.497 0.474665 -3.54234 0
M  V30 2301 C 212.163 -0.717458 -4.45155 0
M  V30 2302 C 210.825 -1.04447 -4.69728 0
M  V30 2303 C 213.177 -1.51432 -4.98716 0
M  V30 2304 C 210.505 -2.16963 -5.45109 0
M  V30 2305 C 212.857 -2.6302 -5.75329 0
M  V30 2306 C 211.521 -2.96213 -5.98175 0
M  V30 2307 H 210.791 0.0637981 -0.738248 0
M  V30 2308 H 213.438 -0.543553 -1.83624 0
M  V30 2309 H 211.743 1.27406 -3.70506 0
M  V30 2310 H 213.44 0.934496 -3.89959 0
M  V30 2311 H 210.03 -0.452596 -4.26204 0
M  V30 2312 H 214.214 -1.27491 -4.79645 0
M  V30 2313 H 209.47 -2.43034 -5.61021 0
M  V30 2314 H 213.644 -3.25158 -6.15829 0
M  V30 2315 H 211.271 -3.83516 -6.56368 0
M  V30 2316 N 212.846 1.57033 -0.133567 0
M  V30 2317 C 213.776 2.1909 0.807567 0
M  V30 2318 C 214.757 1.13517 1.26681 0
M  V30 2319 O 215.942 1.41809 1.32679 0
M  V30 2320 C 213.072 2.80188 2.05212 0
M  V30 2321 C 212.026 3.91471 1.73015 0
M  V30 2322 C 211.352 4.39443 3.04622 0
M  V30 2323 C 212.652 5.12886 0.987168 0
M  V30 2324 H 214.346 2.97988 0.290403 0
M  V30 2325 H 211.892 1.43335 0.138239 0
M  V30 2326 H 213.845 3.22264 2.71521 0
M  V30 2327 H 212.569 1.98601 2.59278 0
M  V30 2328 H 211.228 3.49993 1.0909 0
M  V30 2329 H 210.876 3.54695 3.56651 0
M  V30 2330 H 210.576 5.14495 2.83847 0
M  V30 2331 H 212.1 4.8418 3.72024 0
M  V30 2332 H 213.514 5.51891 1.55208 0
M  V30 2333 H 211.911 5.93615 0.87985 0
M  V30 2334 H 212.981 4.84894 -0.0235286 0
M  V30 2335 N 214.325 -0.140222 1.56975 0
M  V30 2336 C 215.602 -0.880769 1.74648 0
M  V30 2337 C 215.982 -1.99036 0.703404 0
M  V30 2338 O 215.33 -2.26821 -0.27648 0
M  V30 2339 C 215.54 -1.417 3.18939 0
M  V30 2340 C 216.888 -1.87774 3.80823 0
M  V30 2341 O 217.912 -1.51427 3.2241 0
M  V30 2342 O 216.771 -2.54827 4.83452 0
M  V30 2343 H 213.865 -0.416713 0.714338 0
M  V30 2344 H 216.411 -0.125618 1.69234 0
M  V30 2345 H 215.183 -0.619902 3.86359 0
M  V30 2346 H 214.806 -2.23546 3.28805 0
M  V30 2347 N 215.803 -1.52179 -0.40978 0
M  V30 2348 C 217.028 -1.70347 -1.18308 0
M  V30 2349 C 217.453 -0.411887 -1.83535 0
M  V30 2350 O 216.811 0.630587 -1.6998 0
M  V30 2351 C 216.859 -2.83977 -2.22238 0
M  V30 2352 O 215.963 -2.495 -3.28365 0
M  V30 2353 H 215.304 -0.567103 -0.345384 0
M  V30 2354 H 217.834 -1.98879 -0.480445 0
M  V30 2355 H 217.844 -3.0887 -2.66577 0
M  V30 2356 H 216.519 -3.77685 -1.74146 0
M  V30 2357 H 215.096 -2.35277 -2.89308 0
M  V30 2358 N 217.281 0.66697 -1.42791 0
M  V30 2359 C 218.214 1.79177 -1.41318 0
M  V30 2360 C 219.192 1.60234 -0.276401 0
M  V30 2361 O 220.376 1.82602 -0.46785 0
M  V30 2362 C 217.503 3.16289 -1.21157 0
M  V30 2363 C 216.549 3.53964 -2.37932 0
M  V30 2364 S 217.382 3.55501 -4.00474 0
M  V30 2365 C 218.538 4.95292 -3.8267 0
M  V30 2366 H 218.771 1.80153 -2.365 0
M  V30 2367 H 216.304 0.838357 -1.29657 0
M  V30 2368 H 218.262 3.95428 -1.10212 0
M  V30 2369 H 216.923 3.1289 -0.275481 0
M  V30 2370 H 216.116 4.53646 -2.19594 0
M  V30 2371 H 215.718 2.82204 -2.45432 0
M  V30 2372 H 218.01 5.83584 -3.44145 0
M  V30 2373 H 218.953 5.18679 -4.82055 0
M  V30 2374 H 219.361 4.68179 -3.15386 0
M  V30 2375 N 218.759 1.29093 0.90403 0
M  V30 2376 C 219.722 1.1386 1.98919 0
M  V30 2377 C 220.722 0.0753457 1.60623 0
M  V30 2378 O 221.912 0.321931 1.71199 0
M  V30 2379 C 219.044 0.740198 3.32767 0
M  V30 2380 H 220.237 2.10246 2.13861 0
M  V30 2381 H 217.79 1.12218 1.08797 0
M  V30 2382 H 218.525 -0.223997 3.23525 0
M  V30 2383 H 218.31 1.50838 3.61926 0
M  V30 2384 H 219.8 0.656546 4.12407 0
M  V30 2385 N 220.237 -1.11381 1.11499 0
M  V30 2386 C 221.465 -1.86934 0.88675 0
M  V30 2387 C 221.88 -1.80195 -0.563476 0
M  V30 2388 O 221.237 -1.18367 -1.38908 0
M  V30 2389 C 221.288 -3.35722 1.34064 0
M  V30 2390 O 221.009 -3.4232 2.73401 0
M  V30 2391 C 222.51 -4.2818 1.14791 0
M  V30 2392 H 219.73 -0.591117 0.317523 0
M  V30 2393 H 222.274 -1.40865 1.48248 0
M  V30 2394 H 220.429 -3.79294 0.788355 0
M  V30 2395 H 220.843 -4.34971 2.93087 0
M  V30 2396 H 222.317 -5.30817 1.5145 0
M  V30 2397 H 222.794 -4.39113 0.0875279 0
M  V30 2398 H 223.4 -3.90402 1.68721 0
M  V30 2399 N 221.715 -0.905404 -1.28997 0
M  V30 2400 C 222.645 -0.404212 -2.29975 0
M  V30 2401 C 223.626 0.523784 -1.61835 0
M  V30 2402 O 224.811 0.433298 -1.89304 0
M  V30 2403 C 221.941 0.364042 -3.45387 0
M  V30 2404 C 220.895 -0.474048 -4.25367 0
M  V30 2405 C 220.221 0.422045 -5.33032 0
M  V30 2406 C 221.521 -1.72696 -4.92923 0
M  V30 2407 H 223.215 -1.24807 -2.72146 0
M  V30 2408 H 220.761 -0.601585 -1.30832 0
M  V30 2409 H 222.714 0.725447 -4.15109 0
M  V30 2410 H 221.438 1.24174 -3.02074 0
M  V30 2411 H 220.097 -0.81786 -3.57361 0
M  V30 2412 H 219.745 1.29804 -4.85963 0
M  V30 2413 H 219.445 -0.135057 -5.87445 0
M  V30 2414 H 220.969 0.779517 -6.05604 0
M  V30 2415 H 222.383 -1.43495 -5.55051 0
M  V30 2416 H 220.78 -2.22582 -5.57295 0
M  V30 2417 H 221.85 -2.45964 -4.17887 0
M  V30 2418 N 223.193 1.4272 -0.668489 0
M  V30 2419 C 224.441 2.01226 -0.187769 0
M  V30 2420 C 224.762 1.53092 1.2078 0
M  V30 2421 O 224.032 0.74993 1.80977 0
M  V30 2422 H 222.612 0.744041 -0.0664272 0
M  V30 2423 H 225.274 1.74723 -0.863583 0
M  V30 2424 H 224.37 3.11556 -0.184166 0
M  V30 2425 N 224.671 0.411399 1.52136 0
M  V30 2426 C 225.601 -0.404015 2.29978 0
M  V30 2427 C 226.582 -1.04412 1.34284 0
M  V30 2428 O 227.767 -1.0527 1.63192 0
M  V30 2429 C 224.897 -1.5197 3.12286 0
M  V30 2430 C 223.851 -1.00448 4.16046 0
M  V30 2431 C 223.177 -2.21393 4.86712 0
M  V30 2432 C 224.477 -0.0569336 5.22269 0
M  V30 2433 H 226.171 0.245529 2.98392 0
M  V30 2434 H 223.717 0.119525 1.43503 0
M  V30 2435 H 225.67 -2.09715 3.6551 0
M  V30 2436 H 224.394 -2.19716 2.41646 0
M  V30 2437 H 223.053 -0.449421 3.63835 0
M  V30 2438 H 222.701 -2.87699 4.12599 0
M  V30 2439 H 222.401 -1.87571 5.56858 0
M  V30 2440 H 223.925 -2.7974 5.4275 0
M  V30 2441 H 225.339 -0.54325 5.7072 0
M  V30 2442 H 223.736 0.192594 5.99791 0
M  V30 2443 H 224.806 0.887663 4.76706 0
M  V30 2444 N 226.149 -1.5696 0.141893 0
M  V30 2445 C 227.112 -2.15316 -0.785587 0
M  V30 2446 C 228.112 -1.09366 -1.1788 0
M  V30 2447 O 229.302 -1.35031 -1.10056 0
M  V30 2448 C 226.434 -2.71211 -2.06537 0
M  V30 2449 H 227.627 -2.98608 -0.278041 0
M  V30 2450 H 225.18 -1.5593 -0.107519 0
M  V30 2451 H 225.915 -1.91571 -2.6167 0
M  V30 2452 H 225.7 -3.4872 -1.79268 0
M  V30 2453 H 227.19 -3.16189 -2.72789 0
M  V30 2454 N 227.627 0.131896 -1.57047 0
M  V30 2455 C 228.59 1.14638 -1.98471 0
M  V30 2456 C 229.59 1.35029 -0.873148 0
M  V30 2457 O 230.78 1.31764 -1.13946 0
M  V30 2458 C 227.912 2.50358 -2.31373 0
M  V30 2459 H 229.105 0.79064 -2.8929 0
M  V30 2460 H 226.658 0.375761 -1.51716 0
M  V30 2461 H 227.393 2.90876 -1.43393 0
M  V30 2462 H 227.178 2.36915 -3.12432 0
M  V30 2463 H 228.668 3.23395 -2.64207 0
M  V30 2464 N 229.106 1.52395 0.401703 0
M  V30 2465 C 230.336 1.70429 1.1678 0
M  V30 2466 C 230.744 0.416702 1.84554 0
M  V30 2467 O 230.087 -0.617697 1.73003 0
M  V30 2468 C 230.149 2.78919 2.26814 0
M  V30 2469 C 229.813 4.20437 1.79113 0
M  V30 2470 C 230.81 5.04028 1.27482 0
M  V30 2471 C 228.495 4.66704 1.85722 0
M  V30 2472 C 230.489 6.31961 0.830913 0
M  V30 2473 C 228.176 5.94625 1.40942 0
M  V30 2474 C 229.174 6.77082 0.897128 0
M  V30 2475 O 228.862 8.02607 0.455822 0
M  V30 2476 H 228.594 0.574272 0.356634 0
M  V30 2477 H 231.148 1.99767 0.477724 0
M  V30 2478 H 229.378 2.44973 2.99207 0
M  V30 2479 H 231.067 2.8548 2.88541 0
M  V30 2480 H 231.833 4.69471 1.21744 0
M  V30 2481 H 227.712 4.0262 2.24539 0
M  V30 2482 H 231.256 6.96271 0.430368 0
M  V30 2483 H 227.153 6.28688 1.46362 0
M  V30 2484 H 227.921 8.16453 0.578457 0
M  V30 2485 N 230.584 -0.659388 1.43143 0
M  V30 2486 C 231.832 -1.41654 1.44147 0
M  V30 2487 C 232.153 -1.94893 0.0645739 0
M  V30 2488 O 231.423 -1.74044 -0.899198 0
M  V30 2489 H 230.003 -0.525708 0.530697 0
M  V30 2490 H 232.665 -0.778097 1.78694 0
M  V30 2491 H 231.761 -2.26195 2.1504 0
M  V30 2492 N 232.062 -1.29571 -0.897171 0
M  V30 2493 C 233.292 -1.20408 -1.67886 0
M  V30 2494 C 233.7 0.237429 -1.87704 0
M  V30 2495 O 233.043 1.17048 -1.41582 0
M  V30 2496 C 233.105 -1.84887 -3.08314 0
M  V30 2497 C 232.769 -3.34189 -3.11716 0
M  V30 2498 C 233.766 -4.30374 -2.91675 0
M  V30 2499 C 231.451 -3.75431 -3.33701 0
M  V30 2500 C 233.445 -5.65776 -2.93557 0
M  V30 2501 C 231.132 -5.10955 -3.35214 0
M  V30 2502 C 232.13 -6.05938 -3.15164 0
M  V30 2503 O 231.818 -7.38987 -3.1647 0
M  V30 2504 H 231.55 -0.418289 -0.531046 0
M  V30 2505 H 234.104 -1.71514 -1.13014 0
M  V30 2506 H 232.334 -1.28295 -3.64798 0
M  V30 2507 H 234.023 -1.70011 -3.6858 0
M  V30 2508 H 234.789 -3.99844 -2.74499 0
M  V30 2509 H 230.668 -3.01953 -3.48347 0
M  V30 2510 H 234.212 -6.39889 -2.77826 0
M  V30 2511 H 230.109 -5.4113 -3.51922 0
M  V30 2512 H 230.877 -7.47823 -3.3272 0
M  V30 2513 N 233.54 1.10788 -1.12088 0
M  V30 2514 C 234.788 1.8231 -0.872205 0
M  V30 2515 C 235.109 1.85419 0.603709 0
M  V30 2516 O 234.379 1.32963 1.43867 0
M  V30 2517 H 232.959 0.675137 -0.319686 0
M  V30 2518 H 235.621 1.34068 -1.41463 0
M  V30 2519 H 234.717 2.85955 -1.25045 0
M  V30 2520 N 235.018 0.912232 1.28515 0
M  V30 2521 C 236.267 0.540504 1.94323 0
M  V30 2522 C 236.58 -0.920044 1.72611 0
M  V30 2523 O 237.786 -1.39986 2.32629 0
M  V30 2524 C 236.242 0.915803 3.48053 0
M  V30 2525 C 235.85 2.39598 3.78546 0
M  V30 2526 C 237.594 0.614588 4.20027 0
M  V30 2527 C 235.501 2.71148 5.25578 0
M  V30 2528 H 234.431 0.198418 0.727424 0
M  V30 2529 H 237.082 1.11094 1.46049 0
M  V30 2530 H 235.464 0.274168 3.9505 0
M  V30 2531 H 236.638 3.08422 3.42364 0
M  V30 2532 H 234.953 2.66749 3.1974 0
M  V30 2533 H 237.55 0.827002 5.28266 0
M  V30 2534 H 237.893 -0.447531 4.13887 0
M  V30 2535 H 238.426 1.21462 3.78803 0
M  V30 2536 H 235.165 3.76207 5.36794 0
M  V30 2537 H 234.685 2.0696 5.62963 0
M  V30 2538 H 236.364 2.58072 5.93302 0
M  V30 2539 N 236.496 -1.42363 0.676048 0
M  V30 2540 C 237.912 -1.55811 0.345718 0
M  V30 2541 C 238.112 -1.65544 -1.14879 0
M  V30 2542 O 237.168 -1.62306 -1.93424 0
M  V30 2543 C 238.481 -2.80746 1.07713 0
M  V30 2544 C 240.029 -2.9452 1.05958 0
M  V30 2545 C 240.504 -4.22318 1.77233 0
M  V30 2546 N 241.995 -4.29233 1.74108 0
M  V30 2547 C 242.73 -5.26935 2.26113 0
M  V30 2548 N 242.226 -6.30783 2.86505 0
M  V30 2549 N 244.019 -5.18741 2.1648 0
M  V30 2550 H 236.17 -1.34289 1.6456 0
M  V30 2551 H 238.433 -0.646506 0.69335 0
M  V30 2552 H 238.139 -2.79696 2.13221 0
M  V30 2553 H 238.013 -3.71676 0.64316 0
M  V30 2554 H 240.4 -2.95097 0.0128255 0
M  V30 2555 H 240.481 -2.04817 1.53244 0
M  V30 2556 H 240.125 -4.22502 2.81877 0
M  V30 2557 H 240.055 -5.10958 1.27396 0
M  V30 2558 H 242.546 -3.54814 1.30059 0
M  V30 2559 H 242.859 -7.01691 3.23805 0
M  V30 2560 H 241.204 -6.31341 2.90575 0
M  V30 2561 H 244.395 -4.36533 1.68987 0
M  V30 2562 H 244.568 -5.94721 2.57316 0
M  V30 2563 N 237.974 -0.419461 -1.51915 0
M  V30 2564 C 239.204 0.151915 -2.06041 0
M  V30 2565 C 239.612 1.38539 -1.28855 0
M  V30 2566 O 238.955 1.80592 -0.336463 0
M  V30 2567 C 239.017 0.557119 -3.55157 0
M  V30 2568 C 238.681 -0.567054 -4.53468 0
M  V30 2569 C 239.678 -1.43379 -4.99738 0
M  V30 2570 C 237.363 -0.742693 -4.96779 0
M  V30 2571 C 239.357 -2.46102 -5.87973 0
M  V30 2572 C 237.044 -1.77322 -5.84808 0
M  V30 2573 C 238.042 -2.63078 -6.30301 0
M  V30 2574 O 237.73 -3.64364 -7.16585 0
M  V30 2575 H 237.462 0.0193293 -0.675724 0
M  V30 2576 H 240.016 -0.592073 -1.96682 0
M  V30 2577 H 238.246 1.35355 -3.62238 0
M  V30 2578 H 239.935 1.05759 -3.9188 0
M  V30 2579 H 240.701 -1.30954 -4.66986 0
M  V30 2580 H 236.58 -0.0848307 -4.60922 0
M  V30 2581 H 240.124 -3.13071 -6.23404 0
M  V30 2582 H 236.021 -1.89773 -6.16974 0
M  V30 2583 H 236.789 -3.60731 -7.34721 0
M  V30 2584 N 239.452 1.56882 -0.150215 0
M  V30 2585 C 240.362 2.20494 0.801222 0
M  V30 2586 C 241.378 1.19019 1.26927 0
M  V30 2587 O 242.554 1.51607 1.32579 0
M  V30 2588 C 239.619 2.81659 2.02161 0
M  V30 2589 C 238.68 3.9827 1.60249 0
M  V30 2590 C 237.913 4.56508 2.7647 0
M  V30 2591 O 238.136 4.13627 3.92771 0
M  V30 2592 O 237.07 5.46719 2.51757 0
M  V30 2593 H 240.896 3.02315 0.289717 0
M  V30 2594 H 238.481 1.49202 0.0769684 0
M  V30 2595 H 240.363 3.20522 2.73576 0
M  V30 2596 H 239.038 2.02849 2.52258 0
M  V30 2597 H 237.945 3.64117 0.858477 0
M  V30 2598 H 239.278 4.78609 1.14864 0
M  V30 2599 N 240.93 -0.123565 1.57115 0
M  V30 2600 C 242.177 -0.832153 1.84612 0
M  V30 2601 C 242.505 -1.80093 0.734627 0
M  V30 2602 O 241.76 -1.93766 -0.27442 0
M  V30 2603 C 242.059 -1.62016 3.18568 0
M  V30 2604 C 241.725 -0.796084 4.43817 0
M  V30 2605 C 240.387 -0.568816 4.77826 0
M  V30 2606 C 242.739 -0.221364 5.2073 0
M  V30 2607 C 240.067 0.243499 5.86194 0
M  V30 2608 C 242.419 0.578117 6.29953 0
M  V30 2609 C 241.083 0.815744 6.62497 0
M  V30 2610 H 240.353 -0.304507 0.675542 0
M  V30 2611 H 243 -0.0947248 1.91266 0
M  V30 2612 H 241.305 -2.42837 3.0747 0
M  V30 2613 H 243.002 -2.17231 3.37064 0
M  V30 2614 H 239.592 -0.983307 4.17168 0
M  V30 2615 H 243.776 -0.384173 4.94811 0
M  V30 2616 H 239.032 0.436871 6.09837 0
M  V30 2617 H 243.206 1.03046 6.88734 0
M  V30 2618 H 240.833 1.44701 7.46301 0
M  V30 2619 N 242.408 -1.52605 -0.393616 0
M  V30 2620 C 243.656 -1.67093 -1.13685 0
M  V30 2621 C 243.977 -0.411011 -1.90619 0
M  V30 2622 O 243.247 0.574491 -1.87287 0
M  V30 2623 H 241.827 -0.615923 -0.422668 0
M  V30 2624 H 244.489 -1.89704 -0.447039 0
M  V30 2625 H 243.585 -2.51922 -1.84232 0
M  V30 2626 N 243.887 0.651787 -1.4349 0
M  V30 2627 C 245.136 1.40754 -1.44469 0
M  V30 2628 C 245.449 1.95463 -0.0731845 0
M  V30 2629 O 246.655 2.71471 0.0395721 0
M  V30 2630 C 245.111 2.54735 -2.5424 0
M  V30 2631 C 244.719 2.06628 -3.97504 0
M  V30 2632 C 246.463 3.32092 -2.64414 0
M  V30 2633 C 244.37 3.17829 -4.98737 0
M  V30 2634 H 243.3 0.528862 -0.53742 0
M  V30 2635 H 245.951 0.703365 -1.69485 0
M  V30 2636 H 244.333 3.2763 -2.22428 0
M  V30 2637 H 245.507 1.40734 -4.38783 0
M  V30 2638 H 243.822 1.42146 -3.91387 0
M  V30 2639 H 246.419 4.14952 -3.37223 0
M  V30 2640 H 246.762 3.80217 -1.69532 0
M  V30 2641 H 247.295 2.66279 -2.95534 0
M  V30 2642 H 244.034 2.74671 -5.95177 0
M  V30 2643 H 243.554 3.82429 -4.62069 0
M  V30 2644 H 245.233 3.82937 -5.21505 0
M  V30 2645 N 245.365 1.30045 0.890287 0
M  V30 2646 C 246.612 1.18561 1.64163 0
M  V30 2647 C 246.94 -0.260852 1.92743 0
M  V30 2648 O 246.195 -1.20376 1.54299 0
M  V30 2649 C 246.494 1.95409 2.99249 0
M  V30 2650 C 246.16 3.45066 2.90242 0
M  V30 2651 C 244.822 3.85878 2.87492 0
M  V30 2652 C 247.174 4.4039 2.78758 0
M  V30 2653 C 244.502 5.20314 2.7109 0
M  V30 2654 C 246.854 5.74928 2.63894 0
M  V30 2655 C 245.518 6.14986 2.59516 0
M  V30 2656 H 244.788 0.433846 0.600715 0
M  V30 2657 H 247.435 1.61088 1.03552 0
M  V30 2658 H 245.74 1.45501 3.63781 0
M  V30 2659 H 247.437 1.8392 3.56334 0
M  V30 2660 H 244.027 3.12631 2.93189 0
M  V30 2661 H 248.211 4.09806 2.79952 0
M  V30 2662 H 243.467 5.50449 2.66112 0
M  V30 2663 H 247.641 6.48434 2.53981 0
M  V30 2664 H 245.268 7.19104 2.46565 0
M  V30 2665 N 246.843 -1.10192 1.12674 0
M  V30 2666 C 247.791 -2.18694 0.792196 0
M  V30 2667 C 248.785 -1.67938 -0.222058 0
M  V30 2668 O 249.991 -1.79822 -0.0800074 0
M  V30 2669 H 246.366 -0.713223 0.238364 0
M  V30 2670 H 248.337 -2.44149 1.71564 0
M  V30 2671 C 247.086 -3.46682 0.265859 0
M  V30 2672 H 246.409 -3.86101 1.03761 0
M  V30 2673 H 247.849 -4.23942 0.0701128 0
M  V30 2674 C 246.308 -3.21506 -1.00675 0
M  V30 2675 O 246.838 -3.43408 -2.08408 0
M  V30 2676 N 245.044 -2.75158 -0.934692 0
M  V30 2677 H 244.591 -2.57535 -0.0578604 0
M  V30 2678 H 244.549 -2.58691 -1.7868 0
M  V30 2679 N 248.321 -0.919034 -1.28029 0
M  V30 2680 C 249.253 -0.368762 -2.26214 0
M  V30 2681 C 250.266 0.495716 -1.55069 0
M  V30 2682 O 251.455 0.30974 -1.75792 0
M  V30 2683 C 248.555 0.491049 -3.35324 0
M  V30 2684 C 247.728 -0.352133 -4.3598 0
M  V30 2685 C 246.787 0.443622 -5.24327 0
M  V30 2686 O 245.813 -0.14566 -5.69014 0
M  V30 2687 N 247.015 1.74545 -5.53637 0
M  V30 2688 H 249.78 -1.21273 -2.74068 0
M  V30 2689 H 247.341 -0.785541 -1.41566 0
M  V30 2690 H 249.333 1.03026 -3.91366 0
M  V30 2691 H 247.903 1.23574 -2.87138 0
M  V30 2692 H 247.123 -1.07269 -3.79324 0
M  V30 2693 H 248.411 -0.928883 -5.00249 0
M  V30 2694 H 247.809 2.24666 -5.19174 0
M  V30 2695 H 246.366 2.23138 -6.12416 0
M  V30 2696 N 249.799 1.42003 -0.683588 0
M  V30 2697 C 250.746 2.30798 -0.0107309 0
M  V30 2698 C 251.716 1.4645 0.783688 0
M  V30 2699 O 252.901 1.75263 0.754156 0
M  V30 2700 C 250.041 3.3238 0.928306 0
M  V30 2701 C 249.154 4.31814 0.126776 0
M  V30 2702 C 248.289 5.20468 1.06236 0
M  V30 2703 C 247.328 6.11577 0.253035 0
M  V30 2704 N 246.465 6.92754 1.14179 0
M  V30 2705 H 251.305 2.8778 -0.773727 0
M  V30 2706 H 248.842 1.41745 -0.393283 0
M  V30 2707 H 250.8 3.89813 1.48666 0
M  V30 2708 H 249.43 2.76976 1.65783 0
M  V30 2709 H 248.482 3.76427 -0.54833 0
M  V30 2710 H 249.794 4.96276 -0.501192 0
M  V30 2711 H 248.948 5.82677 1.69035 0
M  V30 2712 H 247.687 4.56204 1.7242 0
M  V30 2713 H 246.692 5.48428 -0.388108 0
M  V30 2714 H 247.917 6.77892 -0.404839 0
M  V30 2715 H 245.863 6.3111 1.78987 0
M  V30 2716 H 245.78 7.53855 0.569111 0
M  V30 2717 H 247.048 7.59441 1.75697 0
M  V30 2718 N 251.277 0.427512 1.51691 0
M  V30 2719 C 252.526 -0.143679 2.01188 0
M  V30 2720 C 252.839 -1.44642 1.31674 0
M  V30 2721 O 254.045 -2.09997 1.72086 0
M  V30 2722 C 252.501 -0.306602 3.58592 0
M  V30 2723 C 252.109 0.985125 4.37035 0
M  V30 2724 C 253.853 -0.832091 4.16265 0
M  V30 2725 C 251.76 0.788382 5.86122 0
M  V30 2726 H 250.69 -0.0574701 0.751807 0
M  V30 2727 H 253.341 0.555772 1.74881 0
M  V30 2728 H 251.723 -1.06882 3.81303 0
M  V30 2729 H 252.897 1.75492 4.26074 0
M  V30 2730 H 251.212 1.4384 3.90767 0
M  V30 2731 H 253.809 -0.995617 5.25349 0
M  V30 2732 H 254.152 -1.81186 3.74803 0
M  V30 2733 H 254.685 -0.128444 3.97593 0
M  V30 2734 H 251.424 1.74025 6.31978 0
M  V30 2735 H 250.944 0.0582143 5.99772 0
M  V30 2736 H 252.623 0.437722 6.45518 0
M  V30 2737 N 252.755 -1.56801 0.158532 0
M  V30 2738 C 254.001 -1.96781 -0.490405 0
M  V30 2739 C 254.334 -1.04397 -1.63753 0
M  V30 2740 O 253.609 -0.0885805 -1.94298 0
M  V30 2741 C 253.892 -3.4635 -0.985594 0
M  V30 2742 C 253.745 -4.49512 0.160824 0
M  V30 2743 C 255.064 -3.98697 -1.86355 0
M  V30 2744 H 252.183 -0.715482 -0.176788 0
M  V30 2745 H 254.825 -1.88451 0.242088 0
M  V30 2746 H 252.975 -3.53579 -1.60978 0
M  V30 2747 H 254.647 -4.54353 0.797537 0
M  V30 2748 H 252.89 -4.26013 0.818256 0
M  V30 2749 H 253.561 -5.51531 -0.227569 0
M  V30 2750 H 256.037 -3.94019 -1.33746 0
M  V30 2751 H 254.913 -5.03792 -2.17909 0
M  V30 2752 H 255.174 -3.41744 -2.8047 0
M  V30 2753 N 254.233 0.115231 -1.57178 0
M  V30 2754 C 255.181 1.16014 -2.01602 0
M  V30 2755 C 256.175 1.42653 -0.913587 0
M  V30 2756 O 257.381 1.42571 -1.09879 0
M  V30 2757 H 253.756 0.391252 -0.642204 0
M  V30 2758 H 255.727 0.758998 -2.88586 0
M  V30 2759 C 254.476 2.47767 -2.4394 0
M  V30 2760 H 253.799 2.28108 -3.28339 0
M  V30 2761 H 255.239 3.19432 -2.78818 0
M  V30 2762 C 253.698 3.10617 -1.30455 0
M  V30 2763 O 254.228 3.96846 -0.622585 0
M  V30 2764 N 252.434 2.70553 -1.06064 0
M  V30 2765 H 251.981 2.00527 -1.61699 0
M  V30 2766 H 251.939 3.12934 -0.303284 0
M  V30 2767 N 255.711 1.52812 0.385517 0
M  V30 2768 C 256.959 1.67694 1.12797 0
M  V30 2769 C 257.28 0.421115 1.90399 0
M  V30 2770 O 256.55 -0.564551 1.87589 0
M  V30 2771 H 255.13 0.618155 0.419396 0
M  V30 2772 H 257.792 1.89938 0.436972 0
M  V30 2773 H 256.888 2.52896 1.82894 0
M  V30 2774 N 257.189 -0.644168 1.43834 0
M  V30 2775 C 258.435 -1.40431 1.47141 0
M  V30 2776 C 258.79 -1.92153 0.0975577 0
M  V30 2777 O 258.083 -1.69924 -0.885232 0
M  V30 2778 C 258.277 -2.59615 2.45631 0
M  V30 2779 C 258.106 -2.1956 3.92458 0
M  V30 2780 C 256.876 -2.07456 4.60749 0
M  V30 2781 C 259.074 -1.79281 4.8204 0
M  V30 2782 N 257.056 -1.60827 5.92459 0
M  V30 2783 C 258.427 -1.43801 6.03093 0
M  V30 2784 C 260.482 -1.66545 4.6922 0
M  V30 2785 C 259.185 -0.968599 7.12749 0
M  V30 2786 C 261.211 -1.21008 5.78888 0
M  V30 2787 C 260.573 -0.864711 6.99072 0
M  V30 2788 H 256.672 -0.509182 0.593513 0
M  V30 2789 H 259.256 -0.740351 1.80075 0
M  V30 2790 H 257.427 -3.23658 2.1471 0
M  V30 2791 H 259.159 -3.26357 2.39318 0
M  V30 2792 H 255.914 -2.275 4.1538 0
M  V30 2793 H 256.338 -1.39848 6.62398 0
M  V30 2794 H 260.98 -1.91883 3.7675 0
M  V30 2795 H 258.698 -0.702715 8.05039 0
M  V30 2796 H 262.284 -1.11631 5.7099 0
M  V30 2797 H 261.164 -0.517736 7.82489 0
M  V30 2798 N 258.668 -1.30515 -0.883378 0
M  V30 2799 C 259.6 -1.12846 -1.99496 0
M  V30 2800 C 260.613 -0.0712571 -1.62644 0
M  V30 2801 O 261.802 -0.317432 -1.75655 0
M  V30 2802 C 258.902 -0.699123 -3.3161 0
M  V30 2803 C 258.075 -1.83842 -3.96889 0
M  V30 2804 C 257.134 -1.39737 -5.07307 0
M  V30 2805 O 256.16 -2.10485 -5.28852 0
M  V30 2806 N 257.362 -0.277279 -5.79837 0
M  V30 2807 H 260.127 -2.08585 -2.15203 0
M  V30 2808 H 257.688 -1.22672 -1.05656 0
M  V30 2809 H 259.68 -0.387044 -4.02845 0
M  V30 2810 H 258.25 0.166276 -3.12157 0
M  V30 2811 H 257.47 -2.31853 -3.18807 0
M  V30 2812 H 258.758 -2.60187 -4.37241 0
M  V30 2813 H 258.156 0.3122 -5.64838 0
M  V30 2814 H 256.713 -0.0246623 -6.51795 0
M  V30 2815 N 260.146 1.09593 -1.13257 0
M  V30 2816 C 261.392 1.82003 -0.89458 0
M  V30 2817 C 261.725 1.85402 0.577906 0
M  V30 2818 O 261 1.32099 1.42759 0
M  V30 2819 C 261.283 3.28237 -1.48096 0
M  V30 2820 C 261.136 3.3312 -3.02244 0
M  V30 2821 C 262.455 4.24871 -1.14774 0
M  V30 2822 H 259.574 0.66077 -0.326424 0
M  V30 2823 H 262.216 1.28389 -1.40058 0
M  V30 2824 H 260.366 3.74024 -1.05062 0
M  V30 2825 H 262.038 2.95748 -3.54021 0
M  V30 2826 H 260.281 2.72756 -3.37323 0
M  V30 2827 H 260.952 4.3613 -3.38371 0
M  V30 2828 H 263.428 3.87361 -1.51957 0
M  V30 2829 H 262.304 5.25532 -1.58452 0
M  V30 2830 H 262.565 4.42058 -0.0611849 0
M  V30 2831 N 261.624 0.925811 1.2754 0
M  V30 2832 C 262.534 0.428993 2.30644 0
M  V30 2833 C 263.55 -0.489387 1.66976 0
M  V30 2834 O 264.726 -0.372653 1.97922 0
M  V30 2835 C 261.791 -0.311967 3.45294 0
M  V30 2836 C 260.852 0.641098 4.24486 0
M  V30 2837 C 260.085 -0.0645955 5.33661 0
M  V30 2838 O 260.308 -1.28429 5.55754 0
M  V30 2839 O 259.242 0.606265 5.98839 0
M  V30 2840 H 263.068 1.28504 2.75173 0
M  V30 2841 H 260.653 0.691086 1.32455 0
M  V30 2842 H 262.535 -0.729972 4.15029 0
M  V30 2843 H 261.21 -1.14365 3.02824 0
M  V30 2844 H 260.117 1.10874 3.57292 0
M  V30 2845 H 261.45 1.43995 4.70666 0
M  V30 2846 N 263.102 -1.41638 0.69111 0
M  V30 2847 C 264.012 -2.34588 0.0233487 0
M  V30 2848 C 265.028 -1.55987 -0.770984 0
M  V30 2849 O 266.204 -1.88486 -0.709569 0
M  V30 2850 C 263.269 -3.34684 -0.904851 0
M  V30 2851 C 262.33 -4.29176 -0.103225 0
M  V30 2852 C 261.563 -5.2449 -0.987216 0
M  V30 2853 O 261.786 -5.2514 -2.22674 0
M  V30 2854 O 260.72 -6.00295 -0.439281 0
M  V30 2855 H 264.546 -2.93261 0.789416 0
M  V30 2856 H 262.131 -1.42417 0.45142 0
M  V30 2857 H 264.013 -3.96133 -1.43724 0
M  V30 2858 H 262.688 -2.78461 -1.65049 0
M  V30 2859 H 261.595 -3.71089 0.473655 0
M  V30 2860 H 262.928 -4.88484 0.60365 0
M  V30 2861 N 264.58 -0.43555 -1.51462 0
M  V30 2862 C 265.543 0.365137 -2.26273 0
M  V30 2863 C 266.543 0.951227 -1.29647 0
M  V30 2864 O 267.733 0.825958 -1.53374 0
M  V30 2865 C 264.865 1.51645 -3.05314 0
M  V30 2866 H 266.058 -0.290474 -2.9849 0
M  V30 2867 H 263.611 -0.188676 -1.55157 0
M  V30 2868 H 264.346 2.20816 -2.3751 0
M  V30 2869 H 264.131 1.10238 -3.76284 0
M  V30 2870 H 265.621 2.08218 -3.61987 0
M  V30 2871 N 266.058 1.56714 -0.166846 0
M  V30 2872 C 267.335 1.88412 0.525373 0
M  V30 2873 C 267.715 1.07602 1.81618 0
M  V30 2874 O 267.063 0.168621 2.27877 0
M  V30 2875 C 267.273 3.40363 0.771613 0
M  V30 2876 C 268.621 4.10007 1.1036 0
M  V30 2877 O 269.645 3.45655 0.860304 0
M  V30 2878 O 268.504 5.2369 1.56239 0
M  V30 2879 H 265.598 0.781587 0.270278 0
M  V30 2880 H 268.144 1.68458 -0.204946 0
M  V30 2881 H 266.916 3.91046 -0.141093 0
M  V30 2882 H 266.539 3.65914 1.55541 0
M  V30 2883 N 267.536 -0.106894 1.57237 0
M  V30 2884 C 268.813 -0.843526 1.76477 0
M  V30 2885 C 269.193 -1.97499 0.745464 0
M  V30 2886 O 268.541 -2.27357 -0.228306 0
M  V30 2887 C 268.751 -1.34903 3.21873 0
M  V30 2888 C 270.099 -1.79654 3.8472 0
M  V30 2889 O 271.123 -1.44554 3.2555 0
M  V30 2890 O 269.982 -2.44515 4.88748 0
M  V30 2891 H 267.076 -0.401468 0.723016 0
M  V30 2892 H 269.622 -0.0896927 1.69463 0
M  V30 2893 H 268.394 -0.53781 3.87586 0
M  V30 2894 H 268.017 -2.16522 3.33473 0
M  V30 2895 N 269.014 -1.53014 -0.377408 0
M  V30 2896 C 270.26 -1.69821 -1.11948 0
M  V30 2897 C 270.615 -0.438581 -1.87335 0
M  V30 2898 O 269.908 0.568094 -1.82984 0
M  V30 2899 C 270.102 -2.87982 -2.11663 0
M  V30 2900 C 269.931 -4.25315 -1.46072 0
M  V30 2901 C 268.701 -4.90354 -1.21986 0
M  V30 2902 C 270.899 -5.06281 -0.904664 0
M  V30 2903 N 268.881 -6.11641 -0.526215 0
M  V30 2904 C 270.252 -6.19069 -0.339726 0
M  V30 2905 C 272.307 -4.91395 -0.8022 0
M  V30 2906 C 271.01 -7.18598 0.317669 0
M  V30 2907 C 273.036 -5.91187 -0.158606 0
M  V30 2908 C 272.398 -7.03289 0.39551 0
M  V30 2909 H 268.497 -0.674785 -0.395207 0
M  V30 2910 H 271.081 -1.90389 -0.407437 0
M  V30 2911 H 269.252 -2.68974 -2.80192 0
M  V30 2912 H 270.984 -2.93669 -2.78461 0
M  V30 2913 H 267.739 -4.49286 -1.49798 0
M  V30 2914 H 268.163 -6.76719 -0.195098 0
M  V30 2915 H 272.805 -4.04925 -1.21639 0
M  V30 2916 H 270.523 -8.04669 0.743836 0
M  V30 2917 H 274.109 -5.81744 -0.0804138 0
M  V30 2918 H 272.989 -7.79183 0.885648 0
M  V30 2919 N 270.492 0.636531 -1.44174 0
M  V30 2920 C 271.422 1.76003 -1.53444 0
M  V30 2921 C 272.403 1.65619 -0.387841 0
M  V30 2922 O 273.588 1.84461 -0.607257 0
M  V30 2923 C 270.718 3.14511 -1.4731 0
M  V30 2924 C 269.672 3.39677 -2.60391 0
M  V30 2925 C 268.998 4.78159 -2.39308 0
M  V30 2926 C 270.298 3.32772 -4.02567 0
M  V30 2927 H 271.992 1.68501 -2.47483 0
M  V30 2928 H 269.538 0.809237 -1.19111 0
M  V30 2929 H 271.491 3.92878 -1.52397 0
M  V30 2930 H 270.215 3.22783 -0.49785 0
M  V30 2931 H 268.874 2.63688 -2.54684 0
M  V30 2932 H 268.522 4.83128 -1.39988 0
M  V30 2933 H 268.222 4.95956 -3.15122 0
M  V30 2934 H 269.746 5.58762 -2.46205 0
M  V30 2935 H 271.16 4.01051 -4.09672 0
M  V30 2936 H 269.557 3.62104 -4.7854 0
M  V30 2937 H 270.627 2.30669 -4.2652 0
M  V30 2938 N 271.97 1.30982 0.876444 0
M  V30 2939 C 273.386 1.09498 1.16113 0
M  V30 2940 C 273.586 -0.13875 2.01022 0
M  V30 2941 O 272.642 -0.829935 2.38471 0
M  V30 2942 C 273.955 2.36308 1.85954 0
M  V30 2943 C 275.503 2.41856 1.98683 0
M  V30 2944 C 275.978 3.6853 2.71937 0
M  V30 2945 N 277.469 3.69387 2.79477 0
M  V30 2946 C 278.204 4.64096 3.36753 0
M  V30 2947 N 277.7 5.69155 3.95012 0
M  V30 2948 N 279.493 4.51626 3.3465 0
M  V30 2949 H 271.644 2.10118 0.310494 0
M  V30 2950 H 273.907 0.926634 0.200131 0
M  V30 2951 H 273.613 3.26388 1.31011 0
M  V30 2952 H 273.487 2.4561 2.86278 0
M  V30 2953 H 275.874 1.52249 2.52793 0
M  V30 2954 H 275.955 2.36523 0.9742 0
M  V30 2955 H 275.599 4.58499 2.18496 0
M  V30 2956 H 275.529 3.71127 3.73593 0
M  V30 2957 H 278.02 2.93438 2.38123 0
M  V30 2958 H 278.333 6.3751 4.36808 0
M  V30 2959 H 276.678 5.72937 3.93406 0
M  V30 2960 H 279.869 3.68728 2.8837 0
M  V30 2961 H 280.042 5.25614 3.7899 0
M  V30 2962 N 273.449 -1.08991 1.13837 0
M  V30 2963 C 274.679 -1.84743 0.924859 0
M  V30 2964 C 275.087 -1.81629 -0.529874 0
M  V30 2965 O 274.43 -1.21397 -1.37872 0
M  V30 2966 C 274.492 -3.33568 1.34061 0
M  V30 2967 C 274.156 -3.60425 2.80968 0
M  V30 2968 C 275.153 -3.55771 3.79108 0
M  V30 2969 C 272.838 -3.88627 3.18236 0
M  V30 2970 C 274.832 -3.78939 5.12527 0
M  V30 2971 C 272.519 -4.11449 4.51833 0
M  V30 2972 C 273.517 -4.06598 5.48787 0
M  V30 2973 O 273.205 -4.28826 6.79973 0
M  V30 2974 H 272.937 -0.590258 0.329502 0
M  V30 2975 H 275.491 -1.38598 1.51591 0
M  V30 2976 H 273.721 -3.80442 0.692853 0
M  V30 2977 H 275.41 -3.90743 1.09886 0
M  V30 2978 H 276.176 -3.34005 3.51661 0
M  V30 2979 H 272.055 -3.91526 2.43369 0
M  V30 2980 H 275.599 -3.75068 5.88192 0
M  V30 2981 H 271.496 -4.32698 4.79002 0
M  V30 2982 H 272.264 -4.46264 6.86142 0
M  V30 2983 N 274.927 -0.932562 -1.27047 0
M  V30 2984 C 276.175 -0.574422 -1.93765 0
M  V30 2985 C 276.496 0.887993 -1.73608 0
M  V30 2986 O 275.766 1.62999 -1.08665 0
M  V30 2987 H 274.346 -0.209451 -0.717035 0
M  V30 2988 H 277.008 -1.18601 -1.5466 0
M  V30 2989 H 276.104 -0.784841 -3.02071 0
M  V30 2990 N 276.405 1.4127 -0.698611 0
M  V30 2991 C 277.353 2.32588 -0.023855 0
M  V30 2992 C 278.347 1.51128 0.765292 0
M  V30 2993 O 279.553 1.67043 0.670571 0
M  V30 2994 H 275.928 0.751918 0.0110871 0
M  V30 2995 H 277.899 2.87167 -0.811031 0
M  V30 2996 C 276.648 3.35947 0.896369 0
M  V30 2997 H 275.971 3.98684 0.298548 0
M  V30 2998 H 277.411 4.02376 1.33676 0
M  V30 2999 C 275.87 2.70076 2.01396 0
M  V30 3000 O 276.4 2.55093 3.10307 0
M  V30 3001 N 274.606 2.28724 1.79259 0
M  V30 3002 H 274.153 2.4111 0.906841 0
M  V30 3003 H 274.111 1.84986 2.54219 0
M  V30 3004 N 277.883 0.443576 1.51229 0
M  V30 3005 C 279.294 -0.0180867 1.86691 0
M  V30 3006 C 279.645 -1.41384 1.36033 0
M  V30 3007 O 278.77 -2.04291 0.713722 0
M  V30 3008 C 279.365 -0.039597 3.38777 0
M  V30 3009 C 277.924 -0.445692 3.73752 0
M  V30 3010 C 277.071 0.357584 2.74985 0
M  V30 3011 H 280.022 0.659138 1.44364 0
M  V30 3012 H 280.043 -0.847761 3.70936 0
M  V30 3013 H 279.555 0.976382 3.75617 0
M  V30 3014 H 277.656 -1.46704 3.42503 0
M  V30 3015 H 277.769 -0.166155 4.78812 0
M  V30 3016 H 276.133 -0.184973 2.54027 0
M  V30 3017 H 276.916 1.37256 3.14668 0
M  V30 3018 N 279.361 -1.56624 0.175154 0
M  V30 3019 C 280.607 -1.98061 -0.462976 0
M  V30 3020 C 280.962 -1.05949 -1.60601 0
M  V30 3021 O 280.255 -0.0999027 -1.91339 0
M  V30 3022 C 280.449 -3.43419 -0.989864 0
M  V30 3023 C 280.278 -4.49587 0.100583 0
M  V30 3024 C 279.048 -5.02281 0.551539 0
M  V30 3025 C 281.246 -5.06322 0.902369 0
M  V30 3026 N 279.228 -5.92088 1.62189 0
M  V30 3027 C 280.599 -5.92607 1.82256 0
M  V30 3028 C 282.654 -4.88811 0.947019 0
M  V30 3029 C 281.357 -6.63254 2.78364 0
M  V30 3030 C 283.383 -5.60182 1.89606 0
M  V30 3031 C 282.745 -6.46197 2.80372 0
M  V30 3032 H 278.844 -0.769833 -0.137409 0
M  V30 3033 H 281.428 -1.9273 0.276256 0
M  V30 3034 H 279.599 -3.49288 -1.6986 0
M  V30 3035 H 281.331 -3.7186 -1.59694 0
M  V30 3036 H 278.086 -4.73367 0.148537 0
M  V30 3037 H 278.51 -6.41696 2.15767 0
M  V30 3038 H 283.152 -4.22004 0.259304 0
M  V30 3039 H 280.87 -7.29271 3.48122 0
M  V30 3040 H 284.456 -5.48617 1.93676 0
M  V30 3041 H 283.336 -7.00453 3.52612 0
M  V30 3042 N 280.839 0.0985539 -1.57292 0
M  V30 3043 C 281.749 1.13824 -2.05137 0
M  V30 3044 C 282.765 1.44076 -0.975604 0
M  V30 3045 O 283.941 1.54786 -1.28853 0
M  V30 3046 C 281.006 2.43969 -2.46333 0
M  V30 3047 C 280.067 2.2093 -3.68087 0
M  V30 3048 C 279.3 3.44869 -4.0731 0
M  V30 3049 O 279.523 4.52972 -3.46659 0
M  V30 3050 O 278.457 3.34661 -5.00285 0
M  V30 3051 H 282.283 0.761881 -2.93988 0
M  V30 3052 H 279.868 0.310818 -1.46131 0
M  V30 3053 H 281.75 3.20609 -2.73473 0
M  V30 3054 H 280.425 2.81038 -1.60621 0
M  V30 3055 H 279.332 1.42081 -3.46069 0
M  V30 3056 H 280.665 1.88755 -4.54568 0
M  V30 3057 N 282.317 1.53212 0.369288 0
M  V30 3058 C 283.264 1.79388 1.45219 0
M  V30 3059 C 284.234 0.638059 1.53356 0
M  V30 3060 O 285.419 0.879852 1.69302 0
M  V30 3061 C 282.559 1.98623 2.82211 0
M  V30 3062 C 281.672 3.26337 2.8307 0
M  V30 3063 C 280.807 3.35779 4.11614 0
M  V30 3064 C 279.846 4.5754 4.06601 0
M  V30 3065 N 278.983 4.64155 5.26787 0
M  V30 3066 H 283.823 2.71794 1.22198 0
M  V30 3067 H 281.36 1.34642 0.592444 0
M  V30 3068 H 283.318 2.07761 3.61789 0
M  V30 3069 H 281.948 1.09558 3.03639 0
M  V30 3070 H 281 3.26171 1.95747 0
M  V30 3071 H 282.312 4.15988 2.75237 0
M  V30 3072 H 281.466 3.44208 4.99606 0
M  V30 3073 H 280.205 2.44137 4.22195 0
M  V30 3074 H 279.21 4.49215 3.16996 0
M  V30 3075 H 280.435 5.50519 3.97625 0
M  V30 3076 H 278.381 3.75413 5.3796 0
M  V30 3077 H 278.298 5.47706 5.21109 0
M  V30 3078 H 279.566 4.76863 6.16621 0
M  V30 3079 N 283.795 -0.628877 1.44509 0
M  V30 3080 C 284.758 -1.72263 1.51188 0
M  V30 3081 C 285.758 -1.55907 0.39367 0
M  V30 3082 O 286.948 -1.61361 0.656377 0
M  V30 3083 C 284.08 -3.11365 1.38798 0
M  V30 3084 H 285.273 -1.67714 2.4862 0
M  V30 3085 H 282.826 -0.842737 1.31634 0
M  V30 3086 H 283.561 -3.21507 0.424693 0
M  V30 3087 H 283.346 -3.24644 2.19884 0
M  V30 3088 H 284.836 -3.91075 1.46458 0
M  V30 3089 N 285.273 -1.31445 -0.869486 0
M  V30 3090 C 286.689 -1.10113 -1.15531 0
M  V30 3091 C 286.889 0.128087 -2.01092 0
M  V30 3092 O 285.945 0.817276 -2.38908 0
M  V30 3093 C 287.258 -2.37291 -1.84698 0
M  V30 3094 C 288.806 -2.42906 -1.97397 0
M  V30 3095 C 289.281 -3.69967 -2.69979 0
M  V30 3096 N 290.772 -3.70864 -2.77514 0
M  V30 3097 C 291.507 -4.65875 -3.34287 0
M  V30 3098 N 291.003 -5.71242 -3.91988 0
M  V30 3099 N 292.796 -4.53394 -3.3225 0
M  V30 3100 H 284.947 -2.1028 -0.299347 0
M  V30 3101 H 287.21 -0.927683 -0.195214 0
M  V30 3102 H 286.916 -3.27078 -1.29278 0
M  V30 3103 H 286.79 -2.47125 -2.84972 0
M  V30 3104 H 289.177 -1.53588 -2.51982 0
M  V30 3105 H 289.258 -2.37036 -0.961643 0
M  V30 3106 H 288.902 -4.59652 -2.16062 0
M  V30 3107 H 288.832 -3.73103 -3.7162 0
M  V30 3108 H 291.323 -2.94697 -2.36563 0
M  V30 3109 H 291.636 -6.39817 -4.33421 0
M  V30 3110 H 289.981 -5.75015 -3.90362 0
M  V30 3111 H 293.172 -3.70252 -2.8641 0
M  V30 3112 H 293.345 -5.27617 -3.76197 0
M  V30 3113 N 286.751 1.08385 -1.14413 0
M  V30 3114 C 288.162 1.62258 -0.923535 0
M  V30 3115 C 288.513 1.88691 0.537595 0
M  V30 3116 O 287.638 1.64454 1.40655 0
M  V30 3117 C 288.233 2.94781 -1.67002 0
M  V30 3118 C 286.792 3.45437 -1.495 0
M  V30 3119 C 285.939 2.19668 -1.69238 0
M  V30 3120 H 288.89 0.916086 -1.2959 0
M  V30 3121 H 288.911 3.63229 -1.13334 0
M  V30 3122 H 288.423 2.7551 -2.73342 0
M  V30 3123 H 286.524 3.6981 -0.455097 0
M  V30 3124 H 286.637 4.22173 -2.2651 0
M  V30 3125 H 285.001 2.28849 -1.11804 0
M  V30 3126 H 285.784 2.02905 -2.7692 0
M  V30 3127 N 288.23 0.939286 1.26551 0
M  V30 3128 C 289.14 0.453432 2.30176 0
M  V30 3129 C 290.156 -0.471649 1.67486 0
M  V30 3130 O 291.332 -0.35164 1.98306 0
M  V30 3131 C 288.397 -0.275326 3.45605 0
M  V30 3132 C 287.458 0.686084 4.23782 0
M  V30 3133 C 286.691 -0.00798994 5.33699 0
M  V30 3134 O 286.914 -1.22528 5.57085 0
M  V30 3135 O 285.848 0.669746 5.98162 0
M  V30 3136 H 289.674 1.31416 2.73795 0
M  V30 3137 H 287.259 0.705095 1.31715 0
M  V30 3138 H 289.141 -0.685911 4.1578 0
M  V30 3139 H 287.816 -1.11147 3.0402 0
M  V30 3140 H 286.723 1.14658 3.56096 0
M  V30 3141 H 288.056 1.48979 4.69112 0
M  V30 3142 N 289.708 -1.40897 0.706093 0
M  V30 3143 C 290.938 -2.05075 0.250523 0
M  V30 3144 C 291.346 -1.53275 -1.10921 0
M  V30 3145 O 290.689 -0.680281 -1.7064 0
M  V30 3146 C 290.751 -3.59219 0.142178 0
M  V30 3147 C 290.415 -4.33864 1.43566 0
M  V30 3148 C 291.412 -4.62448 2.37566 0
M  V30 3149 C 289.097 -4.72946 1.69195 0
M  V30 3150 C 291.091 -5.29088 3.5545 0
M  V30 3151 C 288.778 -5.3932 2.87362 0
M  V30 3152 C 289.776 -5.6732 3.80312 0
M  V30 3153 O 289.464 -6.32325 4.96408 0
M  V30 3154 H 289.196 -0.666645 0.112074 0
M  V30 3155 H 291.75 -1.81467 0.962239 0
M  V30 3156 H 289.98 -3.81609 -0.6254 0
M  V30 3157 H 291.669 -4.0495 -0.277584 0
M  V30 3158 H 292.435 -4.32727 2.19027 0
M  V30 3159 H 288.314 -4.50527 0.977042 0
M  V30 3160 H 291.858 -5.50859 4.28018 0
M  V30 3161 H 287.755 -5.68461 3.05814 0
M  V30 3162 H 288.523 -6.50821 4.9636 0
M  V30 3163 N 291.186 -0.45159 -1.50991 0
M  V30 3164 C 292.119 0.398179 -2.24699 0
M  V30 3165 C 293.097 1.01276 -1.27208 0
M  V30 3166 O 294.281 1.05247 -1.56382 0
M  V30 3167 C 291.408 1.55618 -3.00833 0
M  V30 3168 C 290.454 1.0609 -4.13095 0
M  V30 3169 S 291.287 -0.00865136 -5.35499 0
M  V30 3170 C 292.443 1.15369 -6.15175 0
M  V30 3171 H 292.676 -0.227555 -2.96428 0
M  V30 3172 H 290.209 -0.236251 -1.52582 0
M  V30 3173 H 292.167 2.21997 -3.45293 0
M  V30 3174 H 290.828 2.15337 -2.28667 0
M  V30 3175 H 290.021 1.92726 -4.65696 0
M  V30 3176 H 289.623 0.47513 -3.7097 0
M  V30 3177 H 291.915 2.06925 -6.45126 0
M  V30 3178 H 292.858 0.667344 -7.04948 0
M  V30 3179 H 293.266 1.3987 -5.46897 0
M  V30 3180 N 292.664 1.56529 -0.183458 0
M  V30 3181 C 293.594 2.21549 0.737456 0
M  V30 3182 C 294.575 1.17489 1.23005 0
M  V30 3183 O 295.76 1.45959 1.281 0
M  V30 3184 C 292.89 2.86575 1.96194 0
M  V30 3185 C 291.844 3.96778 1.60473 0
M  V30 3186 C 291.17 4.48911 2.90487 0
M  V30 3187 C 292.47 5.15767 0.823497 0
M  V30 3188 H 294.164 2.98761 0.195453 0
M  V30 3189 H 291.71 1.43702 0.0925686 0
M  V30 3190 H 293.663 3.30739 2.61131 0
M  V30 3191 H 292.387 2.06749 2.52828 0
M  V30 3192 H 291.046 3.53286 0.978997 0
M  V30 3193 H 290.694 3.65862 3.45186 0
M  V30 3194 H 290.394 5.23265 2.67335 0
M  V30 3195 H 291.918 4.95771 3.56432 0
M  V30 3196 H 293.332 5.56549 1.37571 0
M  V30 3197 H 291.729 5.96114 0.690551 0
M  V30 3198 H 292.799 4.84574 -0.177782 0
M  V30 3199 N 294.142 -0.090211 1.57342 0
M  V30 3200 C 295.553 -0.644173 1.75235 0
M  V30 3201 C 295.904 -1.78865 0.806335 0
M  V30 3202 O 295.029 -2.16395 -0.0140128 0
M  V30 3203 C 295.624 -1.17532 3.1776 0
M  V30 3204 C 294.183 -1.67531 3.37061 0
M  V30 3205 C 293.33 -0.58693 2.71017 0
M  V30 3206 H 296.281 0.135884 1.58117 0
M  V30 3207 H 296.302 -2.04455 3.20902 0
M  V30 3208 H 295.814 -0.342138 3.86589 0
M  V30 3209 H 293.915 -2.53234 2.73319 0
M  V30 3210 H 294.028 -1.76493 4.45406 0
M  V30 3211 H 292.392 -1.02756 2.33052 0
M  V30 3212 H 293.175 0.235758 3.4249 0
M  V30 3213 N 295.62 -1.53406 -0.361157 0
M  V30 3214 C 296.866 -1.70054 -1.10496 0
M  V30 3215 C 297.199 -0.453278 -1.88836 0
M  V30 3216 O 296.474 0.5495 -1.86576 0
M  V30 3217 C 296.757 -2.95317 -2.06058 0
M  V30 3218 C 296.61 -4.3021 -1.31298 0
M  V30 3219 C 297.929 -3.16193 -3.06121 0
M  V30 3220 H 295.048 -0.618799 -0.400321 0
M  V30 3221 H 297.69 -1.86052 -0.385318 0
M  V30 3222 H 295.84 -2.81809 -2.67425 0
M  V30 3223 H 297.512 -4.55538 -0.726807 0
M  V30 3224 H 295.755 -4.29421 -0.614853 0
M  V30 3225 H 296.426 -5.14 -2.01265 0
M  V30 3226 H 298.902 -3.28916 -2.5486 0
M  V30 3227 H 297.778 -4.05266 -3.70204 0
M  V30 3228 H 298.039 -2.31676 -3.76535 0
M  V30 3229 N 297.098 0.621204 -1.44841 0
M  V30 3230 C 298.048 1.72663 -1.48901 0
M  V30 3231 C 299.032 1.56964 -0.353702 0
M  V30 3232 O 300.224 1.66532 -0.599669 0
M  V30 3233 C 297.353 3.11381 -1.44557 0
M  V30 3234 C 296.439 3.32514 -2.6324 0
M  V30 3235 N 296.83 3.23969 -3.8843 0
M  V30 3236 C 295.128 3.63343 -2.58647 0
M  V30 3237 C 295.829 3.46062 -4.67564 0
M  V30 3238 N 294.805 3.69407 -3.98797 0
M  V30 3239 H 298.607 1.64529 -2.43531 0
M  V30 3240 H 296.121 0.82401 -1.39942 0
M  V30 3241 H 298.118 3.90667 -1.4555 0
M  V30 3242 H 296.778 3.20674 -0.509731 0
M  V30 3243 H 297.789 3.02669 -4.20252 0
M  V30 3244 H 294.466 3.79556 -1.73906 0
M  V30 3245 H 295.856 3.44963 -5.76585 0
M  V30 3246 N 298.576 1.31904 0.862503 0
M  V30 3247 C 299.823 1.22017 1.61611 0
M  V30 3248 C 300.151 -0.21991 1.93253 0
M  V30 3249 O 299.406 -1.17076 1.56817 0
M  V30 3250 C 299.705 2.01713 2.95037 0
M  V30 3251 C 299.371 3.51145 2.82857 0
M  V30 3252 C 298.033 3.91889 2.79243 0
M  V30 3253 C 300.385 4.46204 2.69353 0
M  V30 3254 C 297.713 5.25947 2.59993 0
M  V30 3255 C 300.065 5.80397 2.5164 0
M  V30 3256 C 298.729 6.20352 2.46413 0
M  V30 3257 H 297.999 0.44649 0.591378 0
M  V30 3258 H 300.646 1.63248 1.00111 0
M  V30 3259 H 298.951 1.53185 3.60613 0
M  V30 3260 H 300.648 1.91437 3.52353 0
M  V30 3261 H 297.238 3.1878 2.86491 0
M  V30 3262 H 301.422 4.15652 2.71196 0
M  V30 3263 H 296.678 5.5597 2.54376 0
M  V30 3264 H 300.852 6.53676 2.40169 0
M  V30 3265 H 298.479 7.24172 2.31256 0
M  V30 3266 N 300.054 -1.07777 1.14986 0
M  V30 3267 C 301.284 -1.83752 0.944402 0
M  V30 3268 C 301.692 -1.8218 -0.51058 0
M  V30 3269 O 301.035 -1.22852 -1.36576 0
M  V30 3270 C 301.097 -3.32128 1.37592 0
M  V30 3271 C 300.761 -3.57425 2.84775 0
M  V30 3272 C 301.758 -3.5173 3.8286 0
M  V30 3273 C 299.443 -3.8523 3.2234 0
M  V30 3274 C 301.437 -3.73482 5.16517 0
M  V30 3275 C 299.124 -4.06634 4.56171 0
M  V30 3276 C 300.122 -4.00754 5.53069 0
M  V30 3277 O 299.81 -4.2159 6.84483 0
M  V30 3278 H 299.542 -0.58673 0.335744 0
M  V30 3279 H 302.096 -1.36982 1.53052 0
M  V30 3280 H 300.326 -3.79686 0.733165 0
M  V30 3281 H 302.015 -3.89555 1.14024 0
M  V30 3282 H 302.781 -3.30256 3.55184 0
M  V30 3283 H 298.66 -3.88923 2.47508 0
M  V30 3284 H 302.204 -3.68808 5.92137 0
M  V30 3285 H 298.101 -4.27593 4.83564 0
M  V30 3286 H 298.869 -4.38961 6.90837 0
M  V30 3287 N 301.532 -0.945985 -1.26051 0
M  V30 3288 C 302.78 -0.594941 -1.93145 0
M  V30 3289 C 303.101 0.86953 -1.7454 0
M  V30 3290 O 302.371 1.61838 -1.10387 0
M  V30 3291 H 300.951 -0.217044 -0.714773 0
M  V30 3292 H 303.613 -1.20235 -1.53393 0
M  V30 3293 H 302.709 -0.816835 -3.01221 0
M  V30 3294 N 303.011 1.40521 -0.713556 0
M  V30 3295 C 304.427 1.54839 -0.386907 0
M  V30 3296 C 304.627 1.68532 1.1045 0
M  V30 3297 O 303.683 1.67377 1.89053 0
M  V30 3298 C 304.996 2.77792 -1.15118 0
M  V30 3299 C 306.544 2.91607 -1.13729 0
M  V30 3300 C 307.019 4.1747 -1.88368 0
M  V30 3301 N 308.51 4.24466 -1.85427 0
M  V30 3302 C 309.245 5.20755 -2.40004 0
M  V30 3303 N 308.741 6.22965 -3.03129 0
M  V30 3304 N 310.534 5.1282 -2.30158 0
M  V30 3305 H 302.685 1.29879 -1.68063 0
M  V30 3306 H 304.948 0.627896 -0.710247 0
M  V30 3307 H 304.654 2.73944 -2.20561 0
M  V30 3308 H 304.528 3.6984 -0.741477 0
M  V30 3309 H 306.915 2.94959 -0.0910608 0
M  V30 3310 H 306.996 2.00682 -1.5862 0
M  V30 3311 H 306.64 4.1488 -2.9298 0
M  V30 3312 H 306.57 5.074 -1.40898 0
M  V30 3313 H 309.061 3.51241 -1.3942 0
M  V30 3314 H 309.374 6.92859 -3.42295 0
M  V30 3315 H 307.719 6.23415 -3.07212 0
M  V30 3316 H 310.91 4.31899 -1.80501 0
M  V30 3317 H 311.083 5.87689 -2.72993 0
M  V30 3318 N 304.489 0.459591 1.5075 0
M  V30 3319 C 305.735 -0.0994966 2.02556 0
M  V30 3320 C 306.068 -1.40399 1.3417 0
M  V30 3321 O 305.343 -1.88892 0.463683 0
M  V30 3322 C 305.626 -0.295242 3.58888 0
M  V30 3323 C 305.479 1.02947 4.37861 0
M  V30 3324 C 306.798 -1.05502 4.27267 0
M  V30 3325 H 303.917 -0.034686 0.736183 0
M  V30 3326 H 306.559 0.602938 1.8018 0
M  V30 3327 H 304.709 -0.893563 3.78084 0
M  V30 3328 H 306.381 1.66348 4.30263 0
M  V30 3329 H 304.624 1.62885 4.02058 0
M  V30 3330 H 305.295 0.846281 5.45474 0
M  V30 3331 H 307.771 -0.547993 4.12476 0
M  V30 3332 H 306.647 -1.16077 5.36486 0
M  V30 3333 H 306.908 -2.08875 3.89645 0
M  V30 3334 N 305.967 -1.56429 0.191757 0
M  V30 3335 C 306.877 -2.22541 -0.742481 0
M  V30 3336 C 307.893 -1.22342 -1.23727 0
M  V30 3337 O 309.069 -1.55069 -1.28513 0
M  V30 3338 C 306.134 -2.8692 -1.94623 0
M  V30 3339 C 305.195 -4.02378 -1.49633 0
M  V30 3340 C 304.428 -4.63678 -2.6427 0
M  V30 3341 O 304.651 -4.23895 -3.81666 0
M  V30 3342 O 303.585 -5.53202 -2.37174 0
M  V30 3343 H 307.411 -3.02977 -0.209462 0
M  V30 3344 H 304.996 -1.49353 -0.0373832 0
M  V30 3345 H 306.878 -3.27663 -2.64982 0
M  V30 3346 H 305.553 -2.09466 -2.46791 0
M  V30 3347 H 304.46 -3.66265 -0.761636 0
M  V30 3348 H 305.793 -4.81487 -1.02134 0
M  V30 3349 N 307.445 0.0818655 -1.57387 0
M  V30 3350 C 308.395 1.10501 -1.99433 0
M  V30 3351 C 309.379 1.35041 -0.874798 0
M  V30 3352 O 310.571 1.35511 -1.13868 0
M  V30 3353 C 307.7 2.42159 -2.43339 0
M  V30 3354 C 306.786 2.20937 -3.62005 0
M  V30 3355 N 307.177 1.69616 -4.76512 0
M  V30 3356 C 305.475 2.51451 -3.68359 0
M  V30 3357 C 306.176 1.62973 -5.58404 0
M  V30 3358 N 305.152 2.08664 -5.01956 0
M  V30 3359 H 308.954 0.701373 -2.85408 0
M  V30 3360 H 306.468 0.289096 -1.59806 0
M  V30 3361 H 308.465 3.16208 -2.71695 0
M  V30 3362 H 307.125 2.83249 -1.58746 0
M  V30 3363 H 308.136 1.38624 -4.99003 0
M  V30 3364 H 304.813 2.95975 -2.94457 0
M  V30 3365 H 306.203 1.24233 -6.60315 0
M  V30 3366 N 308.923 1.53595 0.353017 0
M  V30 3367 C 310.151 1.74311 1.1146 0
M  V30 3368 C 310.566 0.477854 1.82653 0
M  V30 3369 O 309.923 -0.549977 1.74016 0
M  V30 3370 C 309.974 2.91694 2.13534 0
M  V30 3371 O 309.695 4.13325 1.45238 0
M  V30 3372 C 311.196 3.24384 3.02142 0
M  V30 3373 H 308.416 0.582669 0.332773 0
M  V30 3374 H 310.96 2.00386 0.408107 0
M  V30 3375 H 309.115 2.67977 2.79763 0
M  V30 3376 H 309.529 4.79148 2.13349 0
M  V30 3377 H 311.003 4.09893 3.69718 0
M  V30 3378 H 311.48 2.40282 3.67643 0
M  V30 3379 H 312.086 3.50073 2.41514 0
M  V30 3380 N 310.401 -0.613514 1.45168 0
M  V30 3381 C 311.812 -1.19539 1.43413 0
M  V30 3382 C 312.163 -1.95558 0.158632 0
M  V30 3383 O 311.288 -2.0335 -0.740119 0
M  V30 3384 C 311.883 -2.17445 2.59813 0
M  V30 3385 C 310.442 -2.71022 2.61197 0
M  V30 3386 C 309.589 -1.46323 2.35552 0
M  V30 3387 H 312.54 -0.403163 1.53494 0
M  V30 3388 H 312.561 -3.00373 2.33574 0
M  V30 3389 H 312.073 -1.62089 3.52631 0
M  V30 3390 H 310.174 -3.30332 1.7237 0
M  V30 3391 H 310.287 -3.15859 3.60236 0
M  V30 3392 H 308.651 -1.75072 1.84992 0
M  V30 3393 H 309.434 -0.92844 3.30507 0
M  V30 3394 N 311.879 -1.3236 -0.855495 0
M  V30 3395 C 313.156 -1.13491 -1.59309 0
M  V30 3396 C 313.536 0.30503 -2.08885 0
M  V30 3397 O 312.884 1.30151 -1.87811 0
M  V30 3398 C 313.094 -2.16176 -2.73987 0
M  V30 3399 C 314.442 -2.49463 -3.43589 0
M  V30 3400 O 315.466 -2.14715 -2.84211 0
M  V30 3401 O 314.325 -3.09027 -4.50738 0
M  V30 3402 H 311.419 -0.437887 -0.701559 0
M  V30 3403 H 313.965 -1.43887 -0.899696 0
M  V30 3404 H 312.737 -3.1297 -2.34873 0
M  V30 3405 H 312.36 -1.86769 -3.51003 0
M  V30 3406 N 313.357 1.07166 -1.15556 0
M  V30 3407 C 314.605 1.79443 -0.929764 0
M  V30 3408 C 314.926 1.87246 0.544414 0
M  V30 3409 O 314.196 1.37473 1.39564 0
M  V30 3410 H 312.776 0.664625 -0.341003 0
M  V30 3411 H 315.438 1.29499 -1.45657 0
M  V30 3412 H 314.534 2.81832 -1.34079 0
M  V30 3413 N 314.835 0.952656 1.25548 0
M  V30 3414 C 316.081 0.607272 1.93494 0
M  V30 3415 C 316.414 -0.853245 1.74452 0
M  V30 3416 O 315.689 -1.61194 1.08843 0
M  V30 3417 C 315.972 0.96435 3.46947 0
M  V30 3418 C 315.825 2.48045 3.75225 0
M  V30 3419 C 317.144 0.487987 4.37386 0
M  V30 3420 H 314.263 0.222096 0.702739 0
M  V30 3421 H 316.905 1.18895 1.48203 0
M  V30 3422 H 315.055 0.469361 3.85654 0
M  V30 3423 H 316.727 3.04905 3.46166 0
M  V30 3424 H 314.97 2.919 3.209 0
M  V30 3425 H 315.641 2.6808 4.82532 0
M  V30 3426 H 318.117 0.912558 4.0597 0
M  V30 3427 H 316.993 0.766547 5.43521 0
M  V30 3428 H 317.254 -0.612063 4.37843 0
M  V30 3429 N 316.313 -1.40141 0.720998 0
M  V30 3430 C 317.26 -2.30688 0.071919 0
M  V30 3431 C 318.23 -1.48476 -0.744584 0
M  V30 3432 O 319.415 -1.77201 -0.707423 0
M  V30 3433 C 316.555 -3.34724 -0.839855 0
M  V30 3434 C 315.668 -4.31998 -0.0122438 0
M  V30 3435 C 314.803 -5.23102 -0.923995 0
M  V30 3436 C 313.842 -6.12033 -0.0907969 0
M  V30 3437 N 312.979 -6.95537 -0.957718 0
M  V30 3438 H 317.819 -2.85628 0.849755 0
M  V30 3439 H 315.356 -1.40653 0.430726 0
M  V30 3440 H 317.314 -3.93618 -1.38279 0
M  V30 3441 H 315.944 -2.81274 -1.58381 0
M  V30 3442 H 314.996 -3.74841 0.64794 0
M  V30 3443 H 316.308 -4.94772 0.632595 0
M  V30 3444 H 315.462 -5.86953 -1.53527 0
M  V30 3445 H 314.201 -4.60615 -1.60264 0
M  V30 3446 H 313.206 -5.47207 0.533377 0
M  V30 3447 H 314.431 -6.76581 0.584428 0
M  V30 3448 H 312.377 -6.35633 -1.62192 0
M  V30 3449 H 312.294 -7.55099 -0.36904 0
M  V30 3450 H 313.562 -7.63832 -1.555 0
M  V30 3451 N 317.792 -0.46758 -1.50504 0
M  V30 3452 C 319.038 0.0808869 -2.03239 0
M  V30 3453 C 319.393 1.37721 -1.34353 0
M  V30 3454 O 318.686 1.86016 -0.459194 0
M  V30 3455 C 318.88 0.323995 -3.55928 0
M  V30 3456 C 318.709 -0.947215 -4.39611 0
M  V30 3457 C 317.479 -1.48951 -4.82848 0
M  V30 3458 C 319.677 -1.84166 -4.80195 0
M  V30 3459 N 317.659 -2.71011 -5.50842 0
M  V30 3460 C 319.03 -2.90815 -5.47564 0
M  V30 3461 C 321.085 -1.85246 -4.62156 0
M  V30 3462 C 319.788 -3.98529 -5.98805 0
M  V30 3463 C 321.814 -2.91914 -5.14335 0
M  V30 3464 C 321.176 -3.97282 -5.81676 0
M  V30 3465 H 317.275 -0.0103394 -0.781932 0
M  V30 3466 H 319.859 -0.635003 -1.84054 0
M  V30 3467 H 318.03 1.00892 -3.75067 0
M  V30 3468 H 319.762 0.866492 -3.95315 0
M  V30 3469 H 316.517 -1.03918 -4.62058 0
M  V30 3470 H 316.941 -3.32988 -5.89447 0
M  V30 3471 H 321.583 -1.05103 -4.09528 0
M  V30 3472 H 319.301 -4.79491 -6.50472 0
M  V30 3473 H 322.887 -2.93729 -5.0221 0
M  V30 3474 H 321.767 -4.78462 -6.21324 0
M  V30 3475 N 319.27 1.56325 -0.20005 0
M  V30 3476 C 320.2 2.22318 0.713916 0
M  V30 3477 C 321.181 1.18788 1.21752 0
M  V30 3478 O 322.366 1.47309 1.26545 0
M  V30 3479 C 319.496 2.88639 1.93144 0
M  V30 3480 C 318.45 3.98457 1.56255 0
M  V30 3481 C 317.776 4.51967 2.85709 0
M  V30 3482 C 319.076 5.16612 0.768747 0
M  V30 3483 H 320.77 2.98952 0.163755 0
M  V30 3484 H 318.316 1.43792 0.0773219 0
M  V30 3485 H 320.269 3.33491 2.57608 0
M  V30 3486 H 318.993 2.09419 2.50621 0
M  V30 3487 H 317.652 3.54305 0.941471 0
M  V30 3488 H 317.3 3.69503 3.41287 0
M  V30 3489 H 317 5.26071 2.6177 0
M  V30 3490 H 318.524 4.99523 3.51154 0
M  V30 3491 H 319.938 5.57977 1.3166 0
M  V30 3492 H 318.335 5.96812 0.627286 0
M  V30 3493 H 319.405 4.84358 -0.229168 0
M  V30 3494 N 320.748 -0.0735177 1.57428 0
M  V30 3495 C 322.025 -0.805903 1.78226 0
M  V30 3496 C 322.405 -1.95874 0.787189 0
M  V30 3497 O 321.753 -2.2779 -0.180029 0
M  V30 3498 C 321.963 -1.28045 3.24662 0
M  V30 3499 C 323.311 -1.71453 3.88444 0
M  V30 3500 O 324.335 -1.37616 3.28543 0
M  V30 3501 O 323.194 -2.34093 4.93825 0
M  V30 3502 H 320.288 -0.386041 0.73137 0
M  V30 3503 H 322.834 -0.0537269 1.69615 0
M  V30 3504 H 321.606 -0.455476 3.8864 0
M  V30 3505 H 321.229 -2.094 3.37991 0
M  V30 3506 N 322.226 -1.5378 -0.344866 0
M  V30 3507 C 323.454 -1.74899 -1.10534 0
M  V30 3508 C 323.869 -0.487534 -1.82397 0
M  V30 3509 O 323.226 0.540741 -1.74305 0
M  V30 3510 C 323.277 -2.92822 -2.11984 0
M  V30 3511 O 322.998 -4.14089 -1.43044 0
M  V30 3512 C 324.499 -3.25982 -3.00417 0
M  V30 3513 H 321.719 -0.584426 -0.329678 0
M  V30 3514 H 324.263 -2.006 -0.397474 0
M  V30 3515 H 322.418 -2.69457 -2.78338 0
M  V30 3516 H 322.832 -4.80272 -2.10805 0
M  V30 3517 H 324.306 -4.11848 -3.67539 0
M  V30 3518 H 324.783 -2.42228 -3.66363 0
M  V30 3519 H 325.389 -3.51349 -2.39654 0
M  V30 3520 N 323.704 0.605807 -1.45491 0
M  V30 3521 C 324.636 1.73031 -1.5031 0
M  V30 3522 C 325.649 1.57968 -0.393687 0
M  V30 3523 O 326.838 1.65817 -0.660839 0
M  V30 3524 C 323.938 3.11049 -1.34543 0
M  V30 3525 C 323.111 3.52334 -2.59189 0
M  V30 3526 C 322.17 4.69323 -2.37954 0
M  V30 3527 O 321.196 4.7635 -3.11575 0
M  V30 3528 N 322.398 5.62705 -1.4263 0
M  V30 3529 H 325.163 1.6936 -2.4726 0
M  V30 3530 H 322.724 0.79114 -1.41254 0
M  V30 3531 H 324.716 3.87071 -1.18144 0
M  V30 3532 H 323.286 3.09217 -0.458623 0
M  V30 3533 H 322.506 2.66256 -2.90691 0
M  V30 3534 H 323.794 3.76677 -3.42041 0
M  V30 3535 H 323.192 5.59744 -0.818758 0
M  V30 3536 H 321.749 6.38252 -1.32202 0
M  V30 3537 N 325.182 1.32811 0.848464 0
M  V30 3538 C 326.428 1.23907 1.60546 0
M  V30 3539 C 326.761 -0.197161 1.93197 0
M  V30 3540 O 326.036 -1.13596 1.5788 0
M  V30 3541 C 326.319 2.10489 2.92175 0
M  V30 3542 C 326.172 3.62522 2.66266 0
M  V30 3543 C 327.491 1.97075 3.93509 0
M  V30 3544 H 324.61 0.451459 0.58254 0
M  V30 3545 H 327.252 1.62818 0.979296 0
M  V30 3546 H 325.402 1.77434 3.45614 0
M  V30 3547 H 327.074 4.05821 2.19334 0
M  V30 3548 H 325.317 3.84879 2.00126 0
M  V30 3549 H 325.988 4.18437 3.6002 0
M  V30 3550 H 328.464 2.26045 3.49346 0
M  V30 3551 H 327.34 2.59923 4.83457 0
M  V30 3552 H 327.601 0.940186 4.31987 0
M  V30 3553 N 326.66 -1.06551 1.16123 0
M  V30 3554 C 327.906 -1.79567 0.94252 0
M  V30 3555 C 328.239 -1.86869 -0.528547 0
M  V30 3556 O 327.514 -1.35838 -1.39206 0
M  V30 3557 C 327.797 -3.24195 1.56747 0
M  V30 3558 C 327.65 -3.24989 3.10969 0
M  V30 3559 C 328.969 -4.21678 1.25998 0
M  V30 3560 H 326.088 -0.651883 0.343828 0
M  V30 3561 H 328.73 -1.2463 1.43413 0
M  V30 3562 H 326.88 -3.71107 1.14942 0
M  V30 3563 H 328.552 -2.86258 3.61737 0
M  V30 3564 H 326.795 -2.63716 3.44436 0
M  V30 3565 H 327.466 -4.27005 3.49815 0
M  V30 3566 H 329.942 -3.83196 1.62174 0
M  V30 3567 H 328.818 -5.21146 1.7233 0
M  V30 3568 H 329.079 -4.4174 0.178367 0
M  V30 3569 N 328.138 -0.959301 -1.25041 0
M  V30 3570 C 329.068 -0.501388 -2.28053 0
M  V30 3571 C 330.049 0.454673 -1.63911 0
M  V30 3572 O 331.234 0.352618 -1.90972 0
M  V30 3573 C 328.364 0.217224 -3.4662 0
M  V30 3574 C 327.318 -0.654034 -4.22973 0
M  V30 3575 C 326.644 0.195589 -5.34342 0
M  V30 3576 C 327.944 -1.93447 -4.85155 0
M  V30 3577 H 329.638 -1.36238 -2.66608 0
M  V30 3578 H 327.184 -0.656534 -1.28163 0
M  V30 3579 H 329.137 0.548732 -4.17812 0
M  V30 3580 H 327.861 1.1125 -3.07068 0
M  V30 3581 H 326.52 -0.968693 -3.5357 0
M  V30 3582 H 326.168 1.09076 -4.91031 0
M  V30 3583 H 325.868 -0.384091 -5.86343 0
M  V30 3584 H 327.392 0.521958 -6.08365 0
M  V30 3585 H 328.806 -1.66908 -5.48466 0
M  V30 3586 H 327.203 -2.46018 -5.47353 0
M  V30 3587 H 328.273 -2.63466 -4.07079 0
M  V30 3588 N 329.616 1.39756 -0.72842 0
M  V30 3589 C 330.579 2.29012 -0.0927297 0
M  V30 3590 C 331.579 1.45992 0.674025 0
M  V30 3591 O 332.769 1.66749 0.50402 0
M  V30 3592 C 329.901 3.29396 0.878137 0
M  V30 3593 H 331.094 2.86729 -0.879011 0
M  V30 3594 H 328.647 1.48293 -0.493847 0
M  V30 3595 H 329.382 2.76722 1.69101 0
M  V30 3596 H 329.167 3.907 0.331051 0
M  V30 3597 H 330.657 3.96199 1.3197 0
M  V30 3598 N 331.094 0.475555 1.50254 0
M  V30 3599 C 332.027 -0.362381 2.25304 0
M  V30 3600 C 333.005 -0.992393 1.28803 0
M  V30 3601 O 334.189 -1.02746 1.58036 0
M  V30 3602 C 331.316 -1.50813 3.03271 0
M  V30 3603 C 330.362 -0.995044 4.1473 0
M  V30 3604 S 331.195 0.0938436 5.35418 0
M  V30 3605 C 332.351 -1.05567 6.16933 0
M  V30 3606 H 332.584 0.274686 2.96028 0
M  V30 3607 H 330.117 0.260495 1.52187 0
M  V30 3608 H 332.075 -2.16476 3.48781 0
M  V30 3609 H 330.736 -2.11672 2.32064 0
M  V30 3610 H 329.929 -1.85293 4.68703 0
M  V30 3611 H 329.531 -0.416052 3.71679 0
M  V30 3612 H 331.823 -1.96636 6.48337 0
M  V30 3613 H 332.766 -0.555109 7.05921 0
M  V30 3614 H 333.174 -1.31151 5.49053 0
M  V30 3615 N 332.573 -1.56217 0.208337 0
M  V30 3616 C 333.984 -1.84243 -0.301904 0
M  V30 3617 C 334.335 -1.12939 -1.60434 0
M  V30 3618 O 333.46 -0.39461 -2.12772 0
M  V30 3619 C 334.055 -3.34231 -0.554543 0
M  V30 3620 C 332.614 -3.62621 -1.00912 0
M  V30 3621 C 331.761 -2.77224 -0.064933 0
M  V30 3622 H 334.712 -1.52712 0.431833 0
M  V30 3623 H 334.733 -3.5372 -1.40223 0
M  V30 3624 H 334.245 -3.86099 0.393561 0
M  V30 3625 H 332.346 -3.16197 -1.97104 0
M  V30 3626 H 332.459 -4.7071 -0.892674 0
M  V30 3627 H 330.823 -2.48256 -0.56929 0
M  V30 3628 H 331.606 -3.31887 0.877851 0
M  V30 3629 N 334.051 0.0651679 -1.57465 0
M  V30 3630 C 335.281 0.774683 -1.91526 0
M  V30 3631 C 335.689 1.71305 -0.803196 0
M  V30 3632 O 335.032 1.82231 0.231881 0
M  V30 3633 C 335.094 1.61645 -3.21109 0
M  V30 3634 C 334.758 0.846753 -4.49087 0
M  V30 3635 C 335.755 0.163024 -5.19644 0
M  V30 3636 C 333.44 0.811966 -4.95694 0
M  V30 3637 C 335.434 -0.54519 -6.35064 0
M  V30 3638 C 333.121 0.0999836 -6.11018 0
M  V30 3639 C 334.119 -0.577388 -6.80555 0
M  V30 3640 O 333.807 -1.27789 -7.93678 0
M  V30 3641 H 333.539 0.225031 -0.637446 0
M  V30 3642 H 336.093 0.0377134 -2.05365 0
M  V30 3643 H 334.323 2.39638 -3.03497 0
M  V30 3644 H 336.012 2.20525 -3.40769 0
M  V30 3645 H 336.778 0.181163 -4.84662 0
M  V30 3646 H 332.657 1.32867 -4.41438 0
M  V30 3647 H 336.201 -1.07446 -6.89276 0
M  V30 3648 H 332.098 0.0797945 -6.45451 0
M  V30 3649 H 332.866 -1.18784 -8.09835 0
M  V30 3650 N 335.529 1.53961 0.336706 0
M  V30 3651 C 336.806 1.62171 1.09361 0
M  V30 3652 C 337.186 0.447263 2.06307 0
M  V30 3653 O 336.534 -0.559802 2.21537 0
M  V30 3654 C 336.744 2.98565 1.80721 0
M  V30 3655 C 338.092 3.54157 2.34218 0
M  V30 3656 O 339.116 3.00784 1.90807 0
M  V30 3657 O 337.975 4.47528 3.13657 0
M  V30 3658 H 335.069 0.6562 0.503319 0
M  V30 3659 H 337.615 1.66307 0.33765 0
M  V30 3660 H 336.387 3.75482 1.10132 0
M  V30 3661 H 336.01 2.9805 2.63158 0
M  V30 3662 N 337.007 -0.598083 1.45811 0
M  V30 3663 C 338.235 -1.38322 1.53866 0
M  V30 3664 C 338.65 -1.87992 0.174479 0
M  V30 3665 O 338.007 -1.62756 -0.825627 0
M  V30 3666 C 338.058 -2.58125 2.53089 0
M  V30 3667 O 337.779 -2.10516 3.84206 0
M  V30 3668 C 339.28 -3.50869 2.70935 0
M  V30 3669 H 336.5 -0.423093 0.520801 0
M  V30 3670 H 339.044 -0.728527 1.91083 0
M  V30 3671 H 337.199 -3.19615 2.18917 0
M  V30 3672 H 337.613 -2.88425 4.38077 0
M  V30 3673 H 339.087 -4.31451 3.44317 0
M  V30 3674 H 339.564 -4.01822 1.77301 0
M  V30 3675 H 340.17 -2.95225 3.06141 0
M  V30 3676 N 338.485 -1.33259 -0.841409 0
M  V30 3677 C 339.896 -1.22066 -1.41269 0
M  V30 3678 C 340.247 0.161479 -1.95534 0
M  V30 3679 O 339.372 1.06094 -1.88608 0
M  V30 3680 C 339.967 -2.20996 -2.568 0
M  V30 3681 C 338.526 -2.13649 -3.09888 0
M  V30 3682 C 337.673 -2.08623 -1.82679 0
M  V30 3683 H 340.624 -1.44895 -0.647395 0
M  V30 3684 H 340.645 -1.81621 -3.34356 0
M  V30 3685 H 340.157 -3.2158 -2.17274 0
M  V30 3686 H 338.258 -1.16359 -3.53965 0
M  V30 3687 H 338.371 -3.04079 -3.70234 0
M  V30 3688 H 336.735 -1.54061 -2.02824 0
M  V30 3689 H 337.518 -3.1101 -1.45353 0
M  V30 3690 N 339.963 1.05934 -1.16686 0
M  V30 3691 C 341.209 1.79065 -0.95203 0
M  V30 3692 C 341.542 1.87147 0.518629 0
M  V30 3693 O 340.817 1.36574 1.38484 0
M  V30 3694 C 341.1 3.23359 -1.58464 0
M  V30 3695 C 340.953 3.23336 -3.12689 0
M  V30 3696 C 342.272 4.21004 -1.28232 0
M  V30 3697 H 339.391 0.65005 -0.34728 0
M  V30 3698 H 342.033 1.23868 -1.44072 0
M  V30 3699 H 340.183 3.70493 -1.16908 0
M  V30 3700 H 341.855 2.84336 -3.6325 0
M  V30 3701 H 340.098 2.61886 -3.4583 0
M  V30 3702 H 340.769 4.25144 -3.52075 0
M  V30 3703 H 343.245 3.8233 -1.64203 0
M  V30 3704 H 342.121 5.20225 -1.75092 0
M  V30 3705 H 342.382 4.41639 -0.201791 0
M  V30 3706 N 341.441 0.965919 1.2453 0
M  V30 3707 C 342.852 0.665929 1.7442 0
M  V30 3708 C 343.203 -0.818407 1.78316 0
M  V30 3709 O 342.328 -1.64037 1.41141 0
M  V30 3710 C 342.923 1.20211 3.16757 0
M  V30 3711 C 341.482 0.952059 3.6416 0
M  V30 3712 C 340.629 1.33848 2.42858 0
M  V30 3713 H 343.58 1.14144 1.10258 0
M  V30 3714 H 343.601 0.567544 3.76244 0
M  V30 3715 H 343.113 2.28244 3.13889 0
M  V30 3716 H 341.214 -0.112821 3.72429 0
M  V30 3717 H 341.327 1.59645 4.51719 0
M  V30 3718 H 339.691 0.756864 2.43195 0
M  V30 3719 H 340.474 2.42827 2.42673 0
M  V30 3720 N 342.919 -1.39368 0.735821 0
M  V30 3721 C 344.167 -2.00101 0.283562 0
M  V30 3722 C 344.488 -1.5868 -1.13338 0
M  V30 3723 O 343.758 -0.835423 -1.77193 0
M  V30 3724 H 342.338 -0.740024 0.101851 0
M  V30 3725 H 345 -1.70404 0.945962 0
M  V30 3726 H 344.096 -3.10323 0.332604 0
M  V30 3727 N 344.397 -0.483516 -1.5 0
M  V30 3728 C 345.627 0.0643896 -2.065 0
M  V30 3729 C 346.035 1.32949 -1.34615 0
M  V30 3730 O 345.378 1.79003 -0.412756 0
M  V30 3731 C 345.44 0.405983 -3.572 0
M  V30 3732 C 345.104 -0.758875 -4.50655 0
M  V30 3733 C 346.101 -1.64445 -4.93208 0
M  V30 3734 C 343.786 -0.952725 -4.93182 0
M  V30 3735 C 345.78 -2.70818 -5.77006 0
M  V30 3736 C 343.467 -2.01966 -5.76761 0
M  V30 3737 C 344.465 -2.89574 -6.18576 0
M  V30 3738 O 344.153 -3.94429 -7.00486 0
M  V30 3739 H 343.885 -0.00934786 -0.675935 0
M  V30 3740 H 346.439 -0.674959 -1.93993 0
M  V30 3741 H 344.669 1.19869 -3.67652 0
M  V30 3742 H 346.358 0.890433 -3.96013 0
M  V30 3743 H 347.124 -1.50643 -4.61012 0
M  V30 3744 H 343.003 -0.280247 -4.60147 0
M  V30 3745 H 346.547 -3.3923 -6.09565 0
M  V30 3746 H 342.444 -2.1577 -6.0837 0
M  V30 3747 H 343.212 -3.91568 -7.1876 0
M  V30 3748 N 345.875 1.56104 -0.216619 0
M  V30 3749 C 346.822 2.2007 0.695531 0
M  V30 3750 C 347.792 1.15471 1.19397 0
M  V30 3751 O 348.977 1.43807 1.25396 0
M  V30 3752 C 346.117 2.88073 1.90021 0
M  V30 3753 C 345.23 4.07253 1.44113 0
M  V30 3754 C 344.365 4.63052 2.603 0
M  V30 3755 C 343.404 5.74545 2.11103 0
M  V30 3756 N 342.541 6.24656 3.20545 0
M  V30 3757 H 347.381 2.97655 0.143327 0
M  V30 3758 H 344.918 1.46982 0.0589934 0
M  V30 3759 H 346.876 3.25681 2.60745 0
M  V30 3760 H 345.506 2.13015 2.42538 0
M  V30 3761 H 344.558 3.75164 0.628999 0
M  V30 3762 H 345.87 4.8783 1.04036 0
M  V30 3763 H 345.024 5.03078 3.39113 0
M  V30 3764 H 343.763 3.81628 3.03663 0
M  V30 3765 H 342.768 5.34027 1.3075 0
M  V30 3766 H 343.993 6.57801 1.68746 0
M  V30 3767 H 341.939 5.46148 3.63399 0
M  V30 3768 H 341.856 7.00343 2.84704 0
M  V30 3769 H 343.124 6.69338 3.99508 0
M  V30 3770 N 347.353 -0.0568162 1.57498 0
M  V30 3771 C 348.301 -1.08452 2.05769 0
M  V30 3772 C 349.295 -1.39164 0.965903 0
M  V30 3773 O 350.501 -1.38395 1.15095 0
M  V30 3774 H 346.876 -0.367148 0.656282 0
M  V30 3775 H 348.847 -0.651368 2.91204 0
M  V30 3776 C 347.596 -2.38543 2.52968 0
M  V30 3777 H 346.919 -2.15765 3.36579 0
M  V30 3778 H 348.359 -3.08863 2.90481 0
M  V30 3779 C 346.818 -3.05562 1.41893 0
M  V30 3780 O 347.348 -3.94262 0.769442 0
M  V30 3781 N 345.554 -2.6643 1.16032 0
M  V30 3782 H 345.101 -1.94387 1.6903 0
M  V30 3783 H 345.059 -3.11593 0.419219 0
M  V30 3784 N 348.832 -1.54138 -0.328536 0
M  V30 3785 C 349.78 -1.83894 -1.42428 0
M  V30 3786 C 350.774 -0.710478 -1.53781 0
M  V30 3787 O 351.98 -0.894062 -1.56226 0
M  V30 3788 H 348.355 -0.582837 -0.475189 0
M  V30 3789 H 350.326 -2.75537 -1.14552 0
M  V30 3790 C 349.075 -2.07866 -2.78724 0
M  V30 3791 H 348.398 -2.94158 -2.7076 0
M  V30 3792 H 349.838 -2.32644 -3.54476 0
M  V30 3793 C 348.297 -0.868689 -3.25508 0
M  V30 3794 O 348.827 -0.0754908 -4.01629 0
M  V30 3795 N 347.033 -0.681711 -2.82491 0
M  V30 3796 H 346.58 -1.32838 -2.20708 0
M  V30 3797 H 346.538 0.126374 -3.14146 0
M  V30 3798 N 350.31 0.590341 -1.46126 0
M  V30 3799 C 351.538 1.37504 -1.54597 0
M  V30 3800 C 351.953 1.87897 -0.184447 0
M  V30 3801 O 351.31 1.63192 0.816984 0
M  V30 3802 C 351.361 2.56779 -2.54454 0
M  V30 3803 O 351.082 2.08476 -3.85317 0
M  V30 3804 C 352.583 3.49427 -2.72792 0
M  V30 3805 H 349.803 0.420325 -0.523037 0
M  V30 3806 H 352.347 0.718383 -1.91467 0
M  V30 3807 H 350.502 3.1845 -2.20609 0
M  V30 3808 H 350.916 2.86097 -4.396 0
M  V30 3809 H 352.39 4.29619 -3.466 0
M  V30 3810 H 352.867 4.00876 -1.79429 0
M  V30 3811 H 353.473 2.93598 -3.07702 0
M  V30 3812 N 351.788 1.33704 0.83433 0
M  V30 3813 C 353.034 1.25603 1.59222 0
M  V30 3814 C 353.367 -0.176659 1.93395 0
M  V30 3815 O 352.642 -1.11915 1.59076 0
M  V30 3816 C 352.925 2.13576 2.89926 0
M  V30 3817 C 352.778 3.65326 2.62406 0
M  V30 3818 C 354.097 2.01238 3.91397 0
M  V30 3819 H 351.216 0.457613 0.577719 0
M  V30 3820 H 353.858 1.63848 0.961972 0
M  V30 3821 H 352.008 1.8109 3.43713 0
M  V30 3822 H 353.68 4.08124 2.15017 0
M  V30 3823 H 351.923 3.8698 1.96033 0
M  V30 3824 H 352.594 4.22232 3.55562 0
M  V30 3825 H 355.07 2.29738 3.46929 0
M  V30 3826 H 353.946 2.65036 4.80673 0
M  V30 3827 H 354.207 0.985951 4.30966 0
M  V30 3828 N 353.266 -1.05314 1.17247 0
M  V30 3829 C 354.214 -2.15137 0.884238 0
M  V30 3830 C 355.208 -1.68729 -0.15063 0
M  V30 3831 O 356.414 -1.8 -0.00366673 0
M  V30 3832 H 352.789 -0.702471 0.2684 0
M  V30 3833 H 354.76 -2.36652 1.81764 0
M  V30 3834 C 353.509 -3.45243 0.412659 0
M  V30 3835 H 352.832 -3.81352 1.20043 0
M  V30 3836 H 354.272 -4.23263 0.249858 0
M  V30 3837 C 352.731 -3.25487 -0.86948 0
M  V30 3838 O 353.261 -3.51938 -1.93655 0
M  V30 3839 N 351.467 -2.78875 -0.817147 0
M  V30 3840 H 351.014 -2.57549 0.0514211 0
M  V30 3841 H 350.972 -2.66036 -1.67547 0
M  V30 3842 N 354.744 -0.972509 -1.24016 0
M  V30 3843 C 355.972 -0.654803 -1.96265 0
M  V30 3844 C 356.387 0.776708 -1.72083 0
M  V30 3845 O 355.744 1.52171 -1.00748 0
M  V30 3846 C 355.795 -0.92592 -3.49441 0
M  V30 3847 O 355.516 -2.30116 -3.72798 0
M  V30 3848 C 357.017 -0.623068 -4.38899 0
M  V30 3849 H 354.237 -0.243907 -0.6251 0
M  V30 3850 H 356.781 -1.30175 -1.57717 0
M  V30 3851 H 354.936 -0.325108 -3.86033 0
M  V30 3852 H 355.35 -2.38483 -4.67147 0
M  V30 3853 H 356.824 -0.863189 -5.45209 0
M  V30 3854 H 357.301 0.442754 -4.36963 0
M  V30 3855 H 357.907 -1.204 -4.07902 0
M  V30 3856 N 356.222 1.38976 -0.743202 0
M  V30 3857 C 357.155 2.28128 -0.0572165 0
M  V30 3858 C 358.133 1.44827 0.739182 0
M  V30 3859 O 359.317 1.74207 0.720009 0
M  V30 3860 C 356.444 3.25796 0.926001 0
M  V30 3861 C 355.49 4.25947 0.217099 0
M  V30 3862 S 356.323 5.24604 -1.07477 0
M  V30 3863 C 357.479 6.25829 -0.0943545 0
M  V30 3864 H 357.712 2.85961 -0.813246 0
M  V30 3865 H 355.245 1.44822 -0.535341 0
M  V30 3866 H 357.203 3.82583 1.48797 0
M  V30 3867 H 355.864 2.66966 1.65493 0
M  V30 3868 H 355.057 4.94746 0.961372 0
M  V30 3869 H 354.659 3.73002 -0.273059 0
M  V30 3870 H 356.951 6.73411 0.743239 0
M  V30 3871 H 357.894 7.0412 -0.749713 0
M  V30 3872 H 358.302 5.63797 0.281706 0
M  V30 3873 N 357.7 0.491464 1.49741 0
M  V30 3874 C 359.116 0.146835 1.58923 0
M  V30 3875 C 359.316 -1.34804 1.49767 0
M  V30 3876 O 358.372 -2.12317 1.36667 0
M  V30 3877 C 359.685 0.715157 2.92072 0
M  V30 3878 C 361.233 0.680407 3.05515 0
M  V30 3879 C 361.708 1.22663 4.41269 0
M  V30 3880 N 363.199 1.18691 4.47735 0
M  V30 3881 C 363.934 1.57984 5.51207 0
M  V30 3882 N 363.43 2.04824 6.6183 0
M  V30 3883 N 365.223 1.49459 5.41866 0
M  V30 3884 H 357.374 1.46347 1.53936 0
M  V30 3885 H 359.637 0.606453 0.728642 0
M  V30 3886 H 359.343 1.76317 3.04311 0
M  V30 3887 H 359.217 0.17018 3.76816 0
M  V30 3888 H 361.604 -0.358743 2.92911 0
M  V30 3889 H 361.685 1.26242 2.22478 0
M  V30 3890 H 361.329 2.26451 4.54623 0
M  V30 3891 H 361.259 0.620637 5.2293 0
M  V30 3892 H 363.75 0.843605 3.68364 0
M  V30 3893 H 364.063 2.32901 7.3687 0
M  V30 3894 H 362.408 2.08791 6.62896 0
M  V30 3895 H 365.599 1.12692 4.54333 0
M  V30 3896 H 365.772 1.80406 6.22381 0
M  V30 3897 N 359.178 -1.55987 0.224894 0
M  V30 3898 C 360.108 -2.23426 -0.678457 0
M  V30 3899 C 361.089 -1.20709 -1.19847 0
M  V30 3900 O 362.274 -1.49304 -1.24186 0
M  V30 3901 C 359.404 -2.91676 -1.88527 0
M  V30 3902 C 358.358 -4.00893 -1.49896 0
M  V30 3903 C 357.684 -4.56455 -2.78483 0
M  V30 3904 C 358.984 -5.17769 -0.686461 0
M  V30 3905 H 360.678 -2.99175 -0.116173 0
M  V30 3906 H 358.224 -1.43897 -0.054436 0
M  V30 3907 H 360.177 -3.37547 -2.5227 0
M  V30 3908 H 358.901 -2.1338 -2.47258 0
M  V30 3909 H 357.56 -3.55758 -0.884985 0
M  V30 3910 H 357.208 -3.74886 -3.35365 0
M  V30 3911 H 356.908 -5.30169 -2.53368 0
M  V30 3912 H 358.432 -5.05047 -3.43162 0
M  V30 3913 H 359.846 -5.60001 -1.22767 0
M  V30 3914 H 358.243 -5.97735 -0.532259 0
M  V30 3915 H 359.313 -4.83932 0.306196 0
M  V30 3916 N 360.656 0.0484629 -1.57525 0
M  V30 3917 C 361.902 0.738854 -1.89506 0
M  V30 3918 C 362.257 1.73989 -0.821319 0
M  V30 3919 O 361.55 1.90825 0.172129 0
M  V30 3920 C 361.744 1.46632 -3.25935 0
M  V30 3921 C 361.573 0.537254 -4.46479 0
M  V30 3922 C 360.343 0.165484 -5.05029 0
M  V30 3923 C 362.541 -0.176085 -5.13998 0
M  V30 3924 N 360.523 -0.766868 -6.09091 0
M  V30 3925 C 361.894 -0.96478 -6.12448 0
M  V30 3926 C 363.949 -0.24509 -4.97296 0
M  V30 3927 C 362.652 -1.8161 -6.95996 0
M  V30 3928 C 364.678 -1.08347 -5.81391 0
M  V30 3929 C 364.04 -1.86014 -6.79395 0
M  V30 3930 H 360.139 0.245067 -0.742608 0
M  V30 3931 H 362.723 -0.000476161 -1.947 0
M  V30 3932 H 360.894 2.17623 -3.21706 0
M  V30 3933 H 362.626 2.10757 -3.45491 0
M  V30 3934 H 359.381 0.523466 -4.70698 0
M  V30 3935 H 359.805 -1.22698 -6.65788 0
M  V30 3936 H 364.447 0.341063 -4.21422 0
M  V30 3937 H 362.165 -2.41313 -7.71229 0
M  V30 3938 H 365.751 -1.14014 -5.70519 0
M  V30 3939 H 364.631 -2.4984 -7.43337 0
M  V30 3940 N 362.134 1.5431 0.320358 0
M  V30 3941 C 363.359 1.76954 1.08175 0
M  V30 3942 C 363.784 0.518193 1.80821 0
M  V30 3943 O 363.142 -0.530411 1.73368 0
M  V30 3944 C 363.19 2.96451 2.05303 0
M  V30 3945 O 362.294 2.68221 3.13259 0
M  V30 3946 H 361.635 0.586275 0.311733 0
M  V30 3947 H 364.165 2.01342 0.363676 0
M  V30 3948 H 364.175 3.23887 2.48116 0
M  V30 3949 H 362.85 3.87196 1.51829 0
M  V30 3950 H 361.427 2.51744 2.75099 0
M  V30 3951 N 363.613 -0.582584 1.46437 0
M  V30 3952 C 364.576 -1.67366 1.56592 0
M  V30 3953 C 365.576 -1.54575 0.443072 0
M  V30 3954 O 366.766 -1.59191 0.707381 0
M  V30 3955 C 363.898 -3.06791 1.48634 0
M  V30 3956 H 365.091 -1.5972 2.5383 0
M  V30 3957 H 362.644 -0.800432 1.34249 0
M  V30 3958 H 363.379 -3.19993 0.526763 0
M  V30 3959 H 363.164 -3.17484 2.30101 0
M  V30 3960 H 364.654 -3.86218 1.58826 0
M  V30 3961 N 365.091 -1.34144 -0.827227 0
M  V30 3962 C 366.038 -1.25364 -1.93785 0
M  V30 3963 C 367.008 -0.129774 -1.65592 0
M  V30 3964 O 368.193 -0.310024 -1.88264 0
M  V30 3965 C 365.333 -1.01064 -3.2997 0
M  V30 3966 C 364.446 -2.22185 -3.70484 0
M  V30 3967 C 363.581 -1.91203 -4.95595 0
M  V30 3968 C 362.62 -3.08491 -5.28677 0
M  V30 3969 N 361.757 -2.77421 -6.44967 0
M  V30 3970 H 366.597 -2.20347 -2.00627 0
M  V30 3971 H 364.134 -1.09558 -0.981608 0
M  V30 3972 H 366.092 -0.850139 -4.08446 0
M  V30 3973 H 364.722 -0.0975026 -3.22653 0
M  V30 3974 H 363.774 -2.4917 -2.87434 0
M  V30 3975 H 365.086 -3.0983 -3.90905 0
M  V30 3976 H 364.24 -1.71864 -5.81848 0
M  V30 3977 H 362.979 -1.00812 -4.77167 0
M  V30 3978 H 361.984 -3.28431 -4.40923 0
M  V30 3979 H 363.209 -3.99655 -5.49047 0
M  V30 3980 H 361.155 -1.89601 -6.28003 0
M  V30 3981 H 361.072 -3.58598 -6.6554 0
M  V30 3982 H 362.34 -2.61577 -7.34301 0
M  V30 3983 N 366.569 1.04691 -1.17803 0
M  V30 3984 C 367.532 2.10724 -0.901545 0
M  V30 3985 C 368.532 1.6042 0.110437 0
M  V30 3986 O 369.722 1.7377 -0.122303 0
M  V30 3987 C 366.854 3.39084 -0.351409 0
M  V30 3988 H 368.047 2.36686 -1.84174 0
M  V30 3989 H 365.6 1.21015 -0.98919 0
M  V30 3990 H 366.335 3.18782 0.59569 0
M  V30 3991 H 366.12 3.76909 -1.08083 0
M  V30 3992 H 367.61 4.17227 -0.176451 0
M  V30 3993 N 368.047 0.979072 1.23499 0
M  V30 3994 C 369.458 0.684391 1.73704 0
M  V30 3995 C 369.809 -0.799448 1.79174 0
M  V30 3996 O 368.934 -1.62531 1.42873 0
M  V30 3997 C 369.529 1.23564 3.15464 0
M  V30 3998 C 368.088 0.99063 3.6313 0
M  V30 3999 C 367.235 1.36416 2.41425 0
M  V30 4000 H 370.186 1.15307 1.09041 0
M  V30 4001 H 370.207 0.607417 3.7562 0
M  V30 4002 H 369.719 2.31561 3.1145 0
M  V30 4003 H 367.82 -0.0733136 3.72528 0
M  V30 4004 H 367.933 1.64427 4.5 0
M  V30 4005 H 366.297 0.782616 2.42378 0
M  V30 4006 H 367.08 2.45387 2.40083 0
M  V30 4007 N 369.525 -1.3858 0.750561 0
M  V30 4008 C 370.473 -2.32339 0.110162 0
M  V30 4009 C 371.467 -1.53864 -0.708674 0
M  V30 4010 O 372.673 -1.69417 -0.608112 0
M  V30 4011 H 369.048 -0.751812 0.0168275 0
M  V30 4012 H 371.019 -2.83959 0.917053 0
M  V30 4013 C 369.768 -3.39043 -0.771067 0
M  V30 4014 H 369.091 -3.99517 -0.150374 0
M  V30 4015 H 370.531 -4.07061 -1.1865 0
M  V30 4016 C 368.99 -2.77365 -1.91234 0
M  V30 4017 O 369.52 -2.66434 -3.00626 0
M  V30 4018 N 367.726 -2.35219 -1.70646 0
M  V30 4019 H 367.273 -2.4431 -0.81673 0
M  V30 4020 H 367.231 -1.94294 -2.47178 0
M  V30 4021 N 371.003 -0.499398 -1.49478 0
M  V30 4022 C 372.28 0.108629 -1.95298 0
M  V30 4023 C 372.66 1.54282 -1.44084 0
M  V30 4024 O 372.008 2.18944 -0.653908 0
M  V30 4025 C 372.218 0.0229111 -3.48992 0
M  V30 4026 C 373.566 0.197643 -4.2414 0
M  V30 4027 O 374.59 0.0981735 -3.56065 0
M  V30 4028 O 373.449 0.401669 -5.45022 0
M  V30 4029 H 370.543 0.096181 -0.821388 0
M  V30 4030 H 373.089 -0.561822 -1.6013 0
M  V30 4031 H 371.861 -0.977321 -3.78899 0
M  V30 4032 H 371.484 0.733579 -3.90774 0
M  V30 4033 N 372.481 1.55866 -0.233164 0
M  V30 4034 C 373.728 1.98603 0.395374 0
M  V30 4035 C 374.056 1.12105 1.58942 0
M  V30 4036 O 373.311 0.168656 1.94972 0
M  V30 4037 C 373.61 3.46856 0.861724 0
M  V30 4038 C 373.276 4.50348 -0.223066 0
M  V30 4039 C 371.938 4.78371 -0.521038 0
M  V30 4040 C 374.29 5.12355 -0.956124 0
M  V30 4041 C 371.618 5.6568 -1.55638 0
M  V30 4042 C 373.97 6.00786 -1.98089 0
M  V30 4043 C 372.634 6.27148 -2.28565 0
M  V30 4044 H 371.904 0.726739 0.144677 0
M  V30 4045 H 374.551 1.88491 -0.338114 0
M  V30 4046 H 372.856 3.5423 1.67418 0
M  V30 4047 H 374.553 3.77302 1.35809 0
M  V30 4048 H 371.143 4.28596 0.0193234 0
M  V30 4049 H 375.327 4.90765 -0.739166 0
M  V30 4050 H 370.583 5.84365 -1.798 0
M  V30 4051 H 374.757 6.4788 -2.55391 0
M  V30 4052 H 372.384 6.94597 -3.08932 0
M  V30 4053 N 373.959 -0.0401083 1.57549 0
M  V30 4054 C 374.906 -1.04413 2.05831 0
M  V30 4055 C 375.876 -1.36585 0.945184 0
M  V30 4056 O 377.061 -1.47112 1.21502 0
M  V30 4057 C 374.201 -2.34336 2.53339 0
M  V30 4058 C 373.314 -2.08419 3.78398 0
M  V30 4059 C 372.449 -3.32133 4.14561 0
M  V30 4060 C 371.488 -3.01721 5.3257 0
M  V30 4061 N 370.625 -4.17855 5.64218 0
M  V30 4062 H 375.465 -0.625442 2.91363 0
M  V30 4063 H 373.002 -0.297218 1.44066 0
M  V30 4064 H 374.96 -3.10234 2.78946 0
M  V30 4065 H 373.59 -2.73948 1.7074 0
M  V30 4066 H 372.642 -1.23069 3.59942 0
M  V30 4067 H 373.954 -1.81978 4.64419 0
M  V30 4068 H 373.108 -4.16406 4.41238 0
M  V30 4069 H 371.847 -3.61678 3.2717 0
M  V30 4070 H 370.852 -2.15849 5.05657 0
M  V30 4071 H 372.077 -2.73466 6.21605 0
M  V30 4072 H 370.023 -4.47372 4.79786 0
M  V30 4073 H 369.94 -3.94798 6.44725 0
M  V30 4074 H 371.208 -5.03033 5.95465 0
M  V30 4075 N 375.437 -1.54477 -0.31217 0
M  V30 4076 C 376.367 -1.87652 -1.38957 0
M  V30 4077 C 377.348 -0.734358 -1.53431 0
M  V30 4078 O 378.533 -0.98911 -1.67123 0
M  V30 4079 C 375.663 -2.11396 -2.75552 0
M  V30 4080 C 374.617 -3.27243 -2.75855 0
M  V30 4081 C 373.943 -3.36382 -4.15633 0
M  V30 4082 C 375.243 -4.64622 -2.38587 0
M  V30 4083 H 376.937 -2.77887 -1.11442 0
M  V30 4084 H 374.483 -1.33707 -0.534655 0
M  V30 4085 H 376.436 -2.33189 -3.51 0
M  V30 4086 H 375.16 -1.17921 -3.04569 0
M  V30 4087 H 373.819 -3.05356 -2.02863 0
M  V30 4088 H 373.467 -2.40445 -4.41809 0
M  V30 4089 H 373.167 -4.14249 -4.1674 0
M  V30 4090 H 374.691 -3.60422 -4.92877 0
M  V30 4091 H 376.105 -4.86219 -3.03749 0
M  V30 4092 H 374.502 -5.45121 -2.50925 0
M  V30 4093 H 375.572 -4.66097 -1.33723 0
M  V30 4094 N 376.915 0.57481 -1.46744 0
M  V30 4095 C 377.847 1.69804 -1.53946 0
M  V30 4096 C 378.86 1.57098 -0.427106 0
M  V30 4097 O 380.049 1.64378 -0.695863 0
M  V30 4098 C 377.149 3.08125 -1.4111 0
M  V30 4099 C 376.322 3.46757 -2.66605 0
M  V30 4100 C 375.381 4.6417 -2.47855 0
M  V30 4101 O 374.407 4.69634 -3.21609 0
M  V30 4102 N 375.609 5.59553 -1.54534 0
M  V30 4103 H 378.374 1.64077 -2.50796 0
M  V30 4104 H 375.935 0.761 -1.429 0
M  V30 4105 H 377.927 3.84478 -1.26328 0
M  V30 4106 H 376.497 3.08175 -0.524109 0
M  V30 4107 H 375.717 2.6003 -2.96274 0
M  V30 4108 H 377.005 3.69337 -3.49954 0
M  V30 4109 H 376.403 5.57881 -0.937304 0
M  V30 4110 H 374.96 6.35304 -1.45711 0
M  V30 4111 N 378.394 1.34581 0.820102 0
M  V30 4112 C 379.671 1.17675 1.56244 0
M  V30 4113 C 380.051 -0.249541 2.0962 0
M  V30 4114 O 379.399 -1.25125 1.91196 0
M  V30 4115 C 379.609 2.23364 2.6816 0
M  V30 4116 C 380.957 2.58485 3.36854 0
M  V30 4117 O 381.981 2.22175 2.78418 0
M  V30 4118 O 380.84 3.20868 4.42386 0
M  V30 4119 H 377.934 0.456333 0.689702 0
M  V30 4120 H 380.48 1.46222 0.861231 0
M  V30 4121 H 379.252 3.19087 2.26493 0
M  V30 4122 H 378.875 1.96009 3.45928 0
M  V30 4123 N 379.872 -1.04064 1.18357 0
M  V30 4124 C 381.119 -1.77265 0.978947 0
M  V30 4125 C 381.447 -1.88189 -0.491428 0
M  V30 4126 O 380.702 -1.38653 -1.38108 0
M  V30 4127 C 381.001 -3.20634 1.57888 0
M  V30 4128 C 380.667 -3.29743 3.07539 0
M  V30 4129 C 379.329 -3.31937 3.48384 0
M  V30 4130 C 381.681 -3.29841 4.03552 0
M  V30 4131 C 379.009 -3.3187 4.83818 0
M  V30 4132 C 381.361 -3.31313 5.38901 0
M  V30 4133 C 380.025 -3.31799 5.79194 0
M  V30 4134 H 379.295 -0.648659 0.358222 0
M  V30 4135 H 381.942 -1.22225 1.47422 0
M  V30 4136 H 380.247 -3.78675 1.00561 0
M  V30 4137 H 381.944 -3.75917 1.39598 0
M  V30 4138 H 378.534 -3.28757 2.74986 0
M  V30 4139 H 382.718 -3.27337 3.73047 0
M  V30 4140 H 377.974 -3.30562 5.14333 0
M  V30 4141 H 382.148 -3.30338 6.13066 0
M  V30 4142 H 379.775 -3.315 6.84114 0
M  V30 4143 N 381.35 -0.985608 -1.22978 0
M  V30 4144 C 382.298 -0.522631 -2.26652 0
M  V30 4145 C 383.292 0.422998 -1.64034 0
M  V30 4146 O 384.498 0.296319 -1.77544 0
M  V30 4147 H 380.873 -0.150597 -0.736766 0
M  V30 4148 H 382.844 -1.40863 -2.63059 0
M  V30 4149 C 381.593 0.154238 -3.47358 0
M  V30 4150 H 380.916 -0.564329 -3.95797 0
M  V30 4151 H 382.356 0.441744 -4.21693 0
M  V30 4152 C 380.815 1.38719 -3.07016 0
M  V30 4153 O 381.345 2.48307 -3.15764 0
M  V30 4154 N 379.551 1.25975 -2.61875 0
M  V30 4155 H 379.098 0.368068 -2.54957 0
M  V30 4156 H 379.056 2.08578 -2.3525 0
M  V30 4157 N 382.828 1.3818 -0.7579 0
M  V30 4158 C 384.074 2.00316 -0.316453 0
M  V30 4159 C 384.407 1.60026 1.10025 0
M  V30 4160 O 383.682 0.839835 1.75434 0
M  V30 4161 C 383.965 3.57349 -0.444245 0
M  V30 4162 C 383.818 4.07591 -1.90236 0
M  V30 4163 C 385.137 4.3981 0.1598 0
M  V30 4164 H 382.256 0.727741 -0.116459 0
M  V30 4165 H 384.898 1.6406 -0.958352 0
M  V30 4166 H 383.048 3.88365 0.102233 0
M  V30 4167 H 384.72 3.87199 -2.50748 0
M  V30 4168 H 382.963 3.60297 -2.41595 0
M  V30 4169 H 383.634 5.16677 -1.94291 0
M  V30 4170 H 386.11 4.14971 -0.306314 0
M  V30 4171 H 384.986 5.48885 0.0401675 0
M  V30 4172 H 385.247 4.24102 1.24859 0
M  V30 4173 N 384.306 0.507319 1.49211 0
M  V30 4174 C 385.554 -0.0348839 2.0207 0
M  V30 4175 C 385.875 -1.36898 1.38866 0
M  V30 4176 O 385.145 -1.88133 0.546151 0
M  V30 4177 H 383.725 -0.0158812 0.746831 0
M  V30 4178 H 386.387 0.665998 1.83168 0
M  V30 4179 H 385.483 -0.159917 3.1169 0
M  V30 4180 N 385.784 -1.5574 0.241426 0
M  V30 4181 C 387.061 -1.90704 -0.434881 0
M  V30 4182 C 387.441 -1.16145 -1.76277 0
M  V30 4183 O 386.789 -0.277152 -2.26813 0
M  V30 4184 C 386.999 -3.43657 -0.608343 0
M  V30 4185 C 388.347 -4.14806 -0.906725 0
M  V30 4186 O 389.371 -3.49366 -0.694408 0
M  V30 4187 O 388.23 -5.30548 -1.31075 0
M  V30 4188 H 385.324 -0.793592 -0.23268 0
M  V30 4189 H 387.87 -1.67288 0.285086 0
M  V30 4190 H 386.642 -3.89927 0.327505 0
M  V30 4191 H 386.265 -3.72918 -1.37906 0
M  V30 4192 N 387.262 0.0317525 -1.57568 0
M  V30 4193 C 388.492 0.733884 -1.93126 0
M  V30 4194 C 388.9 1.69563 -0.839352 0
M  V30 4195 O 388.243 1.82681 0.193175 0
M  V30 4196 C 388.305 1.54798 -3.24465 0
M  V30 4197 C 387.969 0.751304 -4.50782 0
M  V30 4198 C 388.966 0.0527632 -5.19873 0
M  V30 4199 C 386.651 0.706639 -4.97305 0
M  V30 4200 C 388.645 -0.679774 -6.33765 0
M  V30 4201 C 386.332 -0.0296449 -6.11093 0
M  V30 4202 C 387.33 -0.721614 -6.79177 0
M  V30 4203 O 387.018 -1.44595 -7.90789 0
M  V30 4204 H 386.75 0.211459 -0.642076 0
M  V30 4205 H 389.304 -0.00585615 -2.05399 0
M  V30 4206 H 387.534 2.33147 -3.08512 0
M  V30 4207 H 389.223 2.13247 -3.4537 0
M  V30 4208 H 389.989 0.0783188 -4.84937 0
M  V30 4209 H 385.868 1.23474 -4.44157 0
M  V30 4210 H 389.412 -1.22042 -6.86842 0
M  V30 4211 H 385.309 -0.0571331 -6.45475 0
M  V30 4212 H 386.077 -1.35935 -8.07133 0
M  V30 4213 N 388.74 1.54641 0.303973 0
M  V30 4214 C 389.989 1.7299 1.03717 0
M  V30 4215 C 390.302 0.521168 1.88529 0
M  V30 4216 O 391.508 0.586408 2.65092 0
M  V30 4217 C 389.964 3.06051 1.89369 0
M  V30 4218 C 389.572 4.34393 1.09574 0
M  V30 4219 C 391.316 3.3376 2.62306 0
M  V30 4220 C 389.223 5.58506 1.94486 0
M  V30 4221 H 388.153 0.64473 0.390947 0
M  V30 4222 H 390.804 1.81124 0.294328 0
M  V30 4223 H 389.186 2.91874 2.67629 0
M  V30 4224 H 390.36 4.59396 0.359485 0
M  V30 4225 H 388.675 4.13597 0.482324 0
M  V30 4226 H 391.272 4.23687 3.26181 0
M  V30 4227 H 391.615 2.52503 3.3098 0
M  V30 4228 H 392.148 3.48894 1.91097 0
M  V30 4229 H 388.887 6.42422 1.30287 0
M  V30 4230 H 388.407 5.37694 2.65792 0
M  V30 4231 H 390.086 5.95651 2.52605 0
M  V30 4232 N 390.218 -0.567019 1.47046 0
M  V30 4233 C 391.128 -1.70247 1.6141 0
M  V30 4234 C 392.144 -1.66746 0.497157 0
M  V30 4235 O 393.32 -1.86371 0.763389 0
M  V30 4236 C 390.385 -3.06756 1.61561 0
M  V30 4237 C 389.446 -3.21399 2.84607 0
M  V30 4238 C 388.679 -4.51396 2.84741 0
M  V30 4239 O 388.902 -5.36255 1.94388 0
M  V30 4240 O 387.836 -4.69621 3.76483 0
M  V30 4241 H 391.662 -1.61073 2.57467 0
M  V30 4242 H 389.247 -0.735894 1.30019 0
M  V30 4243 H 391.129 -3.8801 1.64396 0
M  V30 4244 H 389.804 -3.16333 0.686684 0
M  V30 4245 H 388.711 -2.39579 2.8732 0
M  V30 4246 H 390.044 -3.16721 3.76761 0
M  V30 4247 N 391.696 -1.35014 -0.812953 0
M  V30 4248 C 392.659 -1.27292 -1.90602 0
M  V30 4249 C 393.659 -0.185817 -1.59723 0
M  V30 4250 O 394.849 -0.439102 -1.68575 0
M  V30 4251 C 391.981 -0.967676 -3.26877 0
M  V30 4252 H 393.174 -2.24479 -1.9887 0
M  V30 4253 H 390.727 -1.19446 -1.00808 0
M  V30 4254 H 391.462 0.0005954 -3.243 0
M  V30 4255 H 391.247 -1.75412 -3.50675 0
M  V30 4256 H 392.737 -0.939085 -4.06904 0
M  V30 4257 N 393.175 1.03435 -1.18907 0
M  V30 4258 C 394.421 1.77005 -0.989798 0
M  V30 4259 C 394.754 1.88205 0.478816 0
M  V30 4260 O 394.029 1.39481 1.35556 0
M  V30 4261 C 394.312 3.19925 -1.65287 0
M  V30 4262 C 394.165 3.1663 -3.19477 0
M  V30 4263 C 395.484 4.18189 -1.37134 0
M  V30 4264 H 392.603 0.642538 -0.360991 0
M  V30 4265 H 395.245 1.20784 -1.46667 0
M  V30 4266 H 393.395 3.67929 -1.24741 0
M  V30 4267 H 395.067 2.76567 -3.692 0
M  V30 4268 H 393.31 2.54491 -3.51307 0
M  V30 4269 H 393.981 4.1758 -3.61013 0
M  V30 4270 H 396.457 3.78761 -1.72276 0
M  V30 4271 H 395.333 5.16394 -1.86087 0
M  V30 4272 H 395.594 4.41112 -0.295424 0
M  V30 4273 N 394.653 0.992116 1.22453 0
M  V30 4274 C 395.583 0.561677 2.26644 0
M  V30 4275 C 396.564 -0.411055 1.65059 0
M  V30 4276 O 397.749 -0.301861 1.9184 0
M  V30 4277 C 394.879 -0.125247 3.47074 0
M  V30 4278 C 393.833 0.765948 4.21091 0
M  V30 4279 C 393.159 -0.0538484 5.34673 0
M  V30 4280 C 394.459 2.06242 4.79856 0
M  V30 4281 H 396.153 1.43259 2.62902 0
M  V30 4282 H 393.699 0.690283 1.26377 0
M  V30 4283 H 395.652 -0.437764 4.1912 0
M  V30 4284 H 394.376 -1.03069 3.0991 0
M  V30 4285 H 393.035 1.0621 3.50878 0
M  V30 4286 H 392.683 -0.960188 4.9375 0
M  V30 4287 H 392.383 0.539415 5.85119 0
M  V30 4288 H 393.907 -0.360477 6.09535 0
M  V30 4289 H 395.321 1.8139 5.43848 0
M  V30 4290 H 393.718 2.60444 5.40638 0
M  V30 4291 H 394.788 2.74167 3.99951 0
M  V30 4292 N 396.131 -1.37776 0.765217 0
M  V30 4293 C 397.408 -1.93975 0.251596 0
M  V30 4294 C 397.788 -1.69949 -1.25222 0
M  V30 4295 O 397.136 -1.04457 -2.03226 0
M  V30 4296 C 397.346 -3.43487 0.617895 0
M  V30 4297 C 398.694 -4.20564 0.584029 0
M  V30 4298 O 399.718 -3.5182 0.556888 0
M  V30 4299 O 398.577 -5.43138 0.605291 0
M  V30 4300 H 395.671 -0.82509 0.0561806 0
M  V30 4301 H 398.217 -1.47101 0.846128 0
M  V30 4302 H 396.989 -3.5453 1.65602 0
M  V30 4303 H 396.612 -3.976 -0.00403411 0
M  V30 4304 N 397.609 -0.515225 -1.4894 0
M  V30 4305 C 399.025 -0.172099 -1.58669 0
M  V30 4306 C 399.225 1.32405 -1.51892 0
M  V30 4307 O 398.281 2.10116 -1.40027 0
M  V30 4308 C 399.594 -0.761533 -2.90897 0
M  V30 4309 C 401.142 -0.728926 -3.04394 0
M  V30 4310 C 401.617 -1.29667 -4.39261 0
M  V30 4311 N 403.108 -1.25799 -4.4579 0
M  V30 4312 C 403.843 -1.66733 -5.48623 0
M  V30 4313 N 403.339 -2.15327 -6.58488 0
M  V30 4314 N 405.132 -1.58061 -5.39419 0
M  V30 4315 H 397.283 -1.48778 -1.51588 0
M  V30 4316 H 399.546 -0.617968 -0.718901 0
M  V30 4317 H 399.252 -1.81136 -3.01468 0
M  V30 4318 H 399.126 -0.230106 -3.76497 0
M  V30 4319 H 401.513 0.312098 -2.93445 0
M  V30 4320 H 401.594 -1.29766 -2.20442 0
M  V30 4321 H 401.238 -2.33655 -4.50963 0
M  V30 4322 H 401.168 -0.703752 -5.21876 0
M  V30 4323 H 403.659 -0.902102 -3.66975 0
M  V30 4324 H 403.972 -2.44594 -7.33071 0
M  V30 4325 H 402.317 -2.19311 -6.59491 0
M  V30 4326 H 405.508 -1.19906 -4.52482 0
M  V30 4327 H 405.681 -1.90284 -6.19432 0
M  V30 4328 N 399.087 1.5561 -0.249682 0
M  V30 4329 C 400.035 2.22894 0.664906 0
M  V30 4330 C 401.029 1.21743 1.17792 0
M  V30 4331 O 402.235 1.39748 1.13449 0
M  V30 4332 H 398.61 0.715022 0.232912 0
M  V30 4333 H 400.581 2.98307 0.0742998 0
M  V30 4334 C 399.33 2.94424 1.84959 0
M  V30 4335 H 398.653 3.72031 1.46399 0
M  V30 4336 H 400.093 3.44862 2.4667 0
M  V30 4337 C 398.552 1.98454 2.72245 0
M  V30 4338 O 399.082 1.51939 3.71857 0
M  V30 4339 N 397.288 1.65496 2.38871 0
M  V30 4340 H 396.835 2.03517 1.57919 0
M  V30 4341 H 396.793 1.0155 2.97548 0
M  V30 4342 N 400.565 -0.0233959 1.57583 0
M  V30 4343 C 401.495 -1.02162 2.09965 0
M  V30 4344 C 402.476 -1.3735 1.00344 0
M  V30 4345 O 403.661 -1.46135 1.27899 0
M  V30 4346 C 400.791 -2.32081 2.58371 0
M  V30 4347 C 399.745 -2.1112 3.72307 0
M  V30 4348 C 399.071 -3.46848 4.06941 0
M  V30 4349 C 400.371 -1.49276 5.00514 0
M  V30 4350 H 402.065 -0.585557 2.93618 0
M  V30 4351 H 399.611 -0.280218 1.41247 0
M  V30 4352 H 401.564 -3.02249 2.93639 0
M  V30 4353 H 400.288 -2.77758 1.71808 0
M  V30 4354 H 398.947 -1.43384 3.37397 0
M  V30 4355 H 398.595 -3.90184 3.17436 0
M  V30 4356 H 398.295 -3.33646 4.83688 0
M  V30 4357 H 399.819 -4.18369 4.44747 0
M  V30 4358 H 401.233 -2.09368 5.33702 0
M  V30 4359 H 399.63 -1.46632 5.8191 0
M  V30 4360 H 400.7 -0.459217 4.82721 0
M  V30 4361 N 402.043 -1.548 -0.295768 0
M  V30 4362 C 403.006 -1.85363 -1.34808 0
M  V30 4363 C 404.006 -0.726817 -1.43436 0
M  V30 4364 O 405.196 -0.995088 -1.42981 0
M  V30 4365 C 402.328 -2.03859 -2.73229 0
M  V30 4366 H 403.521 -2.7941 -1.08949 0
M  V30 4367 H 401.074 -1.46942 -0.532702 0
M  V30 4368 H 401.809 -1.12117 -3.04303 0
M  V30 4369 H 401.594 -2.8588 -2.68356 0
M  V30 4370 H 403.084 -2.28857 -3.49305 0
M  V30 4371 N 403.521 0.559213 -1.47345 0
M  V30 4372 C 404.431 1.69388 -1.62311 0
M  V30 4373 C 405.447 1.6648 -0.505993 0
M  V30 4374 O 406.623 1.85964 -0.773262 0
M  V30 4375 C 403.688 3.05894 -1.63185 0
M  V30 4376 C 402.749 3.19885 -2.86307 0
M  V30 4377 C 401.982 4.49879 -2.87131 0
M  V30 4378 O 402.205 5.35217 -1.97229 0
M  V30 4379 O 401.139 4.67618 -3.78968 0
M  V30 4380 H 404.965 1.59706 -2.58317 0
M  V30 4381 H 402.55 0.728989 -1.30407 0
M  V30 4382 H 404.432 3.87133 -1.66451 0
M  V30 4383 H 403.107 3.15964 -0.70345 0
M  V30 4384 H 402.014 2.38052 -2.88587 0
M  V30 4385 H 403.347 3.14718 -3.78435 0
M  V30 4386 N 404.999 1.35443 0.805782 0
M  V30 4387 C 405.947 1.28465 1.93906 0
M  V30 4388 C 406.941 0.17943 1.68447 0
M  V30 4389 O 408.147 0.345459 1.76654 0
M  V30 4390 H 404.522 0.399528 0.637088 0
M  V30 4391 H 406.493 2.24206 1.96912 0
M  V30 4392 C 405.242 1.07432 3.30687 0
M  V30 4393 H 404.565 1.91716 3.50835 0
M  V30 4394 H 406.005 1.06591 4.10383 0
M  V30 4395 C 404.464 -0.22179 3.36169 0
M  V30 4396 O 404.994 -1.21731 3.82811 0
M  V30 4397 N 403.2 -0.260841 2.89427 0
M  V30 4398 H 402.747 0.549884 2.51663 0
M  V30 4399 H 402.705 -1.12777 2.93477 0
M  V30 4400 N 406.477 -1.02803 1.19454 0
M  V30 4401 C 407.726 -1.7562 0.991996 0
M  V30 4402 C 408.039 -1.89672 -0.477901 0
M  V30 4403 O 409.245 -2.59468 -0.799287 0
M  V30 4404 C 407.701 -3.15812 1.72601 0
M  V30 4405 C 407.309 -3.0981 3.23607 0
M  V30 4406 C 409.053 -3.92918 1.60674 0
M  V30 4407 C 406.96 -4.44939 3.89594 0
M  V30 4408 H 405.89 -0.658352 0.367543 0
M  V30 4409 H 408.541 -1.15044 1.42959 0
M  V30 4410 H 406.923 -3.7686 1.21624 0
M  V30 4411 H 408.097 -2.58138 3.81709 0
M  V30 4412 H 406.412 -2.46201 3.35819 0
M  V30 4413 H 409.009 -4.9287 2.07323 0
M  V30 4414 H 409.352 -4.12502 0.561025 0
M  V30 4415 H 409.885 -3.38472 2.09001 0
M  V30 4416 H 406.624 -4.30559 4.94267 0
M  V30 4417 H 406.144 -4.96664 3.36281 0
M  V30 4418 H 407.823 -5.1382 3.93189 0
M  V30 4419 N 407.956 -0.998596 -1.21925 0
M  V30 4420 C 409.181 -0.696015 -1.95372 0
M  V30 4421 C 409.606 0.733826 -1.73195 0
M  V30 4422 O 408.964 1.50242 -1.01474 0
M  V30 4423 C 409.012 -1.01466 -3.4603 0
M  V30 4424 O 408.116 -0.116415 -4.12236 0
M  V30 4425 H 407.457 -0.259938 -0.611006 0
M  V30 4426 H 409.987 -1.33711 -1.54863 0
M  V30 4427 H 409.997 -0.958855 -3.96573 0
M  V30 4428 H 408.672 -2.05653 -3.61497 0
M  V30 4429 H 407.249 -0.228193 -3.72201 0
M  V30 4430 N 409.434 1.37368 -0.772513 0
M  V30 4431 C 410.85 1.53059 -0.452231 0
M  V30 4432 C 411.05 1.73065 1.03203 0
M  V30 4433 O 410.106 1.75245 1.81784 0
M  V30 4434 C 411.419 2.72659 -1.26797 0
M  V30 4435 C 412.967 2.86521 -1.25995 0
M  V30 4436 C 413.442 4.09105 -2.05905 0
M  V30 4437 N 414.933 4.16219 -2.03263 0
M  V30 4438 C 415.668 5.10107 -2.61875 0
M  V30 4439 N 415.164 6.09547 -3.29278 0
M  V30 4440 N 416.957 5.02596 -2.51701 0
M  V30 4441 H 409.108 1.22634 -1.7342 0
M  V30 4442 H 411.371 0.597206 -0.736239 0
M  V30 4443 H 411.077 2.64343 -2.31982 0
M  V30 4444 H 410.951 3.66363 -0.897672 0
M  V30 4445 H 413.338 2.94308 -0.216081 0
M  V30 4446 H 413.419 1.93774 -1.66989 0
M  V30 4447 H 413.063 4.0208 -3.10313 0
M  V30 4448 H 412.993 5.00968 -1.62292 0
M  V30 4449 H 415.484 3.45012 -1.54192 0
M  V30 4450 H 415.797 6.77718 -3.71374 0
M  V30 4451 H 414.142 6.09824 -3.33377 0
M  V30 4452 H 417.333 4.23855 -1.98657 0
M  V30 4453 H 417.506 5.75582 -2.97673 0
M  V30 4454 N 410.912 0.523116 1.48665 0
M  V30 4455 C 412.158 -0.0134963 2.02796 0
M  V30 4456 C 412.491 -1.34582 1.40004 0
M  V30 4457 O 411.766 -1.86756 0.543381 0
M  V30 4458 C 412.049 -0.14276 3.59817 0
M  V30 4459 C 411.902 1.21425 4.331 0
M  V30 4460 C 413.221 -0.872856 4.31357 0
M  V30 4461 H 410.34 -0.00343074 0.736992 0
M  V30 4462 H 412.982 0.678816 1.7746 0
M  V30 4463 H 411.132 -0.732401 3.81534 0
M  V30 4464 H 412.804 1.84447 4.2282 0
M  V30 4465 H 411.047 1.79791 3.94788 0
M  V30 4466 H 411.718 1.07687 5.41394 0
M  V30 4467 H 414.194 -0.372555 4.14429 0
M  V30 4468 H 413.07 -0.932185 5.40927 0
M  V30 4469 H 413.331 -1.92161 3.98154 0
M  V30 4470 N 412.39 -1.55475 0.257931 0
M  V30 4471 C 413.32 -2.24815 -0.630912 0
M  V30 4472 C 414.301 -1.23224 -1.17259 0
M  V30 4473 O 415.486 -1.51904 -1.20991 0
M  V30 4474 C 412.616 -2.95609 -1.82298 0
M  V30 4475 C 411.57 -4.03982 -1.41359 0
M  V30 4476 C 410.896 -4.6226 -2.68738 0
M  V30 4477 C 412.196 -5.19109 -0.57648 0
M  V30 4478 H 413.89 -2.99354 -0.0526878 0
M  V30 4479 H 411.436 -1.4398 -0.023901 0
M  V30 4480 H 413.389 -3.42822 -2.45054 0
M  V30 4481 H 412.113 -2.18577 -2.42676 0
M  V30 4482 H 410.772 -3.57555 -0.809324 0
M  V30 4483 H 410.42 -3.81915 -3.27338 0
M  V30 4484 H 410.12 -5.35424 -2.42065 0
M  V30 4485 H 411.644 -5.12212 -3.32372 0
M  V30 4486 H 413.058 -5.62479 -1.10861 0
M  V30 4487 H 411.455 -5.98729 -0.405351 0
M  V30 4488 H 412.525 -4.83174 0.408776 0
M  V30 4489 N 413.868 0.0150385 -1.57593 0
M  V30 4490 C 415.098 0.713359 -1.93894 0
M  V30 4491 C 415.506 1.68663 -0.857289 0
M  V30 4492 O 414.849 1.82876 0.173788 0
M  V30 4493 C 414.911 1.51348 -3.26089 0
M  V30 4494 C 414.575 0.703451 -4.51554 0
M  V30 4495 C 415.572 -0.00237924 -5.199 0
M  V30 4496 C 413.257 0.653854 -4.98026 0
M  V30 4497 C 415.251 -0.746955 -6.33008 0
M  V30 4498 C 412.938 -0.0944578 -6.11027 0
M  V30 4499 C 413.936 -0.793609 -6.78374 0
M  V30 4500 O 413.624 -1.52974 -7.89211 0
M  V30 4501 H 413.356 0.204637 -0.644282 0
M  V30 4502 H 415.91 -0.0276411 -2.05381 0
M  V30 4503 H 414.14 2.29862 -3.10967 0
M  V30 4504 H 415.829 2.09572 -3.47612 0
M  V30 4505 H 416.595 0.0268803 -4.84993 0
M  V30 4506 H 412.474 1.18756 -4.45441 0
M  V30 4507 H 416.018 -1.2932 -6.85509 0
M  V30 4508 H 411.915 -0.125591 -6.45378 0
M  V30 4509 H 412.683 -1.44488 -8.05646 0
M  V30 4510 N 415.346 1.54954 0.287554 0
M  V30 4511 C 416.757 1.65732 0.859634 0
M  V30 4512 C 417.108 0.574767 1.87592 0
M  V30 4513 O 416.233 -0.286299 2.14498 0
M  V30 4514 C 416.828 3.00438 1.56597 0
M  V30 4515 C 415.387 3.13292 2.08627 0
M  V30 4516 C 414.534 2.61473 0.923416 0
M  V30 4517 H 417.485 1.5857 0.0642338 0
M  V30 4518 H 417.506 2.92613 2.43224 0
M  V30 4519 H 417.018 3.79207 0.826053 0
M  V30 4520 H 415.119 2.39268 2.85625 0
M  V30 4521 H 415.232 4.19647 2.31157 0
M  V30 4522 H 413.596 2.18264 1.31275 0
M  V30 4523 H 414.379 3.42733 0.197241 0
M  V30 4524 N 416.824 -0.551391 1.4764 0
M  V30 4525 C 417.772 -1.67896 1.60978 0
M  V30 4526 C 418.766 -1.62549 0.476877 0
M  V30 4527 O 419.972 -1.67664 0.654878 0
M  V30 4528 H 416.347 -0.555649 0.506713 0
M  V30 4529 H 418.318 -1.53784 2.55721 0
M  V30 4530 C 417.067 -3.06234 1.64669 0
M  V30 4531 H 416.39 -3.11033 2.51194 0
M  V30 4532 H 417.83 -3.84804 1.7805 0
M  V30 4533 C 416.289 -3.34737 0.381115 0
M  V30 4534 O 416.819 -3.98381 -0.515297 0
M  V30 4535 N 415.025 -2.8944 0.259354 0
M  V30 4536 H 414.572 -2.37827 0.98976 0
M  V30 4537 H 414.53 -3.08882 -0.586464 0
M  V30 4538 N 418.302 -1.35869 -0.798587 0
M  V30 4539 C 419.579 -1.20145 -1.54352 0
M  V30 4540 C 419.959 0.216161 -2.0999 0
M  V30 4541 O 419.307 1.22068 -1.93162 0
M  V30 4542 C 419.517 -2.27602 -2.64572 0
M  V30 4543 C 420.865 -2.63811 -3.32699 0
M  V30 4544 O 421.889 -2.26576 -2.74849 0
M  V30 4545 O 420.748 -3.27866 -4.37226 0
M  V30 4546 H 417.842 -0.467248 -0.682355 0
M  V30 4547 H 420.388 -1.47574 -0.837859 0
M  V30 4548 H 419.16 -3.2265 -2.21388 0
M  V30 4549 H 418.783 -2.01488 -3.42766 0
M  V30 4550 N 419.78 1.02168 -1.19998 0
M  V30 4551 C 420.728 2.12717 -0.940967 0
M  V30 4552 C 421.722 1.69069 0.105841 0
M  V30 4553 O 422.928 1.79946 -0.0440583 0
M  V30 4554 H 419.303 0.695108 -0.28693 0
M  V30 4555 H 421.274 2.3175 -1.87975 0
M  V30 4556 C 420.023 3.44027 -0.504049 0
M  V30 4557 H 419.346 3.78036 -1.30112 0
M  V30 4558 H 420.786 4.22452 -0.361991 0
M  V30 4559 C 419.245 3.27678 0.782878 0
M  V30 4560 O 419.775 3.56949 1.84256 0
M  V30 4561 N 417.981 2.80943 0.742921 0
M  V30 4562 H 417.528 2.57322 -0.119687 0
M  V30 4563 H 417.486 2.70385 1.60435 0
M  V30 4564 N 421.258 1.00505 1.21394 0
M  V30 4565 C 422.505 0.687774 1.90462 0
M  V30 4566 C 422.833 -0.78147 1.7811 0
M  V30 4567 O 422.088 -1.58208 1.1519 0
M  V30 4568 C 422.387 1.0546 3.41486 0
M  V30 4569 C 422.053 2.51812 3.74034 0
M  V30 4570 C 420.715 2.91804 3.82628 0
M  V30 4571 C 423.067 3.46614 3.8924 0
M  V30 4572 C 420.395 4.2556 4.03876 0
M  V30 4573 C 422.747 4.80044 4.11995 0
M  V30 4574 C 421.411 5.19759 4.18816 0
M  V30 4575 H 420.681 0.251674 0.696951 0
M  V30 4576 H 423.328 1.26349 1.43903 0
M  V30 4577 H 421.633 0.397133 3.89782 0
M  V30 4578 H 423.33 0.786976 3.93202 0
M  V30 4579 H 419.92 2.1982 3.67936 0
M  V30 4580 H 424.104 3.16883 3.81967 0
M  V30 4581 H 419.36 4.55901 4.07387 0
M  V30 4582 H 423.534 5.53439 4.22704 0
M  V30 4583 H 421.161 6.23418 4.35033 0
M  V30 4584 N 422.737 -1.36956 0.779787 0
M  V30 4585 C 423.984 -1.99491 0.347766 0
M  V30 4586 C 424.312 -1.61898 -1.07793 0
M  V30 4587 O 423.567 -0.86071 -1.75756 0
M  V30 4588 C 423.866 -3.54585 0.447686 0
M  V30 4589 C 423.532 -4.1197 1.83279 0
M  V30 4590 C 422.194 -4.27356 2.2118 0
M  V30 4591 C 424.546 -4.43354 2.74019 0
M  V30 4592 C 421.874 -4.71432 3.4924 0
M  V30 4593 C 424.226 -4.88858 4.01497 0
M  V30 4594 C 422.89 -5.0245 4.39432 0
M  V30 4595 H 422.16 -0.729991 0.127257 0
M  V30 4596 H 424.807 -1.63599 0.995376 0
M  V30 4597 H 423.112 -3.90773 -0.283447 0
M  V30 4598 H 424.809 -4.00888 0.0945948 0
M  V30 4599 H 421.399 -4.00428 1.52825 0
M  V30 4600 H 425.583 -4.31045 2.45995 0
M  V30 4601 H 420.839 -4.80141 3.78516 0
M  V30 4602 H 425.013 -5.12108 4.71931 0
M  V30 4603 H 422.64 -5.36362 5.38721 0
M  V30 4604 N 424.215 -0.530993 -1.48385 0
M  V30 4605 C 425.125 0.23503 -2.3342 0
M  V30 4606 C 426.141 0.93801 -1.46552 0
M  V30 4607 O 427.317 0.912745 -1.7953 0
M  V30 4608 C 424.382 1.26778 -3.22689 0
M  V30 4609 C 423.443 0.575038 -4.25431 0
M  V30 4610 C 422.676 1.55858 -5.10435 0
M  V30 4611 O 422.899 2.79129 -4.97437 0
M  V30 4612 O 421.833 1.09742 -5.91811 0
M  V30 4613 H 425.659 -0.461794 -3.00169 0
M  V30 4614 H 423.244 -0.291903 -1.46521 0
M  V30 4615 H 425.126 1.86457 -3.77904 0
M  V30 4616 H 423.801 1.94699 -2.586 0
M  V30 4617 H 422.708 -0.0622782 -3.74048 0
M  V30 4618 H 424.041 -0.062253 -4.92161 0
M  V30 4619 N 425.693 1.55336 -0.266172 0
M  V30 4620 C 426.941 1.99003 0.35246 0
M  V30 4621 C 427.262 1.15591 1.57047 0
M  V30 4622 O 426.532 0.243268 1.94384 0
M  V30 4623 H 425.112 0.735025 0.133217 0
M  V30 4624 H 427.774 1.91367 -0.369434 0
M  V30 4625 H 426.87 3.05289 0.648453 0
M  V30 4626 N 427.171 -0.0066808 1.57599 0
M  V30 4627 C 428.118 -1.00024 2.08 0
M  V30 4628 C 429.088 -1.34549 0.973943 0
M  V30 4629 O 430.273 -1.44502 1.24595 0
M  V30 4630 C 427.413 -2.2891 2.58252 0
M  V30 4631 C 426.526 -2.00346 3.82734 0
M  V30 4632 C 425.661 -3.23265 4.21513 0
M  V30 4633 C 424.7 -2.90357 5.3885 0
M  V30 4634 N 423.837 -4.05793 5.72954 0
M  V30 4635 H 428.677 -0.563499 2.92624 0
M  V30 4636 H 426.214 -0.266592 1.44664 0
M  V30 4637 H 428.172 -3.04247 2.85464 0
M  V30 4638 H 426.802 -2.70265 1.76512 0
M  V30 4639 H 425.854 -1.15406 3.62471 0
M  V30 4640 H 427.166 -1.72086 4.68175 0
M  V30 4641 H 426.32 -4.06953 4.49971 0
M  V30 4642 H 425.059 -3.54657 3.34768 0
M  V30 4643 H 424.064 -2.05075 5.10122 0
M  V30 4644 H 425.289 -2.60219 6.27266 0
M  V30 4645 H 423.235 -4.37094 4.89167 0
M  V30 4646 H 423.152 -3.81034 6.52954 0
M  V30 4647 H 424.42 -4.90289 6.06001 0
M  V30 4648 N 428.649 -1.55105 -0.279332 0
M  V30 4649 C 429.559 -1.90638 -1.36727 0
M  V30 4650 C 430.575 -0.802899 -1.54368 0
M  V30 4651 O 431.751 -1.10138 -1.68616 0
M  V30 4652 C 428.816 -2.16547 -2.70755 0
M  V30 4653 C 427.877 -3.40146 -2.61915 0
M  V30 4654 C 427.11 -3.6481 -3.8955 0
M  V30 4655 O 427.333 -2.92095 -4.89935 0
M  V30 4656 O 426.267 -4.58343 -3.90135 0
M  V30 4657 H 430.093 -2.83237 -1.09591 0
M  V30 4658 H 427.678 -1.4157 -0.477306 0
M  V30 4659 H 429.56 -2.34665 -3.50014 0
M  V30 4660 H 428.235 -1.27131 -2.9769 0
M  V30 4661 H 427.142 -3.2737 -1.81052 0
M  V30 4662 H 428.475 -4.29761 -2.3993 0
M  V30 4663 N 430.127 0.543554 -1.4793 0
M  V30 4664 C 431.057 1.65888 -1.64327 0
M  V30 4665 C 432.038 1.62818 -0.492383 0
M  V30 4666 O 433.223 1.80226 -0.723338 0
M  V30 4667 C 430.353 3.04506 -1.67013 0
M  V30 4668 C 429.307 3.2243 -2.81466 0
M  V30 4669 C 428.633 4.61972 -2.69233 0
M  V30 4670 C 429.933 3.06496 -4.22915 0
M  V30 4671 H 431.627 1.52421 -2.57698 0
M  V30 4672 H 429.173 0.731849 -1.24016 0
M  V30 4673 H 431.126 3.82391 -1.77074 0
M  V30 4674 H 429.85 3.18964 -0.70212 0
M  V30 4675 H 428.509 2.46957 -2.70938 0
M  V30 4676 H 428.157 4.73247 -1.7043 0
M  V30 4677 H 427.857 4.74911 -3.46025 0
M  V30 4678 H 429.381 5.41974 -2.81242 0
M  V30 4679 H 430.795 3.74186 -4.34348 0
M  V30 4680 H 429.192 3.30938 -5.006 0
M  V30 4681 H 430.262 2.03077 -4.40327 0
M  V30 4682 N 431.605 1.3629 0.791371 0
M  V30 4683 C 433.021 1.16661 1.08914 0
M  V30 4684 C 433.221 -0.0106266 2.01497 0
M  V30 4685 O 432.277 -0.676596 2.43266 0
M  V30 4686 C 433.59 2.47656 1.70549 0
M  V30 4687 C 435.138 2.54002 1.82899 0
M  V30 4688 C 435.613 3.85078 2.47949 0
M  V30 4689 N 437.104 3.86413 2.5542 0
M  V30 4690 C 437.839 4.84572 3.06557 0
M  V30 4691 N 437.335 5.93124 3.58016 0
M  V30 4692 N 439.128 4.71994 3.05251 0
M  V30 4693 H 431.279 2.11668 0.176238 0
M  V30 4694 H 433.542 0.937486 0.140796 0
M  V30 4695 H 433.248 3.34059 1.09989 0
M  V30 4696 H 433.122 2.63319 2.70079 0
M  V30 4697 H 435.509 1.68018 2.42598 0
M  V30 4698 H 435.59 2.42239 0.821808 0
M  V30 4699 H 435.234 4.71467 1.88895 0
M  V30 4700 H 435.164 3.94135 3.49235 0
M  V30 4701 H 437.655 3.07988 2.18979 0
M  V30 4702 H 437.968 6.63999 3.95381 0
M  V30 4703 H 436.313 5.96796 3.56173 0
M  V30 4704 H 439.504 3.86321 2.64336 0
M  V30 4705 H 439.677 5.48653 3.44796 0
M  V30 4706 N 433.083 -1.0153 1.20538 0
M  V30 4707 C 434.013 -2.11972 0.979295 0
M  V30 4708 C 434.994 -1.6985 -0.0921787 0
M  V30 4709 O 436.179 -1.94089 0.0655932 0
M  V30 4710 C 433.309 -3.43201 0.531984 0
M  V30 4711 C 432.263 -3.9907 1.54685 0
M  V30 4712 C 431.589 -5.26082 0.956127 0
M  V30 4713 C 432.889 -4.32313 2.93092 0
M  V30 4714 H 434.583 -2.31143 1.90298 0
M  V30 4715 H 432.129 -1.11079 0.916372 0
M  V30 4716 H 434.082 -4.1985 0.361044 0
M  V30 4717 H 432.806 -3.23792 -0.427327 0
M  V30 4718 H 431.465 -3.2453 1.70517 0
M  V30 4719 H 431.113 -5.02999 -0.0111538 0
M  V30 4720 H 430.813 -5.64426 1.63393 0
M  V30 4721 H 432.337 -6.05386 0.796284 0
M  V30 4722 H 433.751 -4.99845 2.80763 0
M  V30 4723 H 432.148 -4.81774 3.57791 0
M  V30 4724 H 433.218 -3.41025 3.44717 0
M  V30 4725 N 434.561 -1.01147 -1.20859 0
M  V30 4726 C 435.508 -0.577354 -2.23462 0
M  V30 4727 C 436.478 0.399922 -1.61214 0
M  V30 4728 O 437.663 0.300515 -1.88419 0
M  V30 4729 C 434.803 0.083372 -3.44999 0
M  V30 4730 C 433.916 -0.937856 -4.21697 0
M  V30 4731 C 433.051 -0.248717 -5.30617 0
M  V30 4732 C 432.09 -1.25705 -5.99053 0
M  V30 4733 N 431.227 -0.594939 -6.99575 0
M  V30 4734 H 436.067 -1.45695 -2.59956 0
M  V30 4735 H 433.604 -0.729428 -1.27741 0
M  V30 4736 H 435.562 0.483535 -4.14388 0
M  V30 4737 H 434.192 0.926645 -3.09214 0
M  V30 4738 H 433.244 -1.45622 -3.51423 0
M  V30 4739 H 434.556 -1.70493 -4.68757 0
M  V30 4740 H 433.71 0.207215 -6.06346 0
M  V30 4741 H 432.449 0.55071 -4.84581 0
M  V30 4742 H 431.454 -1.72343 -5.2209 0
M  V30 4743 H 432.679 -2.05767 -6.47176 0
M  V30 4744 H 430.625 0.184713 -6.5574 0
M  V30 4745 H 430.542 -1.30017 -7.44736 0
M  V30 4746 H 431.81 -0.162427 -7.79331 0
M  V30 4747 N 436.039 1.36541 -0.78704 0
M  V30 4748 C 436.971 2.28761 -0.141773 0
M  V30 4749 C 437.984 1.49365 0.647599 0
M  V30 4750 O 439.173 1.71836 0.483173 0
M  V30 4751 C 436.273 3.28771 0.822368 0
M  V30 4752 C 435.446 4.3732 0.0835594 0
M  V30 4753 C 434.505 5.17307 0.963296 0
M  V30 4754 O 433.531 5.67638 0.421419 0
M  V30 4755 N 434.733 5.33515 2.28784 0
M  V30 4756 H 437.498 2.84777 -0.933919 0
M  V30 4757 H 435.059 1.48682 -0.640735 0
M  V30 4758 H 437.051 3.79169 1.41468 0
M  V30 4759 H 435.621 2.73412 1.5154 0
M  V30 4760 H 434.841 3.88118 -0.689809 0
M  V30 4761 H 436.129 5.0701 -0.426358 0
M  V30 4762 H 435.527 4.94234 2.75226 0
M  V30 4763 H 434.084 5.87165 2.82985 0
M  V30 4764 N 437.518 0.538854 1.48102 0
M  V30 4765 C 438.428 -0.222648 2.33541 0
M  V30 4766 C 439.444 -0.930225 1.47047 0
M  V30 4767 O 440.62 -0.903211 1.80011 0
M  V30 4768 C 437.685 -1.25064 3.23357 0
M  V30 4769 C 436.746 -0.552469 4.2573 0
M  V30 4770 C 435.979 -1.53149 5.11254 0
M  V30 4771 O 436.202 -2.76487 4.9891 0
M  V30 4772 O 435.136 -1.06602 5.92385 0
M  V30 4773 H 438.962 0.477707 2.99919 0
M  V30 4774 H 436.547 0.299669 1.46364 0
M  V30 4775 H 438.429 -1.8445 3.78888 0
M  V30 4776 H 437.104 -1.93325 2.59629 0
M  V30 4777 H 436.011 0.082114 3.7401 0
M  V30 4778 H 437.344 0.0883526 4.92121 0
M  V30 4779 N 438.996 -1.55193 0.274407 0
M  V30 4780 C 440.226 -2.03692 -0.345442 0
M  V30 4781 C 440.634 -1.15224 -1.50067 0
M  V30 4782 O 439.977 -0.164749 -1.8296 0
M  V30 4783 C 440.039 -3.48325 -0.88939 0
M  V30 4784 C 439.703 -4.56794 0.137115 0
M  V30 4785 C 440.7 -5.11028 0.956378 0
M  V30 4786 C 438.385 -5.01568 0.27115 0
M  V30 4787 C 440.379 -6.08552 1.89587 0
M  V30 4788 C 438.066 -5.98918 1.21412 0
M  V30 4789 C 439.064 -6.52291 2.02498 0
M  V30 4790 O 438.752 -7.47738 2.952 0
M  V30 4791 H 438.484 -0.670893 -0.0829332 0
M  V30 4792 H 441.038 -2.01387 0.404056 0
M  V30 4793 H 439.268 -3.47867 -1.68895 0
M  V30 4794 H 440.957 -3.80167 -1.42225 0
M  V30 4795 H 441.723 -4.7725 0.863559 0
M  V30 4796 H 437.602 -4.5967 -0.349987 0
M  V30 4797 H 441.146 -6.50137 2.52918 0
M  V30 4798 H 437.043 -6.32114 1.30776 0
M  V30 4799 H 437.811 -7.65451 2.89874 0
M  V30 4800 N 440.474 -0.00167713 -1.576 0
M  V30 4801 C 441.721 0.68282 -1.90641 0
M  V30 4802 C 442.049 1.73686 -0.875415 0
M  V30 4803 O 441.304 1.95334 0.119575 0
M  V30 4804 C 441.603 1.36189 -3.30435 0
M  V30 4805 C 441.269 0.440887 -4.48739 0
M  V30 4806 C 439.931 0.187312 -4.80835 0
M  V30 4807 C 442.283 -0.193134 -5.20842 0
M  V30 4808 C 439.611 -0.70855 -5.82406 0
M  V30 4809 C 441.963 -1.07688 -6.23367 0
M  V30 4810 C 440.627 -1.33962 -6.53919 0
M  V30 4811 H 439.897 0.249862 -0.697603 0
M  V30 4812 H 442.544 -0.0575642 -1.91413 0
M  V30 4813 H 440.849 2.17636 -3.25794 0
M  V30 4814 H 442.546 1.89759 -3.5326 0
M  V30 4815 H 439.136 0.648694 -4.23663 0
M  V30 4816 H 443.32 -0.0102445 -4.96299 0
M  V30 4817 H 438.576 -0.920097 -6.04437 0
M  V30 4818 H 442.75 -1.57451 -6.78367 0
M  V30 4819 H 440.377 -2.03549 -7.32442 0
M  V30 4820 N 441.952 1.55251 0.271103 0
M  V30 4821 C 443.198 1.76207 1.00394 0
M  V30 4822 C 443.531 0.562604 1.85872 0
M  V30 4823 O 442.806 -0.439785 1.89463 0
M  V30 4824 C 443.089 3.06828 1.8849 0
M  V30 4825 C 442.942 4.37134 1.05992 0
M  V30 4826 C 444.261 3.33503 2.87165 0
M  V30 4827 H 441.38 0.641086 0.363562 0
M  V30 4828 H 444.022 1.87982 0.276189 0
M  V30 4829 H 442.172 2.96921 2.5054 0
M  V30 4830 H 443.844 4.59001 0.459978 0
M  V30 4831 H 442.087 4.32275 0.363443 0
M  V30 4832 H 442.758 5.2486 1.70955 0
M  V30 4833 H 445.234 3.43215 2.3525 0
M  V30 4834 H 444.11 4.2616 3.45946 0
M  V30 4835 H 444.371 2.53235 3.62387 0
M  V30 4836 N 443.43 -0.535701 1.48216 0
M  V30 4837 C 444.676 -1.29375 1.56173 0
M  V30 4838 C 445.009 -1.92804 0.232429 0
M  V30 4839 O 444.284 -1.78992 -0.761048 0
M  V30 4840 C 444.567 -2.38747 2.69577 0
M  V30 4841 C 444.42 -1.80046 4.12193 0
M  V30 4842 C 445.739 -3.40551 2.78771 0
M  V30 4843 H 442.858 -0.469027 0.568491 0
M  V30 4844 H 445.5 -0.597358 1.80365 0
M  V30 4845 H 443.65 -2.98147 2.4908 0
M  V30 4846 H 445.322 -1.24742 4.44114 0
M  V30 4847 H 443.565 -1.10609 4.19462 0
M  V30 4848 H 444.236 -2.59212 4.87353 0
M  V30 4849 H 446.712 -2.91099 2.97322 0
M  V30 4850 H 445.588 -4.1448 3.59857 0
M  V30 4851 H 445.849 -4.00746 1.86696 0
M  V30 4852 N 444.908 -1.36708 -0.784132 0
M  V30 4853 C 445.871 -1.31307 -1.87859 0
M  V30 4854 C 446.871 -0.219654 -1.59293 0
M  V30 4855 O 448.061 -0.47476 -1.67606 0
M  V30 4856 C 445.193 -1.03679 -3.24751 0
M  V30 4857 H 446.386 -2.28647 -1.94064 0
M  V30 4858 H 443.939 -1.21558 -0.98252 0
M  V30 4859 H 444.674 -0.0681936 -3.24228 0
M  V30 4860 H 444.459 -1.82811 -3.46876 0
M  V30 4861 H 445.949 -1.02518 -4.04821 0
M  V30 4862 N 446.386 1.0089 -1.21074 0
M  V30 4863 C 447.349 2.0775 -0.968129 0
M  V30 4864 C 448.349 1.6069 0.0593445 0
M  V30 4865 O 449.539 1.73293 -0.177525 0
M  V30 4866 C 446.671 3.37794 -0.459108 0
M  V30 4867 H 447.864 2.30707 -1.9161 0
M  V30 4868 H 445.417 1.17807 -1.02719 0
M  V30 4869 H 446.152 3.20516 0.49397 0
M  V30 4870 H 445.937 3.7328 -1.20019 0
M  V30 4871 H 447.427 4.16454 -0.309099 0
M  V30 4872 N 447.864 1.01787 1.20321 0
M  V30 4873 C 449.092 0.727194 1.937 0
M  V30 4874 C 449.507 -0.712305 1.74848 0
M  V30 4875 O 448.864 -1.48327 1.06327 0
M  V30 4876 C 448.915 1.05497 3.45764 0
M  V30 4877 O 448.636 2.43794 3.64 0
M  V30 4878 C 450.137 0.785534 4.36285 0
M  V30 4879 H 447.357 0.266939 0.615617 0
M  V30 4880 H 449.901 1.35939 1.52777 0
M  V30 4881 H 448.056 0.468158 3.84561 0
M  V30 4882 H 448.47 2.55656 4.57974 0
M  V30 4883 H 449.944 1.06495 5.4163 0
M  V30 4884 H 450.421 -0.280273 4.38305 0
M  V30 4885 H 451.027 1.35456 4.03152 0
M  V30 4886 N 449.342 -1.36122 0.79427 0
M  V30 4887 C 450.272 -2.32551 0.210328 0
M  V30 4888 C 451.253 -1.56884 -0.657386 0
M  V30 4889 O 452.438 -1.85014 -0.590207 0
M  V30 4890 C 449.568 -3.41128 -0.651819 0
M  V30 4891 C 448.522 -4.27842 0.116395 0
M  V30 4892 C 447.848 -5.2763 -0.86666 0
M  V30 4893 C 449.148 -5.05647 1.30837 0
M  V30 4894 H 450.842 -2.81636 1.01594 0
M  V30 4895 H 448.388 -1.35407 0.489981 0
M  V30 4896 H 450.341 -4.07581 -1.07031 0
M  V30 4897 H 449.065 -2.90622 -1.49019 0
M  V30 4898 H 447.724 -3.62952 0.515915 0
M  V30 4899 H 447.372 -4.73395 -1.70019 0
M  V30 4900 H 447.072 -5.86514 -0.35705 0
M  V30 4901 H 448.596 -5.96955 -1.28361 0
M  V30 4902 H 450.01 -5.65113 0.965393 0
M  V30 4903 H 448.407 -5.73967 1.75161 0
M  V30 4904 H 449.477 -4.37006 2.10128 0
M  V30 4905 N 450.82 -0.546701 -1.47814 0
M  V30 4906 C 451.752 0.244196 -2.27895 0
M  V30 4907 C 452.765 0.88911 -1.36377 0
M  V30 4908 O 453.954 0.764733 -1.61289 0
M  V30 4909 C 451.054 1.36252 -3.10304 0
M  V30 4910 C 450.227 0.816382 -4.29714 0
M  V30 4911 C 449.286 1.81789 -4.93801 0
M  V30 4912 O 448.312 1.36818 -5.52512 0
M  V30 4913 N 449.514 3.15085 -4.87547 0
M  V30 4914 H 452.279 -0.442694 -2.96412 0
M  V30 4915 H 449.84 -0.382095 -1.57327 0
M  V30 4916 H 451.832 2.03102 -3.50045 0
M  V30 4917 H 450.402 1.95281 -2.44099 0
M  V30 4918 H 449.622 -0.0285981 -3.9419 0
M  V30 4919 H 450.91 0.430668 -5.06974 0
M  V30 4920 H 450.308 3.54275 -4.41028 0
M  V30 4921 H 448.865 3.77522 -5.31339 0
M  V30 4922 N 452.299 1.55045 -0.282633 0
M  V30 4923 C 453.576 1.9179 0.384166 0
M  V30 4924 C 453.956 1.20778 1.73136 0
M  V30 4925 O 453.304 0.33719 2.25998 0
M  V30 4926 C 453.514 3.45149 0.517014 0
M  V30 4927 C 454.862 4.17064 0.796427 0
M  V30 4928 O 455.886 3.51084 0.601535 0
M  V30 4929 O 454.745 5.33837 1.16962 0
M  V30 4930 H 451.839 0.799483 0.211558 0
M  V30 4931 H 454.385 1.66474 -0.32934 0
M  V30 4932 H 453.157 3.88922 -0.430772 0
M  V30 4933 H 452.78 3.76443 1.2797 0
M  V30 4934 N 453.777 0.010035 1.57597 0
M  V30 4935 C 455.026 -0.671945 1.90178 0
M  V30 4936 C 455.339 -1.74376 0.886131 0
M  V30 4937 O 456.545 -2.48107 1.10252 0
M  V30 4938 C 455.001 -1.24636 3.3763 0
M  V30 4939 C 454.609 -0.208838 4.47513 0
M  V30 4940 C 456.353 -1.90595 3.79307 0
M  V30 4941 C 454.26 -0.793814 5.86048 0
M  V30 4942 H 453.19 -0.25474 0.709665 0
M  V30 4943 H 455.841 0.0722206 1.83358 0
M  V30 4944 H 454.223 -2.04152 3.3932 0
M  V30 4945 H 455.397 0.562463 4.57354 0
M  V30 4946 H 453.712 0.350889 4.14919 0
M  V30 4947 H 456.309 -2.35284 4.80151 0
M  V30 4948 H 456.652 -2.74074 3.13352 0
M  V30 4949 H 457.185 -1.17798 3.79958 0
M  V30 4950 H 453.924 0.00240855 6.555 0
M  V30 4951 H 453.444 -1.53404 5.79851 0
M  V30 4952 H 455.123 -1.2894 6.34022 0
M  V30 4953 N 455.255 -1.55392 -0.262866 0
M  V30 4954 C 456.504 -1.75679 -0.990943 0
M  V30 4955 C 456.817 -0.57097 -1.87081 0
M  V30 4956 O 458.023 -0.656486 -2.63444 0
M  V30 4957 C 456.479 -3.10964 -1.81188 0
M  V30 4958 C 456.087 -4.37146 -0.980188 0
M  V30 4959 C 457.831 -3.40597 -2.53365 0
M  V30 4960 C 455.738 -5.63466 -1.7961 0
M  V30 4961 H 454.668 -0.654868 -0.373716 0
M  V30 4962 H 457.319 -1.81841 -0.246203 0
M  V30 4963 H 455.701 -2.98867 -2.59797 0
M  V30 4964 H 456.875 -4.60187 -0.237558 0
M  V30 4965 H 455.19 -4.14731 -0.372497 0
M  V30 4966 H 457.787 -4.32186 -3.14833 0
M  V30 4967 H 458.13 -2.6119 -3.24169 0
M  V30 4968 H 458.663 -3.53838 -1.81779 0
M  V30 4969 H 455.402 -6.4565 -1.13209 0
M  V30 4970 H 454.922 -5.44552 -2.51443 0
M  V30 4971 H 456.601 -6.02139 -2.36723 0
M  V30 4972 N 456.733 0.527833 -1.48498 0
M  V30 4973 C 458.149 0.856571 -1.34666 0
M  V30 4974 C 458.349 1.98271 -0.35931 0
M  V30 4975 O 457.405 2.51551 0.218703 0
M  V30 4976 C 458.718 1.22207 -2.74747 0
M  V30 4977 C 460.266 1.33183 -2.83251 0
M  V30 4978 C 460.741 1.73075 -4.24039 0
M  V30 4979 N 462.232 1.80174 -4.26722 0
M  V30 4980 C 462.967 2.1243 -5.32598 0
M  V30 4981 N 462.463 2.43096 -6.4875 0
M  V30 4982 N 464.256 2.13454 -5.19994 0
M  V30 4983 H 456.407 -0.215174 -2.11307 0
M  V30 4984 H 458.67 -0.0336281 -0.947403 0
M  V30 4985 H 458.376 0.468195 -3.4857 0
M  V30 4986 H 458.25 2.17173 -3.08409 0
M  V30 4987 H 460.637 2.07647 -2.09683 0
M  V30 4988 H 460.718 0.363333 -2.53206 0
M  V30 4989 H 460.362 0.991712 -4.98124 0
M  V30 4990 H 460.292 2.70979 -4.51529 0
M  V30 4991 H 462.783 1.58744 -3.42942 0
M  V30 4992 H 463.096 2.6682 -7.25277 0
M  V30 4993 H 461.441 2.40611 -6.52021 0
M  V30 4994 H 464.632 1.88956 -4.28268 0
M  V30 4995 H 464.805 2.38261 -6.02608 0
M  V30 4996 N 458.211 1.37122 0.776871 0
M  V30 4997 C 459.627 1.1781 1.07671 0
M  V30 4998 C 459.827 0.0107454 2.01497 0
M  V30 4999 O 458.883 -0.650756 2.4397 0
M  V30 5000 C 460.196 2.49451 1.67913 0
M  V30 5001 C 461.744 2.55927 1.80195 0
M  V30 5002 C 462.219 3.87686 2.43851 0
M  V30 5003 N 463.71 3.891 2.51307 0
M  V30 5004 C 464.445 4.87797 3.014 0
M  V30 5005 N 463.941 5.96888 3.51705 0
M  V30 5006 N 465.734 4.75205 3.00227 0
M  V30 5007 H 457.885 2.11843 0.153778 0
M  V30 5008 H 460.148 0.938927 0.130844 0
M  V30 5009 H 459.854 3.35207 1.06439 0
M  V30 5010 H 459.728 2.66169 2.67271 0
M  V30 5011 H 462.115 1.70582 2.40803 0
M  V30 5012 H 462.196 2.43097 0.796069 0
M  V30 5013 H 461.84 4.73444 1.83884 0
M  V30 5014 H 461.77 3.97817 3.45035 0
M  V30 5015 H 464.261 3.10293 2.157 0
M  V30 5016 H 464.574 6.68155 3.88316 0
M  V30 5017 H 462.919 6.0054 3.49824 0
M  V30 5018 H 466.11 3.89103 2.60224 0
M  V30 5019 H 466.283 5.52279 3.38957 0
M  V30 5020 N 459.689 -1.00246 1.21608 0
M  V30 5021 C 460.936 -1.74061 1.03485 0
M  V30 5022 C 461.264 -1.89658 -0.431308 0
M  V30 5023 O 460.519 -1.42976 -1.33627 0
M  V30 5024 C 460.818 -3.15448 1.68009 0
M  V30 5025 C 460.484 -3.19792 3.17874 0
M  V30 5026 C 459.146 -3.20685 3.58768 0
M  V30 5027 C 461.498 -3.16835 4.13842 0
M  V30 5028 C 458.826 -3.16309 4.94131 0
M  V30 5029 C 461.178 -3.14001 5.49169 0
M  V30 5030 C 459.842 -3.13204 5.89457 0
M  V30 5031 H 459.112 -0.636934 0.378677 0
M  V30 5032 H 461.759 -1.17473 1.51236 0
M  V30 5033 H 460.064 -3.75284 1.12557 0
M  V30 5034 H 461.761 -3.71285 1.51487 0
M  V30 5035 H 458.351 -3.19842 2.85305 0
M  V30 5036 H 462.535 -3.15303 3.83272 0
M  V30 5037 H 457.791 -3.14032 5.24589 0
M  V30 5038 H 461.965 -3.10667 6.23265 0
M  V30 5039 H 459.592 -3.09568 6.94314 0
M  V30 5040 N 461.167 -1.02423 -1.1978 0
M  V30 5041 C 462.114 -0.601023 -2.22837 0
M  V30 5042 C 463.084 0.382801 -1.61629 0
M  V30 5043 O 464.269 0.280514 -1.88727 0
M  V30 5044 C 461.409 0.0467755 -3.45068 0
M  V30 5045 C 460.522 -0.98253 -4.20678 0
M  V30 5046 C 459.657 -0.304982 -5.30324 0
M  V30 5047 C 458.696 -1.32052 -5.97686 0
M  V30 5048 N 457.833 -0.669105 -6.98904 0
M  V30 5049 H 462.673 -1.48444 -2.58396 0
M  V30 5050 H 460.21 -0.742936 -1.2696 0
M  V30 5051 H 462.168 0.439556 -4.14878 0
M  V30 5052 H 460.798 0.893796 -3.10179 0
M  V30 5053 H 459.85 -1.49341 -3.49859 0
M  V30 5054 H 461.162 -1.75455 -4.66923 0
M  V30 5055 H 460.316 0.142893 -6.06532 0
M  V30 5056 H 459.055 0.499283 -4.85138 0
M  V30 5057 H 458.06 -1.7787 -5.20233 0
M  V30 5058 H 459.285 -2.1262 -6.44957 0
M  V30 5059 H 457.231 0.115152 -6.55899 0
M  V30 5060 H 457.148 -1.37908 -7.43315 0
M  V30 5061 H 458.416 -0.245076 -7.79115 0
M  V30 5062 N 462.645 1.35699 -0.801477 0
M  V30 5063 C 463.87 2.03687 -0.390678 0
M  V30 5064 C 464.295 1.60015 0.988778 0
M  V30 5065 O 463.653 0.774357 1.63931 0
M  V30 5066 C 463.701 3.57439 -0.476404 0
M  V30 5067 O 462.805 4.09208 0.512106 0
M  V30 5068 H 462.146 0.64344 -0.163956 0
M  V30 5069 H 464.676 1.73403 -1.08594 0
M  V30 5070 H 464.686 4.06544 -0.344357 0
M  V30 5071 H 463.361 3.88576 -1.48262 0
M  V30 5072 H 461.938 3.7134 0.340721 0
M  V30 5073 N 464.123 0.554532 1.47522 0
M  V30 5074 C 465.348 0.0322661 2.07375 0
M  V30 5075 C 465.773 -1.25079 1.40488 0
M  V30 5076 O 465.131 -1.74859 0.47896 0
M  V30 5077 C 465.179 -0.149397 3.6029 0
M  V30 5078 O 464.283 -1.21259 3.9417 0
M  V30 5079 H 463.624 0.0501228 0.662106 0
M  V30 5080 H 466.154 0.769452 1.8958 0
M  V30 5081 H 466.164 -0.364437 4.06369 0
M  V30 5082 H 464.839 0.787743 4.08372 0
M  V30 5083 H 463.416 -0.97825 3.5984 0
M  V30 5084 N 465.601 -1.54893 0.290851 0
M  V30 5085 C 466.548 -2.23138 -0.58974 0
M  V30 5086 C 467.518 -1.21036 -1.13752 0
M  V30 5087 O 468.703 -1.49626 -1.18392 0
M  V30 5088 C 465.843 -2.96811 -1.76061 0
M  V30 5089 C 464.956 -4.13665 -1.24519 0
M  V30 5090 C 464.091 -4.74944 -2.3791 0
M  V30 5091 C 463.13 -5.83963 -1.83451 0
M  V30 5092 N 462.267 -6.39239 -2.90376 0
M  V30 5093 H 467.107 -2.98 -0.00114915 0
M  V30 5094 H 464.644 -1.47096 0.0112006 0
M  V30 5095 H 466.602 -3.37751 -2.44909 0
M  V30 5096 H 465.232 -2.24344 -2.32098 0
M  V30 5097 H 464.284 -3.77737 -0.449288 0
M  V30 5098 H 465.596 -4.92238 -0.806424 0
M  V30 5099 H 464.75 -5.18684 -3.14724 0
M  V30 5100 H 463.489 -3.95682 -2.85109 0
M  V30 5101 H 462.494 -5.39657 -1.05122 0
M  V30 5102 H 463.719 -6.65103 -1.37169 0
M  V30 5103 H 461.665 -5.62864 -3.36927 0
M  V30 5104 H 461.582 -7.13129 -2.50965 0
M  V30 5105 H 462.85 -6.87637 -3.67118 0
M  V30 5106 N 467.08 -0.0183926 -1.57589 0
M  V30 5107 C 468.327 0.662562 -1.91354 0
M  V30 5108 C 468.655 1.72747 -0.893788 0
M  V30 5109 O 467.91 1.9545 0.0988509 0
M  V30 5110 C 468.209 1.32676 -3.31861 0
M  V30 5111 C 467.875 0.393267 -4.49182 0
M  V30 5112 C 466.537 0.136302 -4.81007 0
M  V30 5113 C 468.889 -0.248366 -5.20608 0
M  V30 5114 C 466.217 -0.770282 -5.81621 0
M  V30 5115 C 468.569 -1.14294 -6.22189 0
M  V30 5116 C 467.233 -1.4089 -6.52462 0
M  V30 5117 H 466.503 0.242448 -0.700214 0
M  V30 5118 H 469.15 -0.0778629 -1.91342 0
M  V30 5119 H 467.455 2.14168 -3.28084 0
M  V30 5120 H 469.152 1.86001 -3.55253 0
M  V30 5121 H 465.742 0.603723 -4.24327 0
M  V30 5122 H 469.926 -0.062883 -4.9626 0
M  V30 5123 H 465.182 -0.984154 -6.03427 0
M  V30 5124 H 469.356 -1.64637 -6.76659 0
M  V30 5125 H 466.983 -2.11306 -7.30242 0
M  V30 5126 N 468.558 1.5553 0.254621 0
M  V30 5127 C 469.806 1.7665 0.981793 0
M  V30 5128 C 470.127 0.580963 1.86145 0
M  V30 5129 O 469.397 -0.403537 1.91699 0
M  V30 5130 H 467.977 0.651475 0.365498 0
M  V30 5131 H 470.639 1.92958 0.274426 0
M  V30 5132 H 469.735 2.67486 1.60802 0
M  V30 5133 N 470.036 -0.519951 1.48776 0
M  V30 5134 C 471.276 -1.2856 1.58908 0
M  V30 5135 C 471.64 -1.90212 0.261418 0
M  V30 5136 O 472.841 -2.67746 0.237791 0
M  V30 5137 C 471.112 -2.33836 2.70288 0
M  V30 5138 S 472.671 -3.19992 3.0025 0
M  V30 5139 H 469.489 -0.43717 0.560717 0
M  V30 5140 H 472.091 -0.591205 1.86346 0
M  V30 5141 H 470.795 -1.87041 3.653 0
M  V30 5142 H 470.326 -3.07969 2.44783 0
M  V30 5143 H 472.341 -4.34122 2.40317 0
M  V30 5144 N 471.514 -1.37532 -0.769588 0
M  V30 5145 C 472.93 -1.18379 -1.07045 0
M  V30 5146 C 473.13 -0.0214312 -2.01489 0
M  V30 5147 O 472.186 0.637809 -2.44312 0
M  V30 5148 C 473.499 -2.50338 -1.66588 0
M  V30 5149 C 475.047 -2.56879 -1.78835 0
M  V30 5150 C 475.522 -3.88974 -2.41792 0
M  V30 5151 N 477.013 -3.90428 -2.4924 0
M  V30 5152 C 477.748 -4.89388 -2.98809 0
M  V30 5153 N 477.244 -5.98745 -3.48535 0
M  V30 5154 N 479.037 -4.76791 -2.97703 0
M  V30 5155 H 471.188 -2.11921 -0.142541 0
M  V30 5156 H 473.451 -0.939608 -0.125863 0
M  V30 5157 H 473.157 -3.35767 -1.0466 0
M  V30 5158 H 473.031 -2.67583 -2.65856 0
M  V30 5159 H 475.418 -1.71856 -2.39895 0
M  V30 5160 H 475.499 -2.43516 -0.783166 0
M  V30 5161 H 475.143 -4.74412 -1.81371 0
M  V30 5162 H 475.073 -3.99641 -3.4292 0
M  V30 5163 H 477.564 -3.11433 -2.14052 0
M  V30 5164 H 477.877 -6.70205 -3.84767 0
M  V30 5165 H 476.222 -6.02387 -3.46634 0
M  V30 5166 H 479.413 -3.90478 -2.58157 0
M  V30 5167 H 479.586 -5.54069 -3.36024 0
M  V30 5168 N 472.992 0.995999 -1.22138 0
M  V30 5169 C 474.269 1.70834 -0.952642 0
M  V30 5170 C 474.649 2.04257 0.533119 0
M  V30 5171 O 473.997 1.72343 1.50034 0
M  V30 5172 C 474.207 2.96119 -1.84701 0
M  V30 5173 C 475.555 3.68962 -2.10124 0
M  V30 5174 O 476.579 3.0612 -1.82124 0
M  V30 5175 O 475.438 4.82017 -2.57531 0
M  V30 5176 H 472.532 0.745498 -0.357997 0
M  V30 5177 H 475.078 1.05262 -1.33109 0
M  V30 5178 H 473.85 2.67898 -2.85213 0
M  V30 5179 H 473.473 3.6943 -1.46995 0
M  V30 5180 N 474.47 1.03057 1.19235 0
M  V30 5181 C 475.881 0.757449 1.70645 0
M  V30 5182 C 476.232 -0.722735 1.82403 0
M  V30 5183 O 475.357 -1.56325 1.49638 0
M  V30 5184 C 475.952 1.36833 3.09939 0
M  V30 5185 C 474.511 1.14375 3.58602 0
M  V30 5186 C 473.658 1.46533 2.35422 0
M  V30 5187 H 476.609 1.19828 1.04052 0
M  V30 5188 H 476.63 0.766184 3.72706 0
M  V30 5189 H 476.142 2.44562 3.01349 0
M  V30 5190 H 474.243 0.0847542 3.72504 0
M  V30 5191 H 474.356 1.83366 4.42622 0
M  V30 5192 H 472.72 0.884712 2.38841 0
M  V30 5193 H 473.503 2.55349 2.2946 0
M  V30 5194 N 475.948 -1.35272 0.808662 0
M  V30 5195 C 477.194 -1.99003 0.390581 0
M  V30 5196 C 477.527 -1.63999 -1.0401 0
M  V30 5197 O 476.802 -0.904368 -1.72196 0
M  V30 5198 C 477.085 -3.55454 0.576566 0
M  V30 5199 C 476.938 -4.00249 2.05233 0
M  V30 5200 C 478.257 -4.401 0.00354277 0
M  V30 5201 H 475.376 -0.722917 0.143388 0
M  V30 5202 H 478.018 -1.6039 1.01858 0
M  V30 5203 H 476.168 -3.88477 0.0419766 0
M  V30 5204 H 477.84 -3.77626 2.64946 0
M  V30 5205 H 476.083 -3.51082 2.54801 0
M  V30 5206 H 476.754 -5.0911 2.13333 0
M  V30 5207 H 479.23 -4.13548 0.460117 0
M  V30 5208 H 478.106 -5.48656 0.163575 0
M  V30 5209 H 478.367 -4.28444 -1.09032 0
M  V30 5210 N 477.426 -0.562348 -1.47226 0
M  V30 5211 C 478.842 -0.222492 -1.58042 0
M  V30 5212 C 479.042 1.27505 -1.56028 0
M  V30 5213 O 478.098 2.05555 -1.46641 0
M  V30 5214 C 479.411 -0.853694 -2.88327 0
M  V30 5215 C 480.959 -0.825397 -3.01921 0
M  V30 5216 C 481.434 -1.43576 -4.34914 0
M  V30 5217 N 482.925 -1.39918 -4.41562 0
M  V30 5218 C 483.66 -1.84103 -5.43041 0
M  V30 5219 N 483.156 -2.36167 -6.51304 0
M  V30 5220 N 484.949 -1.75142 -5.34118 0
M  V30 5221 H 477.1 -1.53525 -1.46778 0
M  V30 5222 H 479.363 -0.640527 -0.698877 0
M  V30 5223 H 479.069 -1.90635 -2.95552 0
M  V30 5224 H 478.943 -0.34977 -3.75575 0
M  V30 5225 H 481.33 0.218583 -2.94289 0
M  V30 5226 H 481.411 -1.36713 -2.16202 0
M  V30 5227 H 481.055 -2.47884 -4.43301 0
M  V30 5228 H 480.985 -0.869427 -5.19373 0
M  V30 5229 H 483.476 -1.0184 -3.63919 0
M  V30 5230 H 483.789 -2.67793 -7.24919 0
M  V30 5231 H 482.134 -2.40181 -6.52179 0
M  V30 5232 H 485.325 -1.34241 -4.48439 0
M  V30 5233 H 485.498 -2.09895 -6.13065 0
M  V30 5234 N 478.904 1.54736 -0.299062 0
M  V30 5235 C 480.132 2.04512 0.313447 0
M  V30 5236 C 480.547 1.17643 1.47667 0
M  V30 5237 O 479.904 0.20164 1.81383 0
M  V30 5238 C 479.955 3.53171 0.771542 0
M  V30 5239 O 479.676 4.36736 -0.345379 0
M  V30 5240 C 481.177 4.18936 1.4494 0
M  V30 5241 H 478.397 0.667507 0.0683784 0
M  V30 5242 H 480.941 1.99752 -0.438129 0
M  V30 5243 H 479.096 3.58298 1.47314 0
M  V30 5244 H 479.51 5.24499 0.0109219 0
M  V30 5245 H 480.984 5.24482 1.72111 0
M  V30 5246 H 481.461 3.68554 2.38883 0
M  V30 5247 H 482.067 4.17879 0.791028 0
M  V30 5248 N 480.382 0.0267497 1.57577 0
M  V30 5249 C 481.622 -0.65659 1.93567 0
M  V30 5250 C 481.986 -1.69429 0.903213 0
M  V30 5251 O 483.187 -2.42994 1.14923 0
M  V30 5252 C 481.458 -1.25912 3.34486 0
M  V30 5253 S 483.017 -1.96386 3.924 0
M  V30 5254 H 479.835 -0.216237 0.67732 0
M  V30 5255 H 482.437 0.0898475 1.95293 0
M  V30 5256 H 481.141 -0.491405 4.07447 0
M  V30 5257 H 480.672 -2.04291 3.36198 0
M  V30 5258 H 482.687 -3.24202 3.75643 0
M  V30 5259 N 481.861 -1.55662 -0.24637 0
M  V30 5260 C 483.108 -1.77519 -0.974335 0
M  V30 5261 C 483.436 -0.591165 -1.85298 0
M  V30 5262 O 482.691 0.425497 -1.91018 0
M  V30 5263 C 482.99 -3.04885 -1.86494 0
M  V30 5264 C 482.656 -4.36209 -1.14161 0
M  V30 5265 C 481.318 -4.71896 -0.941701 0
M  V30 5266 C 483.67 -5.17391 -0.628957 0
M  V30 5267 C 480.998 -5.86299 -0.216852 0
M  V30 5268 C 483.35 -6.32546 0.0824273 0
M  V30 5269 C 482.014 -6.66853 0.293807 0
M  V30 5270 H 481.284 -0.649588 -0.356535 0
M  V30 5271 H 483.931 -1.89934 -0.244394 0
M  V30 5272 H 482.236 -2.87484 -2.66196 0
M  V30 5273 H 483.933 -3.18994 -2.42989 0
M  V30 5274 H 480.523 -4.08174 -1.30736 0
M  V30 5275 H 484.707 -4.90276 -0.770943 0
M  V30 5276 H 479.963 -6.11385 -0.0426124 0
M  V30 5277 H 484.137 -6.94693 0.487292 0
M  V30 5278 H 481.764 -7.55349 0.857428 0
M  V30 5279 N 483.339 0.512053 -1.4905 0
M  V30 5280 C 484.249 1.64139 -1.67617 0
M  V30 5281 C 485.265 1.64786 -0.558701 0
M  V30 5282 O 486.441 1.8341 -0.832034 0
M  V30 5283 C 483.506 3.00548 -1.72835 0
M  V30 5284 C 482.567 3.10615 -2.96339 0
M  V30 5285 C 481.8 4.40517 -3.01298 0
M  V30 5286 O 482.023 5.28671 -2.14157 0
M  V30 5287 O 480.957 4.55325 -3.93653 0
M  V30 5288 H 484.783 1.51407 -2.63267 0
M  V30 5289 H 482.368 0.687131 -1.32661 0
M  V30 5290 H 484.25 3.81641 -1.78683 0
M  V30 5291 H 482.925 3.13566 -0.803616 0
M  V30 5292 H 481.832 2.2875 -2.96014 0
M  V30 5293 H 483.165 3.0252 -3.88256 0
M  V30 5294 N 484.817 1.37938 0.762283 0
M  V30 5295 C 486.045 1.36883 1.55147 0
M  V30 5296 C 486.46 -0.0435348 1.8875 0
M  V30 5297 O 485.817 -1.00786 1.52146 0
M  V30 5298 C 485.868 2.21624 2.85596 0
M  V30 5299 O 485.589 3.57358 2.5343 0
M  V30 5300 C 487.09 2.28653 3.7978 0
M  V30 5301 H 484.31 0.468521 0.480343 0
M  V30 5302 H 486.854 1.81404 0.944079 0
M  V30 5303 H 485.009 1.80588 3.42734 0
M  V30 5304 H 485.423 4.01883 3.37032 0
M  V30 5305 H 486.897 2.9225 4.68288 0
M  V30 5306 H 487.374 1.29767 4.19592 0
M  V30 5307 H 487.98 2.70043 3.28568 0
M  V30 5308 N 486.295 -0.989507 1.22664 0
M  V30 5309 C 487.542 -1.72953 1.05325 0
M  V30 5310 C 487.87 -1.90104 -0.411168 0
M  V30 5311 O 487.125 -1.44386 -1.32103 0
M  V30 5312 C 487.424 -3.13649 1.71345 0
M  V30 5313 C 487.09 -3.16403 3.21248 0
M  V30 5314 C 485.752 -3.16862 3.62149 0
M  V30 5315 C 488.104 -3.12428 4.17179 0
M  V30 5316 C 485.432 -3.11051 4.97458 0
M  V30 5317 C 487.784 -3.08159 5.52468 0
M  V30 5318 C 486.448 -3.06935 5.92746 0
M  V30 5319 H 485.718 -0.632881 0.385412 0
M  V30 5320 H 488.365 -1.15863 1.52473 0
M  V30 5321 H 486.67 -3.74069 1.16532 0
M  V30 5322 H 488.367 -3.69658 1.55416 0
M  V30 5323 H 484.957 -3.16798 2.88682 0
M  V30 5324 H 489.141 -3.11221 3.86595 0
M  V30 5325 H 484.397 -3.0845 5.27891 0
M  V30 5326 H 488.571 -3.04039 6.26525 0
M  V30 5327 H 486.198 -3.02186 6.97558 0
M  V30 5328 N 487.773 -1.03688 -1.18687 0
M  V30 5329 C 489.184 -0.766488 -1.70241 0
M  V30 5330 C 489.535 0.713052 -1.82784 0
M  V30 5331 O 488.66 1.55529 -1.50465 0
M  V30 5332 C 489.255 -1.38475 -3.09209 0
M  V30 5333 C 487.814 -1.16276 -3.5799 0
M  V30 5334 C 486.961 -1.4778 -2.34641 0
M  V30 5335 H 489.912 -1.20378 -1.03415 0
M  V30 5336 H 489.933 -0.785939 -3.72295 0
M  V30 5337 H 489.445 -2.46157 -3.00048 0
M  V30 5338 H 487.546 -0.104508 -3.72453 0
M  V30 5339 H 487.659 -1.8571 -4.41643 0
M  V30 5340 H 486.023 -0.897366 -2.38368 0
M  V30 5341 H 486.806 -2.56562 -2.28102 0
M  V30 5342 N 489.251 1.34841 -0.815825 0
M  V30 5343 C 490.528 1.92908 -0.323416 0
M  V30 5344 C 490.908 1.74479 1.18828 0
M  V30 5345 O 490.256 1.11928 1.99209 0
M  V30 5346 C 490.466 3.40957 -0.744952 0
M  V30 5347 C 491.814 4.18107 -0.739716 0
M  V30 5348 O 492.838 3.49511 -0.68708 0
M  V30 5349 O 491.697 5.40517 -0.806456 0
M  V30 5350 H 488.791 0.822436 -0.0867646 0
M  V30 5351 H 491.337 1.4386 -0.90014 0
M  V30 5352 H 490.109 3.4814 -1.78646 0
M  V30 5353 H 489.732 3.97341 -0.143535 0
M  V30 5354 N 490.729 0.570148 1.46925 0
M  V30 5355 C 491.676 -0.170257 2.30171 0
M  V30 5356 C 492.646 -0.896099 1.39855 0
M  V30 5357 O 493.831 -0.889248 1.68811 0
M  V30 5358 C 490.971 -1.18605 3.24079 0
M  V30 5359 C 490.084 -0.464947 4.29491 0
M  V30 5360 C 489.219 -1.46716 5.10537 0
M  V30 5361 C 488.258 -0.731758 6.0771 0
M  V30 5362 N 487.395 -1.68142 6.81669 0
M  V30 5363 H 492.235 0.545713 2.92961 0
M  V30 5364 H 489.772 0.280938 1.44392 0
M  V30 5365 H 491.73 -1.78771 3.76957 0
M  V30 5366 H 490.36 -1.86989 2.63125 0
M  V30 5367 H 489.412 0.251506 3.79568 0
M  V30 5368 H 490.724 0.110548 4.98677 0
M  V30 5369 H 489.878 -2.14199 5.6763 0
M  V30 5370 H 488.617 -2.07658 4.41282 0
M  V30 5371 H 487.622 -0.0430787 5.49783 0
M  V30 5372 H 488.847 -0.127904 6.7898 0
M  V30 5373 H 486.793 -2.27918 6.15134 0
M  V30 5374 H 486.71 -1.15841 7.47072 0
M  V30 5375 H 487.978 -2.347 7.43328 0
M  V30 5376 N 492.207 -1.54576 0.307264 0
M  V30 5377 C 493.453 -2.0056 -0.300612 0
M  V30 5378 C 493.786 -1.1953 -1.53057 0
M  V30 5379 O 493.061 -0.27337 -1.92569 0
M  V30 5380 C 493.344 -3.54167 -0.650987 0
M  V30 5381 C 493.197 -4.45933 0.588539 0
M  V30 5382 C 494.516 -4.14645 -1.47506 0
M  V30 5383 H 491.635 -0.729075 -0.107788 0
M  V30 5384 H 494.277 -1.85286 0.420606 0
M  V30 5385 H 492.427 -3.67313 -1.26544 0
M  V30 5386 H 494.099 -4.44683 1.22697 0
M  V30 5387 H 492.342 -4.16274 1.22058 0
M  V30 5388 H 493.013 -5.51189 0.299153 0
M  V30 5389 H 495.489 -4.04973 -0.955821 0
M  V30 5390 H 494.365 -5.22269 -1.68899 0
M  V30 5391 H 494.626 -3.66921 -2.4662 0
M  V30 5392 N 493.685 -0.035106 -1.57561 0
M  V30 5393 C 494.648 0.929819 -2.09492 0
M  V30 5394 C 495.648 1.25026 -1.01119 0
M  V30 5395 O 496.838 1.18961 -1.27255 0
M  V30 5396 C 493.97 2.24457 -2.56577 0
M  V30 5397 H 495.163 0.479935 -2.96035 0
M  V30 5398 H 492.716 0.213033 -1.54841 0
M  V30 5399 H 493.451 2.74061 -1.73382 0
M  V30 5400 H 493.236 2.02508 -3.35757 0
M  V30 5401 H 494.726 2.93607 -2.96959 0
M  V30 5402 N 495.163 1.55791 0.238111 0
M  V30 5403 C 496.412 1.77234 0.962868 0
M  V30 5404 C 496.725 0.600661 1.86149 0
M  V30 5405 O 497.931 0.698315 2.62366 0
M  V30 5406 C 496.387 3.13808 1.76218 0
M  V30 5407 C 495.995 4.3865 0.910518 0
M  V30 5408 C 497.739 3.44585 2.47914 0
M  V30 5409 C 495.646 5.66252 1.70623 0
M  V30 5410 H 494.576 0.660731 0.36325 0
M  V30 5411 H 497.227 1.8221 0.217242 0
M  V30 5412 H 495.609 3.02963 2.55009 0
M  V30 5413 H 496.783 4.60507 0.164316 0
M  V30 5414 H 495.098 4.15271 0.30647 0
M  V30 5415 H 497.695 4.3714 3.07917 0
M  V30 5416 H 498.038 2.66314 3.19973 0
M  V30 5417 H 498.571 3.56685 1.76127 0
M  V30 5418 H 495.31 6.47369 1.02923 0
M  V30 5419 H 494.83 5.48483 2.42748 0
M  V30 5420 H 496.509 6.05829 2.27114 0
M  V30 5421 N 496.642 -0.504142 1.49319 0
M  V30 5422 C 497.574 -1.62265 1.61872 0
M  V30 5423 C 498.587 -1.54881 0.501573 0
M  V30 5424 O 499.776 -1.6087 0.773497 0
M  V30 5425 C 496.876 -3.01042 1.55651 0
M  V30 5426 C 496.049 -3.33642 2.82845 0
M  V30 5427 C 495.108 -4.51816 2.69719 0
M  V30 5428 O 494.134 -4.53755 3.4365 0
M  V30 5429 N 495.336 -5.51543 1.81055 0
M  V30 5430 H 498.101 -1.51924 2.58339 0
M  V30 5431 H 495.662 -0.691954 1.46368 0
M  V30 5432 H 497.654 -3.78013 1.44528 0
M  V30 5433 H 496.224 -3.05323 0.670546 0
M  V30 5434 H 495.444 -2.45598 3.08343 0
M  V30 5435 H 496.732 -3.5222 3.67177 0
M  V30 5436 H 496.13 -5.52774 1.20241 0
M  V30 5437 H 494.687 -6.27629 1.75856 0
M  V30 5438 N 498.12 -1.38341 -0.754957 0
M  V30 5439 C 499.05 -1.38176 -1.88227 0
M  V30 5440 C 500.031 -0.247873 -1.68284 0
M  V30 5441 O 501.216 -0.45075 -1.88896 0
M  V30 5442 C 498.346 -1.20471 -3.25736 0
M  V30 5443 C 497.3 -2.3105 -3.60278 0
M  V30 5444 C 496.626 -1.98452 -4.96509 0
M  V30 5445 C 497.926 -3.73305 -3.65295 0
M  V30 5446 H 499.62 -2.32512 -1.88622 0
M  V30 5447 H 497.166 -1.1192 -0.906082 0
M  V30 5448 H 499.119 -1.18982 -4.04254 0
M  V30 5449 H 497.843 -0.225965 -3.25817 0
M  V30 5450 H 496.502 -2.31723 -2.84078 0
M  V30 5451 H 496.15 -0.990641 -4.93148 0
M  V30 5452 H 495.85 -2.7251 -5.20588 0
M  V30 5453 H 497.374 -1.98578 -5.77407 0
M  V30 5454 H 498.788 -3.7467 -4.3393 0
M  V30 5455 H 497.185 -4.46557 -4.00883 0
M  V30 5456 H 498.255 -4.05719 -2.65556 0
M  V30 5457 N 499.598 0.982988 -1.23187 0
M  V30 5458 C 500.546 2.09616 -1.00817 0
M  V30 5459 C 501.54 1.6932 0.0519995 0
M  V30 5460 O 502.746 1.79715 -0.101284 0
M  V30 5461 H 499.121 0.685628 -0.308899 0
M  V30 5462 H 501.092 2.25652 -1.95253 0
M  V30 5463 C 499.841 3.42249 -0.613243 0
M  V30 5464 H 499.164 3.73705 -1.42073 0
M  V30 5465 H 500.604 4.21086 -0.496208 0
M  V30 5466 C 499.063 3.30002 0.678233 0
M  V30 5467 O 499.593 3.6263 1.72807 0
M  V30 5468 N 497.799 2.83164 0.653165 0
M  V30 5469 H 497.346 2.56811 -0.201492 0
M  V30 5470 H 497.304 2.75352 1.51752 0
M  V30 5471 N 501.076 1.04316 1.18135 0
M  V30 5472 C 502.353 0.662166 1.84051 0
M  V30 5473 C 502.733 -0.858169 1.9287 0
M  V30 5474 O 502.081 -1.76062 1.45652 0
M  V30 5475 C 502.291 1.3409 3.22212 0
M  V30 5476 C 503.639 1.4733 3.9822 0
M  V30 5477 O 504.663 1.29921 3.31661 0
M  V30 5478 O 503.522 1.75722 5.17479 0
M  V30 5479 H 500.616 0.232005 0.79379 0
M  V30 5480 H 503.162 1.1422 1.25506 0
M  V30 5481 H 501.934 2.37853 3.10711 0
M  V30 5482 H 501.557 0.849649 3.88416 0
M  V30 5483 N 502.554 -1.34406 0.822964 0
M  V30 5484 C 503.782 -2.02508 0.424039 0
M  V30 5485 C 504.197 -1.61975 -0.970022 0
M  V30 5486 O 503.554 -0.825228 -1.62777 0
M  V30 5487 C 503.605 -3.57789 0.516657 0
M  V30 5488 O 503.326 -3.96853 1.85577 0
M  V30 5489 C 504.827 -4.43157 0.112637 0
M  V30 5490 H 502.047 -0.649063 0.170173 0
M  V30 5491 H 504.591 -1.7168 1.11113 0
M  V30 5492 H 502.746 -3.87207 -0.122353 0
M  V30 5493 H 503.16 -4.91538 1.83005 0
M  V30 5494 H 504.634 -5.51527 0.228526 0
M  V30 5495 H 505.111 -4.28939 -0.943837 0
M  V30 5496 H 505.717 -4.19067 0.725449 0
M  V30 5497 N 504.032 -0.577932 -1.46621 0
M  V30 5498 C 504.982 0.178869 -2.27297 0
M  V30 5499 C 505.966 0.866279 -1.35589 0
M  V30 5500 O 507.158 0.761163 -1.59798 0
M  V30 5501 C 504.287 1.19499 -3.2183 0
M  V30 5502 C 503.373 0.50994 -4.21023 0
M  V30 5503 N 503.764 -0.43177 -5.03954 0
M  V30 5504 C 502.062 0.761287 -4.39455 0
M  V30 5505 C 502.763 -0.831693 -5.75724 0
M  V30 5506 N 501.739 -0.181897 -5.43296 0
M  V30 5507 H 505.541 -0.544859 -2.88805 0
M  V30 5508 H 503.055 -0.399373 -1.57413 0
M  V30 5509 H 505.052 1.75131 -3.78332 0
M  V30 5510 H 503.712 1.91959 -2.61881 0
M  V30 5511 H 504.723 -0.807045 -5.11573 0
M  V30 5512 H 501.4 1.47282 -3.90659 0
M  V30 5513 H 502.79 -1.6067 -6.52407 0
M  V30 5514 N 505.51 1.54411 -0.315457 0
M  V30 5515 C 506.921 1.85885 0.174265 0
M  V30 5516 C 507.272 1.23723 1.52273 0
M  V30 5517 O 506.397 0.540246 2.09548 0
M  V30 5518 C 506.992 3.37257 0.322981 0
M  V30 5519 C 505.551 3.68711 0.756922 0
M  V30 5520 C 504.698 2.77013 -0.126195 0
M  V30 5521 H 507.649 1.49374 -0.536007 0
M  V30 5522 H 507.67 3.62539 1.15522 0
M  V30 5523 H 507.182 3.82471 -0.658602 0
M  V30 5524 H 505.283 3.29024 1.74854 0
M  V30 5525 H 505.396 4.75741 0.566291 0
M  V30 5526 H 503.76 2.51588 0.39692 0
M  V30 5527 H 504.543 3.25051 -1.1044 0
M  V30 5528 N 506.988 0.0434614 1.5754 0
M  V30 5529 C 507.951 -0.918696 2.09982 0
M  V30 5530 C 508.951 -1.24488 1.01781 0
M  V30 5531 O 510.141 -1.18284 1.27885 0
M  V30 5532 C 507.273 -2.23093 2.57764 0
M  V30 5533 H 508.466 -0.464229 2.96285 0
M  V30 5534 H 506.019 -0.204818 1.54952 0
M  V30 5535 H 506.754 -2.73137 1.74832 0
M  V30 5536 H 506.539 -2.00724 3.36827 0
M  V30 5537 H 508.029 -2.92028 2.98512 0
M  V30 5538 N 508.466 -1.55915 -0.229846 0
M  V30 5539 C 509.396 -1.94754 -1.28815 0
M  V30 5540 C 510.377 -0.814657 -1.49323 0
M  V30 5541 O 511.562 -1.07631 -1.61645 0
M  V30 5542 C 508.692 -2.25705 -2.63959 0
M  V30 5543 C 507.646 -3.41406 -2.5812 0
M  V30 5544 C 506.972 -3.57941 -3.97218 0
M  V30 5545 C 508.272 -4.76616 -2.13623 0
M  V30 5546 H 509.966 -2.83404 -0.965547 0
M  V30 5547 H 507.512 -1.36353 -0.463028 0
M  V30 5548 H 509.465 -2.51467 -3.38146 0
M  V30 5549 H 508.189 -1.339 -2.9789 0
M  V30 5550 H 506.848 -3.1568 -1.86391 0
M  V30 5551 H 506.496 -2.63526 -4.28443 0
M  V30 5552 H 506.196 -4.35757 -3.94195 0
M  V30 5553 H 507.72 -3.86042 -4.73079 0
M  V30 5554 H 509.134 -5.01637 -2.77549 0
M  V30 5555 H 507.531 -5.57655 -2.21677 0
M  V30 5556 H 508.601 -4.7253 -1.08829 0
M  V30 5557 N 509.944 0.496216 -1.49584 0
M  V30 5558 C 511.169 1.27865 -1.63295 0
M  V30 5559 C 511.594 1.85592 -0.306156 0
M  V30 5560 O 510.952 1.66092 0.726851 0
M  V30 5561 C 511 2.38128 -2.7079 0
M  V30 5562 O 510.104 3.42108 -2.30296 0
M  V30 5563 H 509.445 0.377279 -0.546403 0
M  V30 5564 H 511.975 0.593497 -1.95803 0
M  V30 5565 H 511.985 2.8382 -2.93104 0
M  V30 5566 H 510.66 1.95479 -3.67098 0
M  V30 5567 H 509.237 3.02301 -2.18331 0
M  V30 5568 N 511.423 1.38739 0.74761 0
M  V30 5569 C 512.672 1.3459 1.50228 0
M  V30 5570 C 512.985 -0.0595592 1.95509 0
M  V30 5571 O 514.191 -0.22361 2.70578 0
M  V30 5572 C 512.647 2.36377 2.71393 0
M  V30 5573 C 512.255 3.82573 2.33113 0
M  V30 5574 C 513.999 2.41281 3.49262 0
M  V30 5575 C 511.906 4.76032 3.50924 0
M  V30 5576 H 510.836 0.500312 0.564096 0
M  V30 5577 H 513.487 1.64324 0.8167 0
M  V30 5578 H 511.869 1.99694 3.41962 0
M  V30 5579 H 513.043 4.28227 1.70171 0
M  V30 5580 H 511.358 3.80844 1.68365 0
M  V30 5581 H 513.955 3.08301 4.36869 0
M  V30 5582 H 514.298 1.43353 3.9084 0
M  V30 5583 H 514.831 2.76793 2.85711 0
M  V30 5584 H 511.57 5.75177 3.14408 0
M  V30 5585 H 511.09 4.35066 4.12889 0
M  V30 5586 H 512.769 4.94331 4.17427 0
M  V30 5587 N 512.901 -0.976442 1.23707 0
M  V30 5588 C 514.312 -1.53284 1.06587 0
M  V30 5589 C 514.663 -1.92765 -0.365526 0
M  V30 5590 O 513.788 -1.7645 -1.25277 0
M  V30 5591 C 514.383 -2.78548 1.92864 0
M  V30 5592 C 512.942 -3.30574 1.79994 0
M  V30 5593 C 512.089 -2.03538 1.88328 0
M  V30 5594 H 515.04 -0.795692 1.37311 0
M  V30 5595 H 515.061 -3.5155 1.45577 0
M  V30 5596 H 514.573 -2.49782 2.97037 0
M  V30 5597 H 512.674 -3.64211 0.786202 0
M  V30 5598 H 512.787 -4.00065 2.636 0
M  V30 5599 H 511.151 -2.17853 1.31954 0
M  V30 5600 H 511.934 -1.77149 2.94063 0
M  V30 5601 N 514.379 -1.04941 -1.1758 0
M  V30 5602 C 515.289 -0.658826 -2.25159 0
M  V30 5603 C 516.305 0.318941 -1.71052 0
M  V30 5604 O 517.481 0.171669 -2.00667 0
M  V30 5605 C 514.546 -0.0369522 -3.4668 0
M  V30 5606 C 513.607 -1.06484 -4.15884 0
M  V30 5607 C 512.84 -0.472551 -5.31604 0
M  V30 5608 O 513.063 0.718736 -5.65854 0
M  V30 5609 O 511.997 -1.20557 -5.89703 0
M  V30 5610 H 515.823 -1.55533 -2.60851 0
M  V30 5611 H 513.408 -0.820819 -1.24832 0
M  V30 5612 H 515.29 0.308784 -4.20267 0
M  V30 5613 H 513.965 0.833238 -3.12792 0
M  V30 5614 H 512.872 -1.46253 -3.44327 0
M  V30 5615 H 514.205 -1.9061 -4.53794 0
M  V30 5616 N 515.857 1.33968 -0.830081 0
M  V30 5617 C 516.787 2.31911 -0.271911 0
M  V30 5618 C 517.768 1.58571 0.61556 0
M  V30 5619 O 518.953 1.86514 0.540946 0
M  V30 5620 C 516.083 3.42737 0.561146 0
M  V30 5621 C 515.037 4.27383 -0.229789 0
M  V30 5622 C 514.363 5.29742 0.726463 0
M  V30 5623 C 515.663 5.02 -1.44197 0
M  V30 5624 H 517.357 2.78844 -1.09025 0
M  V30 5625 H 514.903 1.34061 -0.52571 0
M  V30 5626 H 516.856 4.10276 0.961867 0
M  V30 5627 H 515.58 2.94471 1.41261 0
M  V30 5628 H 514.239 3.61456 -0.611964 0
M  V30 5629 H 513.887 4.77736 1.57408 0
M  V30 5630 H 513.587 5.87255 0.20142 0
M  V30 5631 H 515.111 6.00149 1.12489 0
M  V30 5632 H 516.525 5.62355 -1.11488 0
M  V30 5633 H 514.922 5.69122 -1.90317 0
M  V30 5634 H 515.992 4.31281 -2.2164 0
M  V30 5635 N 517.335 0.585699 1.46312 0
M  V30 5636 C 518.268 -0.194257 2.27372 0
M  V30 5637 C 519.246 -0.894116 1.3581 0
M  V30 5638 O 520.43 -0.907402 1.65222 0
M  V30 5639 C 517.557 -1.27901 3.13622 0
M  V30 5640 C 516.603 -0.684666 4.20969 0
M  V30 5641 S 517.436 0.490745 5.33247 0
M  V30 5642 C 518.592 -0.595137 6.23064 0
M  V30 5643 H 518.825 0.493515 2.93175 0
M  V30 5644 H 516.358 0.372666 1.49835 0
M  V30 5645 H 518.316 -1.90008 3.63878 0
M  V30 5646 H 516.977 -1.93875 2.47126 0
M  V30 5647 H 516.17 -1.50015 4.81156 0
M  V30 5648 H 515.772 -0.139204 3.73741 0
M  V30 5649 H 518.064 -1.48002 6.61137 0
M  V30 5650 H 519.007 -0.0299446 7.08094 0
M  V30 5651 H 519.415 -0.900627 5.57269 0
M  V30 5652 N 518.813 -1.54241 0.323641 0
M  V30 5653 C 520.229 -1.59574 -0.0290018 0
M  V30 5654 C 520.429 -1.34017 -1.50472 0
M  V30 5655 O 519.485 -1.12464 -2.26071 0
M  V30 5656 C 520.798 -2.98169 0.389295 0
M  V30 5657 C 522.346 -3.11148 0.339958 0
M  V30 5658 C 522.821 -4.5209 0.733418 0
M  V30 5659 N 524.312 -4.5808 0.686827 0
M  V30 5660 C 525.047 -5.65248 0.963464 0
M  V30 5661 N 524.543 -6.80355 1.30724 0
M  V30 5662 N 526.336 -5.55025 0.88902 0
M  V30 5663 H 518.487 -1.6911 1.28512 0
M  V30 5664 H 520.75 -0.790972 0.522558 0
M  V30 5665 H 520.456 -3.21871 1.41746 0
M  V30 5666 H 520.33 -3.76399 -0.245657 0
M  V30 5667 H 522.717 -2.87182 -0.679002 0
M  V30 5668 H 522.798 -2.35023 1.00985 0
M  V30 5669 H 522.442 -4.76788 1.75029 0
M  V30 5670 H 522.372 -5.26584 0.0412189 0
M  V30 5671 H 524.863 -3.75411 0.43298 0
M  V30 5672 H 525.176 -7.58029 1.5037 0
M  V30 5673 H 523.521 -6.81851 1.3455 0
M  V30 5674 H 526.712 -4.63977 0.619939 0
M  V30 5675 H 526.885 -6.38458 1.10797 0
M  V30 5676 N 520.291 -0.0518155 -1.57515 0
M  V30 5677 C 521.54 0.621286 -1.91893 0
M  V30 5678 C 521.853 1.71966 -0.932052 0
M  V30 5679 O 523.059 2.45096 -1.16791 0
M  V30 5680 C 521.515 1.15641 -3.40816 0
M  V30 5681 C 521.123 0.0901146 -4.47909 0
M  V30 5682 C 522.867 1.80472 -3.84227 0
M  V30 5683 C 520.774 0.638154 -5.87947 0
M  V30 5684 H 519.704 0.235835 -0.716169 0
M  V30 5685 H 522.355 -0.120809 -1.83102 0
M  V30 5686 H 520.737 1.95084 -3.44613 0
M  V30 5687 H 521.911 -0.683525 -4.55702 0
M  V30 5688 H 520.226 -0.460774 -4.13843 0
M  V30 5689 H 522.823 2.22471 -4.86221 0
M  V30 5690 H 523.166 2.65669 -3.20508 0
M  V30 5691 H 523.699 1.07683 -3.82948 0
M  V30 5692 H 520.438 -0.176202 -6.55263 0
M  V30 5693 H 519.958 1.37976 -5.83714 0
M  V30 5694 H 521.637 1.12085 -6.37217 0
M  V30 5695 N 521.769 1.56035 0.221574 0
M  V30 5696 C 522.699 1.95434 1.2778 0
M  V30 5697 C 523.68 0.822564 1.48889 0
M  V30 5698 O 524.865 1.08486 1.61072 0
M  V30 5699 C 521.995 2.27102 2.62759 0
M  V30 5700 C 520.949 3.4277 2.56306 0
M  V30 5701 C 520.275 3.60043 3.95314 0
M  V30 5702 C 521.575 4.77742 2.11093 0
M  V30 5703 H 523.269 2.83912 0.950504 0
M  V30 5704 H 520.815 1.36596 0.455791 0
M  V30 5705 H 522.768 2.53256 3.36807 0
M  V30 5706 H 521.492 1.35478 2.97176 0
M  V30 5707 H 520.151 3.16664 1.84715 0
M  V30 5708 H 519.799 2.65794 4.27039 0
M  V30 5709 H 519.499 4.37841 3.91879 0
M  V30 5710 H 521.023 3.88545 4.71025 0
M  V30 5711 H 522.437 5.03102 2.74885 0
M  V30 5712 H 520.834 5.58823 2.18716 0
M  V30 5713 H 521.904 4.731 1.06321 0
M  V30 5714 N 523.247 -0.488276 1.49845 0
M  V30 5715 C 524.493 -1.24341 1.6021 0
M  V30 5716 C 524.826 -1.91967 0.293651 0
M  V30 5717 O 524.101 -1.81323 -0.703718 0
M  V30 5718 C 524.384 -2.3005 2.77036 0
M  V30 5719 C 524.237 -1.66842 4.17713 0
M  V30 5720 C 525.556 -3.31509 2.89464 0
M  V30 5721 H 522.675 -0.450704 0.583125 0
M  V30 5722 H 525.317 -0.539673 1.82174 0
M  V30 5723 H 523.467 -2.90071 2.58439 0
M  V30 5724 H 525.139 -1.1055 4.47858 0
M  V30 5725 H 523.382 -0.972079 4.22768 0
M  V30 5726 H 524.053 -2.43576 4.95353 0
M  V30 5727 H 526.529 -2.81493 3.06433 0
M  V30 5728 H 525.405 -4.02822 3.72861 0
M  V30 5729 H 525.666 -3.94603 1.99351 0
M  V30 5730 N 524.725 -1.39134 -0.740242 0
M  V30 5731 C 526.002 -1.26584 -1.49117 0
M  V30 5732 C 526.382 0.126902 -2.10718 0
M  V30 5733 O 525.73 1.13765 -1.98166 0
M  V30 5734 C 525.94 -2.38619 -2.54681 0
M  V30 5735 C 527.288 -2.77685 -3.21211 0
M  V30 5736 O 528.312 -2.38029 -2.64991 0
M  V30 5737 O 527.171 -3.46115 -4.22926 0
M  V30 5738 H 524.265 -0.495769 -0.661923 0
M  V30 5739 H 526.811 -1.50995 -0.774514 0
M  V30 5740 H 525.583 -3.3175 -2.07504 0
M  V30 5741 H 525.206 -2.15845 -3.33911 0
M  V30 5742 N 526.204 0.969867 -1.24223 0
M  V30 5743 C 527.45 1.7151 -1.08223 0
M  V30 5744 C 527.783 1.90478 0.37838 0
M  V30 5745 O 527.058 1.4647 1.27971 0
M  V30 5746 C 527.341 3.10714 -1.82013 0
M  V30 5747 C 527.194 2.9925 -3.35811 0
M  V30 5748 C 528.513 4.10332 -1.59108 0
M  V30 5749 H 525.632 0.622499 -0.394543 0
M  V30 5750 H 528.274 1.1284 -1.52863 0
M  V30 5751 H 526.424 3.608 -1.44068 0
M  V30 5752 H 528.096 2.56608 -3.83341 0
M  V30 5753 H 526.339 2.35512 -3.64303 0
M  V30 5754 H 527.01 3.97857 -3.82641 0
M  V30 5755 H 529.486 3.69097 -1.92111 0
M  V30 5756 H 528.362 5.05804 -2.13198 0
M  V30 5757 H 528.623 4.38926 -0.528832 0
M  V30 5758 N 527.682 1.05563 1.17022 0
M  V30 5759 C 528.592 0.670758 2.24807 0
M  V30 5760 C 529.608 -0.309865 1.71219 0
M  V30 5761 O 530.784 -0.161025 2.00755 0
M  V30 5762 C 527.849 0.055337 3.46656 0
M  V30 5763 C 526.91 1.08688 4.15314 0
M  V30 5764 C 526.143 0.500736 5.31346 0
M  V30 5765 O 526.366 -0.688718 5.66227 0
M  V30 5766 O 525.3 1.23683 5.89055 0
M  V30 5767 H 529.126 1.56914 2.60023 0
M  V30 5768 H 526.711 0.827428 1.24395 0
M  V30 5769 H 528.593 -0.286492 4.20425 0
M  V30 5770 H 527.268 -0.816638 3.13229 0
M  V30 5771 H 526.175 1.48077 3.43546 0
M  V30 5772 H 527.508 1.93014 4.52777 0
M  V30 5773 N 529.16 -1.33526 0.837174 0
M  V30 5774 C 530.107 -2.29248 0.267169 0
M  V30 5775 C 531.077 -1.54252 -0.616071 0
M  V30 5776 O 532.262 -1.82559 -0.554699 0
M  V30 5777 C 529.402 -3.40638 -0.553152 0
M  V30 5778 C 528.515 -4.30548 0.353921 0
M  V30 5779 C 527.65 -5.29051 -0.477339 0
M  V30 5780 C 526.689 -6.106 0.42823 0
M  V30 5781 N 525.826 -7.01152 -0.364801 0
M  V30 5782 H 530.666 -2.77398 1.08877 0
M  V30 5783 H 528.203 -1.36496 0.54838 0
M  V30 5784 H 530.161 -4.03921 -1.04422 0
M  V30 5785 H 528.791 -2.93685 -1.33973 0
M  V30 5786 H 527.843 -3.68001 0.963289 0
M  V30 5787 H 529.155 -4.87631 1.04964 0
M  V30 5788 H 528.309 -5.97853 -1.0323 0
M  V30 5789 H 527.048 -4.72541 -1.2065 0
M  V30 5790 H 526.053 -5.40718 0.995219 0
M  V30 5791 H 527.278 -6.69193 1.15573 0
M  V30 5792 H 525.224 -6.47092 -1.07738 0
M  V30 5793 H 525.141 -7.5551 0.272238 0
M  V30 5794 H 526.409 -7.74263 -0.902054 0
M  V30 5795 N 530.638 -0.59345 -1.46 0
M  V30 5796 C 531.884 -0.0832754 -2.02629 0
M  V30 5797 C 532.217 1.27749 -1.46266 0
M  V30 5798 O 531.492 1.8395 -0.631866 0
M  V30 5799 C 531.775 -0.0290756 -3.60088 0
M  V30 5800 C 531.628 -1.41951 -4.26814 0
M  V30 5801 C 532.947 0.666055 -4.35031 0
M  V30 5802 H 530.066 -0.031736 -0.736316 0
M  V30 5803 H 532.708 -0.762711 -1.74019 0
M  V30 5804 H 530.858 0.549532 -3.84594 0
M  V30 5805 H 532.53 -2.04411 -4.13538 0
M  V30 5806 H 530.773 -1.98422 -3.8576 0
M  V30 5807 H 531.444 -1.33395 -5.3564 0
M  V30 5808 H 533.92 0.174401 -4.15734 0
M  V30 5809 H 532.796 0.673041 -5.44758 0
M  V30 5810 H 533.057 1.72946 -4.06869 0
M  V30 5811 N 532.116 1.54067 -0.331816 0
M  V30 5812 C 533.393 1.92915 0.322955 0
M  V30 5813 C 533.773 1.26225 1.69205 0
M  V30 5814 O 533.121 0.408919 2.24811 0
M  V30 5815 C 533.331 3.46619 0.406946 0
M  V30 5816 C 534.679 4.19386 0.663339 0
M  V30 5817 O 535.703 3.5282 0.489536 0
M  V30 5818 O 534.562 5.37288 0.999193 0
M  V30 5819 H 531.656 0.805808 0.186016 0
M  V30 5820 H 534.202 1.65342 -0.382135 0
M  V30 5821 H 532.974 3.87354 -0.554287 0
M  V30 5822 H 532.597 3.80324 1.15929 0
M  V30 5823 N 533.594 0.0601682 1.57485 0
M  V30 5824 C 534.84 -0.606552 1.94146 0
M  V30 5825 C 535.195 -1.67918 0.939225 0
M  V30 5826 O 534.488 -1.91558 -0.0402649 0
M  V30 5827 C 534.682 -1.23831 3.35262 0
M  V30 5828 C 534.511 -0.228408 4.4912 0
M  V30 5829 C 533.281 0.182813 5.04969 0
M  V30 5830 C 535.479 0.52975 5.11564 0
M  V30 5831 N 533.461 1.18464 6.02362 0
M  V30 5832 C 534.832 1.38439 6.04346 0
M  V30 5833 C 536.887 0.587084 4.94427 0
M  V30 5834 C 535.59 2.29125 6.81832 0
M  V30 5835 C 537.616 1.4814 5.72546 0
M  V30 5836 C 536.978 2.32375 6.64967 0
M  V30 5837 H 533.077 -0.193328 0.757726 0
M  V30 5838 H 535.661 0.1346 1.94234 0
M  V30 5839 H 533.832 -1.94944 3.35933 0
M  V30 5840 H 535.564 -1.86456 3.59188 0
M  V30 5841 H 532.319 -0.197968 4.73186 0
M  V30 5842 H 532.743 1.68271 6.55754 0
M  V30 5843 H 537.385 -0.049944 4.22771 0
M  V30 5844 H 535.103 2.93868 7.52773 0
M  V30 5845 H 538.689 1.53045 5.6131 0
M  V30 5846 H 537.569 3.00454 7.2436 0
M  V30 5847 N 535.072 -1.5615 -0.213296 0
M  V30 5848 C 536.349 -1.70349 -0.961281 0
M  V30 5849 C 536.729 -0.609791 -2.02101 0
M  V30 5850 O 536.077 0.381987 -2.25285 0
M  V30 5851 C 536.287 -3.11982 -1.56424 0
M  V30 5852 C 537.635 -3.71649 -2.05334 0
M  V30 5853 O 538.659 -3.14995 -1.66302 0
M  V30 5854 O 537.518 -4.71038 -2.77102 0
M  V30 5855 H 534.612 -0.694121 -0.449582 0
M  V30 5856 H 537.158 -1.68464 -0.204426 0
M  V30 5857 H 535.93 -3.83046 -0.799457 0
M  V30 5858 H 535.553 -3.18019 -2.38641 0
M  V30 5859 N 536.55 0.480323 -1.50102 0
M  V30 5860 C 537.497 1.57946 -1.6829 0
M  V30 5861 C 538.467 1.57611 -0.524223 0
M  V30 5862 O 539.652 1.75282 -0.753709 0
M  V30 5863 C 536.792 2.95978 -1.77457 0
M  V30 5864 C 535.905 3.06173 -3.04766 0
M  V30 5865 C 535.04 4.35063 -3.04784 0
M  V30 5866 C 534.079 4.38966 -4.26586 0
M  V30 5867 N 533.216 5.59314 -4.24396 0
M  V30 5868 H 538.056 1.41743 -2.62131 0
M  V30 5869 H 535.593 0.689304 -1.2995 0
M  V30 5870 H 537.551 3.76011 -1.80752 0
M  V30 5871 H 536.181 3.10837 -0.870637 0
M  V30 5872 H 535.233 2.19071 -3.10986 0
M  V30 5873 H 536.545 3.04916 -3.9475 0
M  V30 5874 H 535.699 5.23436 -3.06757 0
M  V30 5875 H 534.438 4.38915 -2.12614 0
M  V30 5876 H 533.443 3.48992 -4.24835 0
M  V30 5877 H 534.668 4.36813 -5.19972 0
M  V30 5878 H 532.614 5.63969 -3.35074 0
M  V30 5879 H 532.531 5.5976 -5.08138 0
M  V30 5880 H 533.799 6.49837 -4.30502 0
M  V30 5881 N 538.028 1.39524 0.732853 0
M  V30 5882 C 538.991 1.38189 1.82857 0
M  V30 5883 C 539.991 0.278624 1.58368 0
M  V30 5884 O 541.181 0.536639 1.65728 0
M  V30 5885 C 538.313 1.15661 3.2068 0
M  V30 5886 H 539.506 2.35692 1.85444 0
M  V30 5887 H 537.059 1.2512 0.936728 0
M  V30 5888 H 537.794 0.188482 3.23752 0
M  V30 5889 H 537.579 1.95559 3.39852 0
M  V30 5890 H 539.069 1.17472 4.00737 0
M  V30 5891 N 539.506 -0.963266 1.24736 0
M  V30 5892 C 540.752 -1.71 1.10139 0
M  V30 5893 C 541.107 -1.89089 -0.35541 0
M  V30 5894 O 540.4 -1.44451 -1.25875 0
M  V30 5895 C 540.594 -3.09944 1.7796 0
M  V30 5896 C 540.423 -3.05408 3.30085 0
M  V30 5897 C 539.193 -3.09643 3.99311 0
M  V30 5898 C 541.391 -2.87241 4.26611 0
M  V30 5899 N 539.373 -2.95174 5.3828 0
M  V30 5900 C 540.744 -2.81114 5.52607 0
M  V30 5901 C 542.799 -2.71856 4.17132 0
M  V30 5902 C 541.502 -2.61174 6.70209 0
M  V30 5903 C 543.528 -2.53284 5.34417 0
M  V30 5904 C 542.89 -2.4787 6.59348 0
M  V30 5905 H 538.989 -0.634078 0.457678 0
M  V30 5906 H 541.573 -1.14169 1.57713 0
M  V30 5907 H 539.744 -3.64958 1.32893 0
M  V30 5908 H 541.476 -3.73348 1.56183 0
M  V30 5909 H 538.231 -3.18498 3.50508 0
M  V30 5910 H 538.655 -2.91168 6.11188 0
M  V30 5911 H 543.297 -2.74821 3.21299 0
M  V30 5912 H 541.015 -2.56952 7.6616 0
M  V30 5913 H 544.601 -2.42317 5.28936 0
M  V30 5914 H 543.481 -2.33685 7.48573 0
M  V30 5915 N 540.985 -1.06182 -1.16461 0
M  V30 5916 C 541.895 -0.682671 -2.24448 0
M  V30 5917 C 542.911 0.30078 -1.71381 0
M  V30 5918 O 544.087 0.150376 -2.00838 0
M  V30 5919 C 541.152 -0.0737202 -3.46622 0
M  V30 5920 C 540.213 -1.10889 -4.14731 0
M  V30 5921 C 539.446 -0.528908 -5.31073 0
M  V30 5922 O 539.669 0.65868 -5.66584 0
M  V30 5923 O 538.603 -1.26805 -5.88391 0
M  V30 5924 H 542.429 -1.58291 -2.59187 0
M  V30 5925 H 540.014 -0.834013 -1.23954 0
M  V30 5926 H 541.896 0.264192 -4.20571 0
M  V30 5927 H 540.571 0.800015 -3.13658 0
M  V30 5928 H 539.478 -1.49896 -3.42756 0
M  V30 5929 H 540.811 -1.95412 -4.51747 0
M  V30 5930 N 542.463 1.3308 -0.844243 0
M  V30 5931 C 543.712 1.96868 -0.438833 0
M  V30 5932 C 544.025 1.67599 1.00846 0
M  V30 5933 O 545.231 2.25043 1.51881 0
M  V30 5934 C 543.687 3.5234 -0.73377 0
M  V30 5935 C 543.295 3.90481 -2.1961 0
M  V30 5936 C 545.039 4.22653 -0.395574 0
M  V30 5937 C 542.946 5.38954 -2.43481 0
M  V30 5938 H 541.876 0.736749 -0.160364 0
M  V30 5939 H 544.527 1.51623 -1.03358 0
M  V30 5940 H 542.909 3.95941 -0.068589 0
M  V30 5941 H 544.083 3.57922 -2.90221 0
M  V30 5942 H 542.398 3.33165 -2.4978 0
M  V30 5943 H 544.995 5.31848 -0.551477 0
M  V30 5944 H 545.338 4.11004 0.661921 0
M  V30 5945 H 545.871 3.84601 -1.01621 0
M  V30 5946 H 542.61 5.55612 -3.47816 0
M  V30 5947 H 542.13 5.72954 -1.77437 0
M  V30 5948 H 543.809 6.05907 -2.26905 0
M  V30 5949 N 543.941 0.601185 1.45683 0
M  V30 5950 C 545.169 0.100054 2.06658 0
M  V30 5951 C 545.584 -1.21285 1.44691 0
M  V30 5952 O 544.941 -1.73735 0.558772 0
M  V30 5953 C 544.992 -0.0528579 3.61461 0
M  V30 5954 O 544.713 1.20809 4.21114 0
M  V30 5955 C 546.214 -0.586193 4.39407 0
M  V30 5956 H 543.434 0.065905 0.667756 0
M  V30 5957 H 545.978 0.827101 1.87028 0
M  V30 5958 H 544.133 -0.730203 3.80456 0
M  V30 5959 H 544.547 1.03368 5.14213 0
M  V30 5960 H 546.021 -0.642297 5.4825 0
M  V30 5961 H 546.498 -1.60713 4.0874 0
M  V30 5962 H 547.104 0.0568935 4.25262 0
M  V30 5963 N 545.419 -1.53889 0.339982 0
M  V30 5964 C 546.366 -2.24902 -0.518452 0
M  V30 5965 C 547.336 -1.24593 -1.09844 0
M  V30 5966 O 548.521 -1.53317 -1.13572 0
M  V30 5967 C 545.661 -3.02262 -1.66529 0
M  V30 5968 C 544.774 -4.17418 -1.11295 0
M  V30 5969 C 543.909 -4.82273 -2.2268 0
M  V30 5970 C 542.948 -5.89503 -1.6478 0
M  V30 5971 N 542.085 -6.48153 -2.69893 0
M  V30 5972 H 546.925 -2.97853 0.0936579 0
M  V30 5973 H 544.462 -1.46986 0.0579924 0
M  V30 5974 H 546.42 -3.45371 -2.3404 0
M  V30 5975 H 545.05 -2.31614 -2.24844 0
M  V30 5976 H 544.102 -3.78976 -0.328886 0
M  V30 5977 H 545.414 -4.94554 -0.649414 0
M  V30 5978 H 544.568 -5.28435 -2.98063 0
M  V30 5979 H 543.307 -4.04552 -2.72376 0
M  V30 5980 H 542.312 -5.42728 -0.879004 0
M  V30 5981 H 543.537 -6.6913 -1.1594 0
M  V30 5982 H 541.483 -5.73298 -3.1885 0
M  V30 5983 H 541.4 -7.20752 -2.28151 0
M  V30 5984 H 542.668 -6.98968 -3.45056 0
M  V30 5985 N 546.897 -0.0685191 -1.57451 0
M  V30 5986 C 547.844 0.899861 -2.12535 0
M  V30 5987 C 548.814 1.29749 -1.03703 0
M  V30 5988 O 549.999 1.38392 -1.31348 0
M  V30 5989 C 547.139 2.16328 -2.6888 0
M  V30 5990 C 546.252 1.81857 -3.91857 0
M  V30 5991 C 545.387 3.02786 -4.36457 0
M  V30 5992 C 544.426 2.64317 -5.5209 0
M  V30 5993 N 543.563 3.77994 -5.91663 0
M  V30 5994 H 548.403 0.423243 -2.94979 0
M  V30 5995 H 545.94 0.197268 -1.45771 0
M  V30 5996 H 547.898 2.90281 -2.99655 0
M  V30 5997 H 546.528 2.61536 -1.89206 0
M  V30 5998 H 545.58 0.979808 -3.67565 0
M  V30 5999 H 546.892 1.49553 -4.75852 0
M  V30 6000 H 546.046 3.85021 -4.68875 0
M  V30 6001 H 544.785 3.38281 -3.51308 0
M  V30 6002 H 543.79 1.80503 -5.19325 0
M  V30 6003 H 545.015 2.29995 -6.38967 0
M  V30 6004 H 542.961 4.13258 -5.09464 0
M  V30 6005 H 542.878 3.49447 -6.7039 0
M  V30 6006 H 544.146 4.60818 -6.28703 0
M  V30 6007 N 548.375 1.56261 0.205012 0
M  V30 6008 C 549.603 1.84141 0.943386 0
M  V30 6009 C 550.018 0.649772 1.77266 0
M  V30 6010 O 549.375 -0.381612 1.78466 0
M  V30 6011 C 549.426 3.10719 1.84759 0
M  V30 6012 O 549.147 4.25286 1.05181 0
M  V30 6013 C 550.648 3.51706 2.69848 0
M  V30 6014 H 547.868 0.611734 0.275721 0
M  V30 6015 H 550.412 2.03364 0.215253 0
M  V30 6016 H 548.567 2.93422 2.52947 0
M  V30 6017 H 548.981 4.97301 1.66709 0
M  V30 6018 H 550.455 4.43266 3.28967 0
M  V30 6019 H 550.932 2.7423 3.43067 0
M  V30 6020 H 551.538 3.71499 2.07047 0
M  V30 6021 N 549.853 -0.472356 1.50355 0
M  V30 6022 C 551.093 -1.23439 1.62918 0
M  V30 6023 C 551.457 -1.89284 0.321801 0
M  V30 6024 O 552.658 -2.66854 0.322852 0
M  V30 6025 C 550.929 -2.25119 2.7759 0
M  V30 6026 S 552.488 -3.10278 3.10279 0
M  V30 6027 H 549.306 -0.41911 0.574341 0
M  V30 6028 H 551.908 -0.531621 1.88133 0
M  V30 6029 H 550.612 -1.75324 3.71066 0
M  V30 6030 H 550.143 -3.00026 2.54457 0
M  V30 6031 H 552.158 -4.26257 2.54007 0
M  V30 6032 N 551.331 -1.39911 -0.725443 0
M  V30 6033 C 552.294 -1.39156 -1.82121 0
M  V30 6034 C 553.294 -0.287018 -1.58218 0
M  V30 6035 O 554.484 -0.545421 -1.65441 0
M  V30 6036 C 551.616 -1.1736 -3.20062 0
M  V30 6037 H 552.809 -2.36672 -1.84191 0
M  V30 6038 H 550.362 -1.25615 -0.930079 0
M  V30 6039 H 551.097 -0.205648 -3.23647 0
M  V30 6040 H 550.882 -1.97358 -3.3881 0
M  V30 6041 H 552.372 -1.19596 -4.00108 0
M  V30 6042 N 552.809 0.956637 -1.25245 0
M  V30 6043 C 554.039 1.7332 -1.12445 0
M  V30 6044 C 554.447 1.86392 0.324732 0
M  V30 6045 O 553.79 1.35967 1.23526 0
M  V30 6046 C 553.852 3.16603 -1.70303 0
M  V30 6047 C 553.516 3.26966 -3.19284 0
M  V30 6048 C 554.513 3.11434 -4.16299 0
M  V30 6049 C 552.198 3.50851 -3.59456 0
M  V30 6050 C 554.192 3.1963 -5.51467 0
M  V30 6051 C 551.879 3.58684 -4.94761 0
M  V30 6052 C 552.877 3.43087 -5.90576 0
M  V30 6053 O 552.565 3.50598 -7.2342 0
M  V30 6054 H 552.297 0.549981 -0.393061 0
M  V30 6055 H 554.851 1.20892 -1.66055 0
M  V30 6056 H 553.081 3.70385 -1.11138 0
M  V30 6057 H 554.77 3.76109 -1.52632 0
M  V30 6058 H 555.536 2.92853 -3.86604 0
M  V30 6059 H 551.415 3.62053 -2.85375 0
M  V30 6060 H 554.959 3.07373 -6.26233 0
M  V30 6061 H 550.856 3.76782 -5.24124 0
M  V30 6062 H 551.624 3.67242 -7.31489 0
M  V30 6063 N 554.287 1.06798 1.15896 0
M  V30 6064 C 555.515 0.808694 1.90441 0
M  V30 6065 C 555.93 -0.637506 1.77711 0
M  V30 6066 O 555.287 -1.43684 1.12522 0
M  V30 6067 C 555.338 1.20068 3.40978 0
M  V30 6068 O 555.059 2.59013 3.53333 0
M  V30 6069 C 556.56 0.96987 4.3256 0
M  V30 6070 H 553.78 0.292809 0.603742 0
M  V30 6071 H 556.324 1.42296 1.46874 0
M  V30 6072 H 554.479 0.630842 3.82229 0
M  V30 6073 H 554.893 2.7485 4.46719 0
M  V30 6074 H 556.367 1.29371 5.36626 0
M  V30 6075 H 556.844 -0.0941209 4.39099 0
M  V30 6076 H 557.45 1.52433 3.97044 0
M  V30 6077 N 555.766 -1.3263 0.851289 0
M  V30 6078 C 556.714 -2.30882 0.282202 0
M  V30 6079 C 557.708 -1.58697 -0.592589 0
M  V30 6080 O 558.914 -1.73461 -0.480768 0
M  V30 6081 H 555.289 -0.748492 0.0725487 0
M  V30 6082 H 557.26 -2.76374 1.12516 0
M  V30 6083 C 556.009 -3.43828 -0.517449 0
M  V30 6084 H 555.332 -3.99532 0.146392 0
M  V30 6085 H 556.772 -4.1474 -0.88128 0
M  V30 6086 C 555.231 -2.90786 -1.70133 0
M  V30 6087 O 555.761 -2.88 -2.80034 0
M  V30 6088 N 553.967 -2.4723 -1.52728 0
M  V30 6089 H 553.514 -2.49695 -0.633257 0
M  V30 6090 H 553.472 -2.12094 -2.32085 0
M  V30 6091 N 557.244 -0.608902 -1.45362 0
M  V30 6092 C 558.194 0.130616 -2.27626 0
M  V30 6093 C 559.178 0.837323 -1.37396 0
M  V30 6094 O 560.37 0.727096 -1.61376 0
M  V30 6095 C 557.499 1.12646 -3.24293 0
M  V30 6096 C 556.585 0.42052 -4.2201 0
M  V30 6097 N 556.976 -0.538569 -5.02925 0
M  V30 6098 C 555.274 0.667901 -4.40971 0
M  V30 6099 C 555.975 -0.953625 -5.7383 0
M  V30 6100 N 554.951 -0.297097 -5.42788 0
M  V30 6101 H 558.753 -0.605996 -2.87585 0
M  V30 6102 H 556.267 -0.432672 -1.5653 0
M  V30 6103 H 558.264 1.67066 -3.81961 0
M  V30 6104 H 556.924 1.86361 -2.65894 0
M  V30 6105 H 557.935 -0.915375 -5.09746 0
M  V30 6106 H 554.612 1.38963 -3.93695 0
M  V30 6107 H 556.002 -1.74473 -6.48852 0
M  V30 6108 N 558.722 1.53707 -0.348139 0
M  V30 6109 C 559.95 2.05406 0.248224 0
M  V30 6110 C 560.365 1.22282 1.43849 0
M  V30 6111 O 559.722 0.259244 1.80649 0
M  V30 6112 C 559.773 3.55446 0.658793 0
M  V30 6113 O 559.494 4.35417 -0.484149 0
M  V30 6114 C 560.995 4.23335 1.31539 0
M  V30 6115 H 558.215 0.669344 0.0471075 0
M  V30 6116 H 560.759 1.98257 -0.501456 0
M  V30 6117 H 558.914 3.62803 1.35841 0
M  V30 6118 H 559.328 5.24268 -0.155949 0
M  V30 6119 H 560.802 5.29692 1.55338 0
M  V30 6120 H 561.279 3.75967 2.27036 0
M  V30 6121 H 561.885 4.20184 0.657683 0
M  V30 6122 N 560.2 0.0768682 1.57412 0
M  V30 6123 C 561.446 -0.591961 1.93968 0
M  V30 6124 C 561.779 -1.68954 0.9575 0
M  V30 6125 O 561.054 -1.94496 -0.0124675 0
M  V30 6126 C 561.337 -1.16418 3.40762 0
M  V30 6127 C 561.19 -0.0728933 4.49741 0
M  V30 6128 C 562.509 -2.06814 3.88479 0
M  V30 6129 H 559.628 -0.213716 0.705333 0
M  V30 6130 H 562.27 0.14387 1.89455 0
M  V30 6131 H 560.42 -1.79128 3.4474 0
M  V30 6132 H 562.092 0.560446 4.57883 0
M  V30 6133 H 560.335 0.595859 4.29688 0
M  V30 6134 H 561.006 -0.513755 5.49604 0
M  V30 6135 H 563.482 -1.54033 3.8654 0
M  V30 6136 H 562.358 -2.43785 4.91793 0
M  V30 6137 H 562.619 -2.97844 3.26713 0
M  V30 6138 N 561.678 -1.56367 -0.196722 0
M  V30 6139 C 562.608 -1.97442 -1.24655 0
M  V30 6140 C 563.589 -0.846147 -1.47561 0
M  V30 6141 O 564.774 -1.11035 -1.59326 0
M  V30 6142 C 561.904 -2.31253 -2.59112 0
M  V30 6143 C 560.858 -3.46804 -2.50821 0
M  V30 6144 C 560.184 -3.66286 -3.89536 0
M  V30 6145 C 561.484 -4.8104 -2.03465 0
M  V30 6146 H 563.178 -2.85388 -0.905216 0
M  V30 6147 H 560.724 -1.37304 -0.434002 0
M  V30 6148 H 562.677 -2.58583 -3.32736 0
M  V30 6149 H 561.401 -1.40188 -2.94983 0
M  V30 6150 H 560.06 -3.19563 -1.79653 0
M  V30 6151 H 559.708 -2.72555 -4.22756 0
M  V30 6152 H 559.408 -4.4402 -3.84864 0
M  V30 6153 H 560.932 -3.9599 -4.64784 0
M  V30 6154 H 562.346 -5.07411 -2.66846 0
M  V30 6155 H 560.743 -5.62232 -2.09798 0
M  V30 6156 H 561.813 -4.74732 -0.98781 0
M  V30 6157 N 563.156 0.464375 -1.50603 0
M  V30 6158 C 564.567 1.04507 -1.5471 0
M  V30 6159 C 564.918 1.9297 -0.354542 0
M  V30 6160 O 564.043 2.09763 0.531812 0
M  V30 6161 C 564.638 1.90207 -2.80369 0
M  V30 6162 C 563.197 2.43373 -2.87135 0
M  V30 6163 C 562.344 1.21886 -2.49076 0
M  V30 6164 H 565.295 0.246716 -1.56771 0
M  V30 6165 H 565.316 2.75353 -2.62604 0
M  V30 6166 H 564.828 1.25796 -3.67147 0
M  V30 6167 H 562.929 3.11318 -2.04724 0
M  V30 6168 H 563.042 2.7802 -3.90181 0
M  V30 6169 H 561.406 1.55575 -2.01664 0
M  V30 6170 H 562.189 0.591268 -3.3817 0
M  V30 6171 N 564.634 1.40294 0.718013 0
M  V30 6172 C 565.544 1.42678 1.86226 0
M  V30 6173 C 566.56 0.319655 1.71039 0
M  V30 6174 O 567.736 0.563852 1.93346 0
M  V30 6175 C 564.801 1.2852 3.21999 0
M  V30 6176 C 563.862 2.49354 3.49458 0
M  V30 6177 C 563.095 2.35863 4.78753 0
M  V30 6178 O 563.318 1.37114 5.53675 0
M  V30 6179 O 562.252 3.25189 5.06494 0
M  V30 6180 H 566.078 2.39167 1.87171 0
M  V30 6181 H 563.663 1.2159 0.868112 0
M  V30 6182 H 565.545 1.22824 4.03103 0
M  V30 6183 H 564.22 0.351359 3.21787 0
M  V30 6184 H 563.127 2.60628 2.68373 0
M  V30 6185 H 564.46 3.41491 3.54464 0
M  V30 6186 N 566.112 -0.949982 1.2575 0
M  V30 6187 C 567.075 -2.02894 1.06615 0
M  V30 6188 C 568.075 -1.60791 0.0173905 0
M  V30 6189 O 569.265 -1.72249 0.260003 0
M  V30 6190 C 566.397 -3.35219 0.619751 0
M  V30 6191 H 567.59 -2.21302 2.02399 0
M  V30 6192 H 565.143 -1.12772 1.08223 0
M  V30 6193 H 565.878 -3.22508 -0.340486 0
M  V30 6194 H 565.663 -3.67129 1.37692 0
M  V30 6195 H 567.153 -4.14505 0.507443 0
M  V30 6196 N 567.59 -1.07411 -1.15328 0
M  V30 6197 C 568.52 -0.716472 -2.22236 0
M  V30 6198 C 569.501 0.296373 -1.67498 0
M  V30 6199 O 570.686 0.168989 -1.93463 0
M  V30 6200 C 567.816 -0.114142 -3.47112 0
M  V30 6201 C 566.77 -1.05421 -4.14814 0
M  V30 6202 C 566.096 -0.314604 -5.33774 0
M  V30 6203 C 567.396 -2.38808 -4.64508 0
M  V30 6204 H 569.09 -1.61029 -2.52408 0
M  V30 6205 H 566.636 -0.775702 -1.21321 0
M  V30 6206 H 568.589 0.148001 -4.2114 0
M  V30 6207 H 567.313 0.814755 -3.16274 0
M  V30 6208 H 565.972 -1.30128 -3.42728 0
M  V30 6209 H 565.62 0.617772 -4.99192 0
M  V30 6210 H 565.32 -0.941209 -5.80013 0
M  V30 6211 H 566.844 -0.0602747 -6.1057 0
M  V30 6212 H 568.258 -2.18424 -5.3006 0
M  V30 6213 H 566.655 -2.97069 -5.21412 0
M  V30 6214 H 567.725 -3.01067 -3.80114 0
M  V30 6215 N 569.068 1.32177 -0.85831 0
M  V30 6216 C 569.978 2.32561 -0.308606 0
M  V30 6217 C 570.994 1.64209 0.575462 0
M  V30 6218 O 572.17 1.95719 0.474961 0
M  V30 6219 C 569.235 3.43207 0.490909 0
M  V30 6220 C 568.296 4.27243 -0.419733 0
M  V30 6221 C 567.529 5.32605 0.341719 0
M  V30 6222 O 567.752 5.48332 1.57125 0
M  V30 6223 O 566.686 6.0118 -0.294379 0
M  V30 6224 H 570.512 2.81477 -1.14037 0
M  V30 6225 H 568.097 1.35866 -0.621349 0
M  V30 6226 H 569.979 4.10677 0.944574 0
M  V30 6227 H 568.654 2.96474 1.29941 0
M  V30 6228 H 567.561 3.62569 -0.921652 0
M  V30 6229 H 568.894 4.7751 -1.19352 0
M  V30 6230 N 570.547 0.616602 1.45037 0
M  V30 6231 C 571.963 0.280994 1.57107 0
M  V30 6232 C 572.163 -1.21627 1.60653 0
M  V30 6233 O 571.219 -1.9997 1.54169 0
M  V30 6234 C 572.532 0.960116 2.8496 0
M  V30 6235 C 574.08 0.936884 2.98649 0
M  V30 6236 C 574.555 1.59619 4.29285 0
M  V30 6237 N 576.046 1.5621 4.36065 0
M  V30 6238 C 576.781 2.04131 5.35834 0
M  V30 6239 N 576.277 2.60177 6.4209 0
M  V30 6240 N 578.07 1.94845 5.27249 0
M  V30 6241 H 570.221 1.58867 1.40979 0
M  V30 6242 H 572.484 0.666024 0.674623 0
M  V30 6243 H 572.19 2.01473 2.88273 0
M  V30 6244 H 572.064 0.488921 3.74018 0
M  V30 6245 H 574.451 -0.109209 2.94898 0
M  V30 6246 H 574.532 1.44643 2.10979 0
M  V30 6247 H 574.176 2.64166 4.33796 0
M  V30 6248 H 574.106 1.06159 5.15789 0
M  V30 6249 H 576.597 1.15276 3.59889 0
M  V30 6250 H 576.91 2.94513 7.1448 0
M  V30 6251 H 575.255 2.64221 6.42816 0
M  V30 6252 H 578.446 1.50792 4.43147 0
M  V30 6253 H 578.619 2.32504 6.04852 0
M  V30 6254 N 572.025 -1.5352 0.356285 0
M  V30 6255 C 573.271 -2.02104 -0.229271 0
M  V30 6256 C 573.626 -1.23923 -1.47176 0
M  V30 6257 O 572.919 -0.321957 -1.88876 0
M  V30 6258 C 573.113 -3.52607 -0.583369 0
M  V30 6259 C 572.942 -4.4536 0.623253 0
M  V30 6260 C 571.712 -4.92446 1.13248 0
M  V30 6261 C 573.91 -4.92375 1.48563 0
M  V30 6262 N 571.892 -5.69183 2.3001 0
M  V30 6263 C 573.263 -5.67362 2.50001 0
M  V30 6264 C 575.318 -4.74464 1.50959 0
M  V30 6265 C 574.021 -6.26341 3.5368 0
M  V30 6266 C 576.047 -5.34302 2.53526 0
M  V30 6267 C 575.409 -6.09166 3.53688 0
M  V30 6268 H 571.508 -0.780595 -0.0468602 0
M  V30 6269 H 574.092 -1.88204 0.49873 0
M  V30 6270 H 572.263 -3.66686 -1.28046 0
M  V30 6271 H 573.995 -3.87922 -1.15321 0
M  V30 6272 H 570.75 -4.6842 0.698562 0
M  V30 6273 H 571.174 -6.12216 2.88998 0
M  V30 6274 H 575.816 -4.16117 0.748785 0
M  V30 6275 H 573.534 -6.8379 4.30648 0
M  V30 6276 H 577.12 -5.22342 2.56223 0
M  V30 6277 H 576 -6.54644 4.31753 0
M  V30 6278 N 573.503 -0.0852151 -1.57369 0
M  V30 6279 C 574.914 0.445428 -1.81309 0
M  V30 6280 C 575.265 1.68795 -1.00013 0
M  V30 6281 O 574.39 2.15211 -0.226573 0
M  V30 6282 C 574.985 0.814887 -3.28854 0
M  V30 6283 C 573.544 1.29032 -3.53592 0
M  V30 6284 C 572.691 0.282089 -2.75861 0
M  V30 6285 H 575.642 -0.310771 -1.55627 0
M  V30 6286 H 575.663 1.67524 -3.41637 0
M  V30 6287 H 575.175 -0.0896309 -3.87996 0
M  V30 6288 H 573.276 2.21289 -2.9977 0
M  V30 6289 H 573.389 1.25898 -4.62262 0
M  V30 6290 H 571.753 0.762182 -2.43029 0
M  V30 6291 H 572.536 -0.614936 -3.37748 0
M  V30 6292 N 574.981 1.5647 0.188427 0
M  V30 6293 C 576.227 1.81281 0.909124 0
M  V30 6294 C 576.56 0.66034 1.82628 0
M  V30 6295 O 575.835 -0.338737 1.91528 0
M  V30 6296 C 576.118 3.16388 1.7196 0
M  V30 6297 C 575.971 4.42137 0.826714 0
M  V30 6298 C 577.29 3.48256 2.69083 0
M  V30 6299 H 574.409 0.659457 0.329068 0
M  V30 6300 H 577.051 1.89182 0.176156 0
M  V30 6301 H 575.201 3.09784 2.34448 0
M  V30 6302 H 576.873 4.60794 0.216025 0
M  V30 6303 H 575.116 4.33594 0.133792 0
M  V30 6304 H 575.787 5.33184 1.42893 0
M  V30 6305 H 578.263 3.55203 2.16726 0
M  V30 6306 H 577.139 4.43899 3.2287 0
M  V30 6307 H 577.4 2.72088 3.48455 0
M  V30 6308 N 576.459 -0.456382 1.50847 0
M  V30 6309 C 577.684 -1.2349 1.66628 0
M  V30 6310 C 578.109 -1.84715 0.355254 0
M  V30 6311 O 577.467 -1.67961 -0.682559 0
M  V30 6312 C 577.515 -2.30865 2.77009 0
M  V30 6313 O 576.619 -3.35882 2.39285 0
M  V30 6314 H 575.96 -0.36266 0.556214 0
M  V30 6315 H 578.49 -0.541374 1.97308 0
M  V30 6316 H 578.5 -2.75949 3.00526 0
M  V30 6317 H 577.175 -1.85677 3.72152 0
M  V30 6318 H 575.752 -2.96406 2.26269 0
M  V30 6319 N 577.937 -1.40673 -0.710563 0
M  V30 6320 C 578.87 -1.35742 -1.83438 0
M  V30 6321 C 579.848 -0.226997 -1.61008 0
M  V30 6322 O 581.032 -0.411477 -1.83954 0
M  V30 6323 C 578.159 -1.11374 -3.19865 0
M  V30 6324 C 577.205 -2.26935 -3.61113 0
M  V30 6325 S 578.038 -3.89352 -3.67648 0
M  V30 6326 C 579.194 -3.67258 -5.06826 0
M  V30 6327 H 579.427 -2.30848 -1.87341 0
M  V30 6328 H 576.96 -1.27018 -0.877831 0
M  V30 6329 H 578.918 -0.980004 -3.9863 0
M  V30 6330 H 577.579 -0.179135 -3.13589 0
M  V30 6331 H 576.772 -2.0554 -4.60184 0
M  V30 6332 H 576.374 -2.36638 -2.89618 0
M  V30 6333 H 578.666 -3.26036 -5.93891 0
M  V30 6334 H 579.609 -4.65878 -5.33257 0
M  V30 6335 H 580.017 -3.0084 -4.77656 0
M  V30 6336 N 579.415 0.9433 -1.26252 0
M  V30 6337 C 580.662 1.68925 -1.11672 0
M  V30 6338 C 580.99 1.91499 0.340329 0
M  V30 6339 O 580.245 1.49189 1.26653 0
M  V30 6340 C 580.544 3.07073 -1.82868 0
M  V30 6341 C 580.21 3.04262 -3.32769 0
M  V30 6342 C 578.872 3.03203 -3.7366 0
M  V30 6343 C 581.224 2.96729 -4.28487 0
M  V30 6344 C 578.552 2.92373 -5.0866 0
M  V30 6345 C 580.904 2.87442 -5.63525 0
M  V30 6346 C 579.568 2.84724 -6.03729 0
M  V30 6347 H 578.838 0.618141 -0.408635 0
M  V30 6348 H 581.485 1.10124 -1.56668 0
M  V30 6349 H 579.79 3.69486 -1.30335 0
M  V30 6350 H 581.487 3.63635 -1.69029 0
M  V30 6351 H 578.077 3.05865 -3.00241 0
M  V30 6352 H 582.261 2.96658 -3.97879 0
M  V30 6353 H 577.517 2.88645 -5.38975 0
M  V30 6354 H 581.691 2.80576 -6.37377 0
M  V30 6355 H 579.318 2.76089 -7.08293 0
M  V30 6356 N 580.893 1.08022 1.14757 0
M  V30 6357 C 581.803 0.718292 2.23333 0
M  V30 6358 C 582.819 -0.273477 1.71837 0
M  V30 6359 O 583.995 -0.118406 2.01052 0
M  V30 6360 C 581.06 0.128855 3.4646 0
M  V30 6361 C 580.121 1.17473 4.12915 0
M  V30 6362 C 579.354 0.61333 5.30164 0
M  V30 6363 O 579.577 -0.568458 5.6756 0
M  V30 6364 O 578.511 1.3615 5.86299 0
M  V30 6365 H 582.337 1.62394 2.56636 0
M  V30 6366 H 579.922 0.853628 1.22611 0
M  V30 6367 H 581.804 -0.197249 4.20938 0
M  V30 6368 H 580.479 -0.750014 3.14891 0
M  V30 6369 H 579.386 1.5533 3.40328 0
M  V30 6370 H 580.719 2.02574 4.48581 0
M  V30 6371 N 582.371 -1.3172 0.865308 0
M  V30 6372 C 583.318 -2.2863 0.315736 0
M  V30 6373 C 584.288 -1.55524 -0.583213 0
M  V30 6374 O 585.473 -1.83694 -0.51585 0
M  V30 6375 C 582.613 -3.41735 -0.480773 0
M  V30 6376 C 581.726 -4.297 0.445167 0
M  V30 6377 C 580.861 -5.29944 -0.365012 0
M  V30 6378 C 579.9 -6.09554 0.557651 0
M  V30 6379 N 579.037 -7.01768 -0.215994 0
M  V30 6380 H 583.877 -2.75026 1.14736 0
M  V30 6381 H 581.414 -1.35302 0.577209 0
M  V30 6382 H 583.372 -4.06045 -0.958306 0
M  V30 6383 H 582.002 -2.96461 -1.27714 0
M  V30 6384 H 581.054 -3.65875 1.04113 0
M  V30 6385 H 582.366 -4.85295 1.15284 0
M  V30 6386 H 581.52 -5.99908 -0.905255 0
M  V30 6387 H 580.259 -4.74994 -1.106 0
M  V30 6388 H 579.264 -5.38485 1.10969 0
M  V30 6389 H 580.489 -6.66591 1.29742 0
M  V30 6390 H 578.435 -6.49232 -0.939878 0
M  V30 6391 H 578.352 -7.54762 0.432431 0
M  V30 6392 H 579.62 -7.76002 -0.737618 0
M  V30 6393 N 583.85 -0.624285 -1.44708 0
M  V30 6394 C 584.779 0.0717025 -2.3339 0
M  V30 6395 C 585.76 0.841814 -1.47809 0
M  V30 6396 O 586.946 0.809056 -1.76544 0
M  V30 6397 C 584.076 1.05852 -3.30776 0
M  V30 6398 C 583.029 0.400503 -4.26122 0
M  V30 6399 C 582.356 1.49674 -5.13324 0
M  V30 6400 C 583.656 -0.688924 -5.17737 0
M  V30 6401 H 585.35 -0.668819 -2.91834 0
M  V30 6402 H 582.896 -0.32308 -1.40329 0
M  V30 6403 H 584.849 1.5541 -3.91696 0
M  V30 6404 H 583.572 1.82984 -2.70526 0
M  V30 6405 H 582.231 -0.0743687 -3.66525 0
M  V30 6406 H 581.88 2.25877 -4.49431 0
M  V30 6407 H 581.58 1.06188 -5.77926 0
M  V30 6408 H 583.104 1.99427 -5.77115 0
M  V30 6409 H 584.518 -0.276724 -5.72632 0
M  V30 6410 H 582.915 -1.04652 -5.90904 0
M  V30 6411 H 583.985 -1.55884 -4.5916 0
M  V30 6412 N 585.328 1.53329 -0.364422 0
M  V30 6413 C 586.258 2.28627 0.474543 0
M  V30 6414 C 587.239 1.31009 1.08492 0
M  V30 6415 O 588.424 1.59878 1.10239 0
M  V30 6416 C 585.554 3.07465 1.61501 0
M  V30 6417 C 584.508 4.1276 1.13194 0
M  V30 6418 C 583.834 4.79674 2.36255 0
M  V30 6419 C 585.134 5.21847 0.217507 0
M  V30 6420 H 586.828 2.99005 -0.153656 0
M  V30 6421 H 584.374 1.43803 -0.0753406 0
M  V30 6422 H 586.327 3.58889 2.20855 0
M  V30 6423 H 585.051 2.34775 2.27042 0
M  V30 6424 H 583.71 3.62281 0.56109 0
M  V30 6425 H 583.358 4.03557 3.00251 0
M  V30 6426 H 583.058 5.50827 2.04606 0
M  V30 6427 H 584.582 5.33892 2.96297 0
M  V30 6428 H 585.996 5.6878 0.718493 0
M  V30 6429 H 584.393 6.00099 -0.00806408 0
M  V30 6430 H 585.463 4.7921 -0.740653 0
M  V30 6431 N 586.806 0.0935595 1.57322 0
M  V30 6432 C 588.217 -0.435807 1.81542 0
M  V30 6433 C 588.568 -1.68263 1.00907 0
M  V30 6434 O 587.693 -2.15087 0.237983 0
M  V30 6435 C 588.288 -0.797436 3.29282 0
M  V30 6436 C 586.847 -1.27155 3.54272 0
M  V30 6437 C 585.994 -0.267455 2.76007 0
M  V30 6438 H 588.945 0.31902 1.5546 0
M  V30 6439 H 588.966 -1.6571 3.42521 0
M  V30 6440 H 588.478 0.110206 3.87943 0
M  V30 6441 H 586.579 -2.19696 3.00939 0
M  V30 6442 H 586.692 -1.23445 4.62923 0
M  V30 6443 H 585.056 -0.749282 2.43429 0
M  V30 6444 H 585.839 0.632839 3.37417 0
M  V30 6445 N 588.284 -1.56567 -0.180126 0
M  V30 6446 C 589.7 -1.50488 -0.531559 0
M  V30 6447 C 589.9 -0.796267 -1.851 0
M  V30 6448 O 588.956 -0.352978 -2.50021 0
M  V30 6449 C 590.269 -2.95201 -0.572456 0
M  V30 6450 C 591.817 -3.05957 -0.660264 0
M  V30 6451 C 592.292 -4.5211 -0.732135 0
M  V30 6452 N 593.783 -4.56322 -0.795262 0
M  V30 6453 C 594.518 -5.66742 -0.871296 0
M  V30 6454 N 594.014 -6.86815 -0.908708 0
M  V30 6455 N 595.807 -5.54691 -0.909639 0
M  V30 6456 H 587.958 -2.01045 0.685165 0
M  V30 6457 H 590.221 -0.915536 0.245962 0
M  V30 6458 H 589.927 -3.50165 0.328208 0
M  V30 6459 H 589.801 -3.49369 -1.422 0
M  V30 6460 H 592.188 -2.51032 -1.55136 0
M  V30 6461 H 592.269 -2.54888 0.215783 0
M  V30 6462 H 591.913 -5.07664 0.154664 0
M  V30 6463 H 591.843 -5.00926 -1.6242 0
M  V30 6464 H 594.334 -3.69868 -0.77499 0
M  V30 6465 H 594.647 -7.66718 -0.967654 0
M  V30 6466 H 592.992 -6.89443 -0.877132 0
M  V30 6467 H 596.183 -4.59804 -0.877353 0
M  V30 6468 H 596.356 -6.40768 -0.965434 0
M  V30 6469 N 589.762 0.448376 -1.51087 0
M  V30 6470 C 590.712 1.54156 -1.67988 0
M  V30 6471 C 591.696 1.5178 -0.534015 0
M  V30 6472 O 592.888 1.58419 -0.789448 0
M  V30 6473 C 590.017 2.92437 -1.79822 0
M  V30 6474 C 589.103 2.99611 -3.00157 0
M  V30 6475 N 589.494 2.7655 -4.23502 0
M  V30 6476 C 587.792 3.30764 -2.99184 0
M  V30 6477 C 588.493 2.89281 -5.0467 0
M  V30 6478 N 587.469 3.20473 -4.39088 0
M  V30 6479 H 591.271 1.35061 -2.61028 0
M  V30 6480 H 588.785 0.655504 -1.48583 0
M  V30 6481 H 590.782 3.71068 -1.90037 0
M  V30 6482 H 589.442 3.1256 -0.879554 0
M  V30 6483 H 590.453 2.5169 -4.52628 0
M  V30 6484 H 587.13 3.56732 -2.16907 0
M  V30 6485 H 588.52 2.75499 -6.12821 0
M  V30 6486 N 591.24 1.41047 0.703093 0
M  V30 6487 C 592.17 1.45067 1.82969 0
M  V30 6488 C 593.151 0.31016 1.67248 0
M  V30 6489 O 594.336 0.520548 1.87093 0
M  V30 6490 C 591.466 1.32478 3.2104 0
M  V30 6491 C 590.42 2.44262 3.51454 0
M  V30 6492 C 589.746 2.16742 4.88801 0
M  V30 6493 C 591.046 3.86606 3.51189 0
M  V30 6494 H 592.74 2.39353 1.79863 0
M  V30 6495 H 590.286 1.15206 0.863919 0
M  V30 6496 H 592.239 1.33904 3.99559 0
M  V30 6497 H 590.963 0.346735 3.24754 0
M  V30 6498 H 589.622 2.42107 2.75282 0
M  V30 6499 H 589.27 1.17299 4.89132 0
M  V30 6500 H 588.97 2.91643 5.10116 0
M  V30 6501 H 590.494 2.19872 5.69639 0
M  V30 6502 H 591.908 3.90517 4.19725 0
M  V30 6503 H 590.305 4.61128 3.84033 0
M  V30 6504 H 591.375 4.15296 2.50315 0
M  V30 6505 N 592.718 -0.936591 1.26751 0
M  V30 6506 C 593.628 -2.06949 1.10496 0
M  V30 6507 C 594.644 -1.7396 0.037271 0
M  V30 6508 O 595.82 -1.99941 0.241944 0
M  V30 6509 C 592.885 -3.38612 0.744491 0
M  V30 6510 C 591.946 -3.85355 1.89209 0
M  V30 6511 C 591.179 -5.10735 1.54873 0
M  V30 6512 O 591.402 -5.68602 0.452546 0
M  V30 6513 O 590.336 -5.52632 2.38499 0
M  V30 6514 H 594.162 -2.23571 2.05547 0
M  V30 6515 H 591.747 -1.05428 1.05855 0
M  V30 6516 H 593.629 -4.17711 0.556396 0
M  V30 6517 H 592.304 -3.23218 -0.176582 0
M  V30 6518 H 591.211 -3.07182 2.13518 0
M  V30 6519 H 592.544 -4.05277 2.79305 0
M  V30 6520 N 594.196 -1.08629 -1.14182 0
M  V30 6521 C 595.445 -0.812271 -1.84621 0
M  V30 6522 C 595.758 0.664313 -1.83973 0
M  V30 6523 O 596.964 1.05357 -2.50224 0
M  V30 6524 C 595.42 -1.4031 -3.31423 0
M  V30 6525 C 595.028 -2.91164 -3.40481 0
M  V30 6526 C 596.772 -1.20767 -4.06959 0
M  V30 6527 C 594.679 -3.43373 -4.81507 0
M  V30 6528 H 593.609 -0.30019 -0.691666 0
M  V30 6529 H 596.26 -1.30798 -1.28701 0
M  V30 6530 H 594.642 -0.835096 -3.87094 0
M  V30 6531 H 595.816 -3.5412 -2.94848 0
M  V30 6532 H 594.131 -3.09646 -2.78403 0
M  V30 6533 H 596.728 -1.57237 -5.11058 0
M  V30 6534 H 597.071 -0.147664 -4.16038 0
M  V30 6535 H 597.604 -1.74274 -3.57594 0
M  V30 6536 H 594.343 -4.48958 -4.77616 0
M  V30 6537 H 593.863 -2.85176 -5.27669 0
M  V30 6538 H 595.542 -3.40095 -5.50404 0
M  V30 6539 N 595.674 1.31259 -0.872281 0
M  V30 6540 C 596.923 1.95893 -0.480493 0
M  V30 6541 C 597.236 1.697 0.972688 0
M  V30 6542 O 598.442 2.28214 1.47073 0
M  V30 6543 C 596.898 3.50705 -0.808342 0
M  V30 6544 C 596.506 3.85735 -2.27844 0
M  V30 6545 C 598.25 4.21719 -0.485136 0
M  V30 6546 C 596.157 5.33668 -2.54858 0
M  V30 6547 H 595.087 0.733182 -0.175955 0
M  V30 6548 H 597.738 1.49396 -1.0655 0
M  V30 6549 H 596.12 3.95706 -0.152558 0
M  V30 6550 H 597.294 3.51686 -2.97748 0
M  V30 6551 H 595.609 3.27792 -2.56791 0
M  V30 6552 H 598.206 5.30559 -0.664166 0
M  V30 6553 H 598.549 4.12316 0.574592 0
M  V30 6554 H 599.082 3.82359 -1.09756 0
M  V30 6555 H 595.821 5.48109 -3.59523 0
M  V30 6556 H 595.341 5.69061 -1.8955 0
M  V30 6557 H 597.02 6.00958 -2.39706 0
M  V30 6558 N 597.152 0.631951 1.44375 0
M  V30 6559 C 598.382 0.143658 2.061 0
M  V30 6560 C 598.79 -1.18733 1.47306 0
M  V30 6561 O 598.133 -1.73943 0.590724 0
M  V30 6562 C 598.195 -0.0446102 3.59472 0
M  V30 6563 C 597.859 1.20835 4.40736 0
M  V30 6564 C 598.856 2.13224 4.74164 0
M  V30 6565 C 596.541 1.44399 4.81097 0
M  V30 6566 C 598.535 3.27487 5.46838 0
M  V30 6567 C 596.222 2.58959 5.53519 0
M  V30 6568 C 597.22 3.50329 5.86309 0
M  V30 6569 O 596.908 4.62891 6.57257 0
M  V30 6570 H 596.64 0.0772939 0.671567 0
M  V30 6571 H 599.194 0.866677 1.8622 0
M  V30 6572 H 597.424 -0.822783 3.77845 0
M  V30 6573 H 599.113 -0.487561 4.02961 0
M  V30 6574 H 599.879 1.96253 4.4352 0
M  V30 6575 H 595.758 0.741696 4.54994 0
M  V30 6576 H 599.302 3.98826 5.72349 0
M  V30 6577 H 595.199 2.75873 5.83579 0
M  V30 6578 H 595.967 4.61883 6.75726 0
M  V30 6579 N 598.631 -1.53133 0.372548 0
M  V30 6580 C 599.594 -2.24569 -0.458389 0
M  V30 6581 C 600.594 -1.25603 -1.00402 0
M  V30 6582 O 601.784 -1.49827 -0.888672 0
M  V30 6583 C 598.916 -2.98783 -1.6414 0
M  V30 6584 H 600.109 -2.99436 0.166799 0
M  V30 6585 H 597.662 -1.55805 0.124357 0
M  V30 6586 H 598.397 -2.28176 -2.30448 0
M  V30 6587 H 598.182 -3.71404 -1.25704 0
M  V30 6588 H 599.672 -3.53068 -2.23008 0
M  V30 6589 N 600.109 -0.101901 -1.5727 0
M  V30 6590 C 601.358 0.559922 -1.93772 0
M  V30 6591 C 601.671 1.68913 -0.98629 0
M  V30 6592 O 602.877 2.41256 -1.24529 0
M  V30 6593 C 601.333 1.04739 -3.44322 0
M  V30 6594 C 600.941 -0.05243 -4.47969 0
M  V30 6595 C 602.685 1.68157 -3.89774 0
M  V30 6596 C 600.592 0.450781 -5.8968 0
M  V30 6597 H 599.522 0.212931 -0.723309 0
M  V30 6598 H 602.173 -0.179001 -1.82625 0
M  V30 6599 H 600.555 1.84021 -3.50645 0
M  V30 6600 H 601.729 -0.828157 -4.53297 0
M  V30 6601 H 600.044 -0.592202 -4.12167 0
M  V30 6602 H 602.641 2.0689 -4.93052 0
M  V30 6603 H 602.984 2.55338 -3.28798 0
M  V30 6604 H 603.517 0.954453 -3.8618 0
M  V30 6605 H 600.256 -0.38458 -6.54371 0
M  V30 6606 H 599.776 1.19336 -5.87809 0
M  V30 6607 H 601.455 0.917555 -6.40461 0
M  V30 6608 N 601.587 1.56661 0.17182 0
M  V30 6609 C 602.535 1.97289 1.23207 0
M  V30 6610 C 603.529 0.861566 1.45854 0
M  V30 6611 O 604.735 1.04668 1.4644 0
M  V30 6612 H 601.11 0.627681 0.41415 0
M  V30 6613 H 603.081 2.85662 0.862542 0
M  V30 6614 C 601.83 2.34849 2.564 0
M  V30 6615 H 601.153 3.19903 2.39797 0
M  V30 6616 H 602.593 2.67121 3.29276 0
M  V30 6617 C 601.052 1.19172 3.15119 0
M  V30 6618 O 601.582 0.479113 3.98833 0
M  V30 6619 N 599.788 0.962415 2.74201 0
M  V30 6620 H 599.335 1.54365 2.06226 0
M  V30 6621 H 599.293 0.190272 3.13824 0
M  V30 6622 N 603.065 -0.440357 1.51323 0
M  V30 6623 C 603.997 -1.55254 1.68609 0
M  V30 6624 C 605.01 -1.52614 0.566812 0
M  V30 6625 O 606.199 -1.57445 0.841032 0
M  V30 6626 C 603.299 -2.94169 1.68279 0
M  V30 6627 C 602.472 -3.21346 2.96742 0
M  V30 6628 C 601.531 -4.3997 2.8864 0
M  V30 6629 O 600.557 -4.38771 3.62586 0
M  V30 6630 N 601.759 -5.43367 2.04285 0
M  V30 6631 H 604.524 -1.40831 2.6455 0
M  V30 6632 H 602.085 -0.629251 1.49171 0
M  V30 6633 H 604.077 -3.71543 1.60431 0
M  V30 6634 H 602.647 -3.02205 0.799441 0
M  V30 6635 H 601.867 -2.32299 3.18482 0
M  V30 6636 H 603.155 -3.3633 3.81785 0
M  V30 6637 H 602.553 -5.47176 1.43578 0
M  V30 6638 H 601.11 -6.19605 2.02318 0
M  V30 6639 N 604.543 -1.41418 -0.695603 0
M  V30 6640 C 605.959 -1.23887 -1.00619 0
M  V30 6641 C 606.159 -0.128206 -2.01092 0
M  V30 6642 O 605.215 0.507408 -2.47349 0
M  V30 6643 C 606.528 -2.58816 -1.53083 0
M  V30 6644 C 608.076 -2.65998 -1.64967 0
M  V30 6645 C 608.551 -4.01244 -2.20833 0
M  V30 6646 N 610.042 -4.0309 -2.28194 0
M  V30 6647 C 610.777 -5.04539 -2.72448 0
M  V30 6648 N 610.273 -6.16378 -3.16306 0
M  V30 6649 N 612.066 -4.91901 -2.72011 0
M  V30 6650 H 604.217 -2.12379 -0.0300061 0
M  V30 6651 H 606.48 -0.944958 -0.0758797 0
M  V30 6652 H 606.186 -3.40842 -0.867147 0
M  V30 6653 H 606.06 -2.81299 -2.51298 0
M  V30 6654 H 608.447 -1.84331 -2.30448 0
M  V30 6655 H 608.528 -2.47325 -0.652982 0
M  V30 6656 H 608.172 -4.83359 -1.55968 0
M  V30 6657 H 608.102 -4.17257 -3.21254 0
M  V30 6658 H 610.593 -3.22341 -1.97242 0
M  V30 6659 H 610.906 -6.89658 -3.487 0
M  V30 6660 H 609.251 -6.19914 -3.14215 0
M  V30 6661 H 612.442 -4.03613 -2.37095 0
M  V30 6662 H 612.615 -5.71102 -3.06181 0
M  V30 6663 N 606.021 0.929856 -1.27246 0
M  V30 6664 C 606.971 2.01629 -1.06442 0
M  V30 6665 C 607.955 1.60899 0.00687842 0
M  V30 6666 O 609.147 1.75733 -0.211407 0
M  V30 6667 C 606.276 3.35849 -0.711361 0
M  V30 6668 C 605.362 3.8303 -1.82069 0
M  V30 6669 N 605.753 4.02743 -3.05993 0
M  V30 6670 C 604.051 4.12046 -1.70687 0
M  V30 6671 C 604.752 4.42001 -3.78167 0
M  V30 6672 N 603.728 4.4935 -3.05918 0
M  V30 6673 H 607.53 2.14898 -2.00489 0
M  V30 6674 H 605.044 1.11654 -1.17929 0
M  V30 6675 H 607.041 4.13343 -0.543442 0
M  V30 6676 H 605.701 3.23944 0.221517 0
M  V30 6677 H 606.712 3.89112 -3.41778 0
M  V30 6678 H 603.389 4.08866 -0.844681 0
M  V30 6679 H 604.779 4.6535 -4.84664 0
M  V30 6680 N 607.499 1.09233 1.13605 0
M  V30 6681 C 608.429 0.751738 2.21068 0
M  V30 6682 C 609.41 -0.269688 1.67948 0
M  V30 6683 O 610.595 -0.13819 1.93708 0
M  V30 6684 C 607.725 0.16935 3.46887 0
M  V30 6685 C 606.679 1.12007 4.13084 0
M  V30 6686 C 606.005 0.399483 5.33206 0
M  V30 6687 C 607.305 2.46168 4.6065 0
M  V30 6688 H 608.999 1.65024 2.49815 0
M  V30 6689 H 606.545 0.794905 1.20072 0
M  V30 6690 H 608.498 -0.0809824 4.21322 0
M  V30 6691 H 607.222 -0.764335 3.1753 0
M  V30 6692 H 605.881 1.35564 3.40614 0
M  V30 6693 H 605.529 -0.538277 5.00112 0
M  V30 6694 H 605.229 1.03337 5.78442 0
M  V30 6695 H 606.753 0.157403 6.10397 0
M  V30 6696 H 608.167 2.26829 5.26518 0
M  V30 6697 H 606.564 3.05326 5.1662 0
M  V30 6698 H 607.634 3.07076 3.75276 0
M  V30 6699 N 608.977 -1.30795 0.87923 0
M  V30 6700 C 610.254 -1.91145 0.415086 0
M  V30 6701 C 610.634 -1.7995 -1.10368 0
M  V30 6702 O 609.982 -1.21305 -1.93642 0
M  V30 6703 C 610.192 -3.37014 0.906778 0
M  V30 6704 C 611.54 -4.14101 0.938358 0
M  V30 6705 O 612.564 -3.45834 0.853053 0
M  V30 6706 O 611.423 -5.36054 1.06342 0
M  V30 6707 H 608.517 -0.81736 0.125905 0
M  V30 6708 H 611.063 -1.39401 0.967753 0
M  V30 6709 H 609.835 -3.3922 1.95053 0
M  V30 6710 H 609.458 -3.96204 0.332948 0
M  V30 6711 N 610.455 -0.639598 -1.44038 0
M  V30 6712 C 611.405 0.0823038 -2.27851 0
M  V30 6713 C 612.389 0.807991 -1.39141 0
M  V30 6714 O 613.581 0.692702 -1.62882 0
M  V30 6715 C 610.71 1.05742 -3.26609 0
M  V30 6716 C 609.796 0.330911 -4.22807 0
M  V30 6717 N 610.187 -0.645126 -5.01669 0
M  V30 6718 C 608.485 0.574214 -4.42288 0
M  V30 6719 C 609.186 -1.07513 -5.71678 0
M  V30 6720 N 608.162 -0.412164 -5.42035 0
M  V30 6721 H 611.964 -0.666861 -2.86234 0
M  V30 6722 H 609.478 -0.465777 -1.55577 0
M  V30 6723 H 611.475 1.58927 -3.85419 0
M  V30 6724 H 610.135 1.80679 -2.69787 0
M  V30 6725 H 611.146 -1.02329 -5.0769 0
M  V30 6726 H 607.823 1.30581 -3.96554 0
M  V30 6727 H 609.213 -1.88196 -6.45005 0
M  V30 6728 N 611.933 1.52934 -0.380664 0
M  V30 6729 C 613.179 2.01765 0.20458 0
M  V30 6730 C 613.512 1.26696 1.47179 0
M  V30 6731 O 612.787 0.364936 1.91046 0
M  V30 6732 C 613.07 3.56869 0.481269 0
M  V30 6733 C 612.923 4.42617 -0.800629 0
M  V30 6734 C 614.242 4.2121 1.27554 0
M  V30 6735 H 611.361 0.733388 0.0728803 0
M  V30 6736 H 614.003 1.83068 -0.50853 0
M  V30 6737 H 612.153 3.72932 1.08875 0
M  V30 6738 H 613.825 4.38323 -1.43773 0
M  V30 6739 H 612.068 4.09977 -1.4178 0
M  V30 6740 H 612.739 5.49134 -0.561791 0
M  V30 6741 H 615.215 4.09072 0.761514 0
M  V30 6742 H 614.091 5.29732 1.43788 0
M  V30 6743 H 614.352 3.78269 2.28833 0
M  V30 6744 N 613.412 0.11024 1.57214 0
M  V30 6745 C 614.375 -0.828808 2.1369 0
M  V30 6746 C 615.375 -1.20059 1.06969 0
M  V30 6747 O 616.565 -1.12754 1.32786 0
M  V30 6748 C 613.697 -2.11959 2.66994 0
M  V30 6749 H 614.89 -0.338146 2.97988 0
M  V30 6750 H 612.443 -0.138913 1.55681 0
M  V30 6751 H 613.178 -2.65476 1.8626 0
M  V30 6752 H 612.963 -1.86258 3.45037 0
M  V30 6753 H 614.453 -2.79105 3.10629 0
M  V30 6754 N 614.89 -1.56749 -0.16351 0
M  V30 6755 C 615.853 -1.96121 -1.18613 0
M  V30 6756 C 616.853 -0.845765 -1.36761 0
M  V30 6757 O 618.043 -1.11268 -1.34033 0
M  V30 6758 C 615.175 -2.26282 -2.54969 0
M  V30 6759 H 616.368 -2.87639 -0.848764 0
M  V30 6760 H 613.921 -1.50928 -0.406251 0
M  V30 6761 H 614.656 -1.37504 -2.93706 0
M  V30 6762 H 614.441 -3.07595 -2.43162 0
M  V30 6763 H 615.931 -2.57638 -3.28653 0
M  V30 6764 N 616.368 0.432326 -1.51554 0
M  V30 6765 C 617.298 1.53242 -1.76179 0
M  V30 6766 C 618.279 1.58717 -0.611801 0
M  V30 6767 O 619.464 1.74364 -0.855033 0
M  V30 6768 C 616.594 2.91278 -1.89141 0
M  V30 6769 C 615.548 3.00663 -3.04608 0
M  V30 6770 C 614.874 4.40728 -3.02759 0
M  V30 6771 C 616.174 2.74281 -4.44485 0
M  V30 6772 H 617.868 1.32886 -2.68294 0
M  V30 6773 H 615.414 0.637841 -1.29103 0
M  V30 6774 H 617.367 3.68203 -2.04951 0
M  V30 6775 H 616.091 3.12877 -0.936785 0
M  V30 6776 H 614.75 2.26179 -2.88511 0
M  V30 6777 H 614.398 4.59301 -2.05065 0
M  V30 6778 H 614.098 4.47936 -3.80299 0
M  V30 6779 H 615.622 5.19619 -3.20669 0
M  V30 6780 H 617.036 3.40936 -4.60907 0
M  V30 6781 H 615.433 2.92893 -5.23769 0
M  V30 6782 H 616.503 1.69856 -4.54177 0
M  V30 6783 N 617.846 1.41785 0.688094 0
M  V30 6784 C 619.093 1.41544 1.44816 0
M  V30 6785 C 619.421 0.0271746 1.94481 0
M  V30 6786 O 618.676 -0.962235 1.7041 0
M  V30 6787 C 618.975 2.37532 2.67046 0
M  V30 6788 C 618.641 3.84209 2.35996 0
M  V30 6789 C 617.303 4.24165 2.27239 0
M  V30 6790 C 619.655 4.76785 2.10536 0
M  V30 6791 C 616.983 5.54695 1.91128 0
M  V30 6792 C 619.335 6.07644 1.75931 0
M  V30 6793 C 617.999 6.46613 1.65675 0
M  V30 6794 H 617.269 0.517945 0.529919 0
M  V30 6795 H 619.916 1.74635 0.785797 0
M  V30 6796 H 618.221 1.9772 3.38251 0
M  V30 6797 H 619.918 2.34615 3.25203 0
M  V30 6798 H 616.508 3.52567 2.4371 0
M  V30 6799 H 620.692 4.46714 2.16242 0
M  V30 6800 H 615.948 5.83762 1.81746 0
M  V30 6801 H 620.122 6.78874 1.55252 0
M  V30 6802 H 617.749 7.47668 1.37463 0
M  V30 6803 N 619.324 -0.923095 1.27737 0
M  V30 6804 C 620.735 -1.48626 1.12993 0
M  V30 6805 C 621.086 -1.94142 -0.283439 0
M  V30 6806 O 620.211 -1.81605 -1.17681 0
M  V30 6807 C 620.806 -2.70117 2.04505 0
M  V30 6808 C 619.365 -3.22642 1.93853 0
M  V30 6809 C 618.512 -1.95368 1.96791 0
M  V30 6810 H 621.463 -0.736737 1.40563 0
M  V30 6811 H 621.484 -3.4506 1.60356 0
M  V30 6812 H 620.996 -2.36959 3.07363 0
M  V30 6813 H 619.097 -3.60549 0.939968 0
M  V30 6814 H 619.21 -3.88525 2.80331 0
M  V30 6815 H 617.574 -2.12061 1.41076 0
M  V30 6816 H 618.357 -1.64517 3.01312 0
M  V30 6817 N 620.802 -1.09834 -1.13024 0
M  V30 6818 C 622.05 -0.835297 -1.8403 0
M  V30 6819 C 622.371 0.640944 -1.84165 0
M  V30 6820 O 621.641 1.46517 -1.30037 0
M  V30 6821 H 620.221 -0.306018 -0.681441 0
M  V30 6822 H 622.883 -1.38734 -1.36891 0
M  V30 6823 H 621.979 -1.19258 -2.88416 0
M  V30 6824 N 622.28 1.30327 -0.886154 0
M  V30 6825 C 623.557 1.90922 -0.425217 0
M  V30 6826 C 623.937 1.80533 1.09413 0
M  V30 6827 O 623.285 1.2233 1.92996 0
M  V30 6828 C 623.495 3.36529 -0.924638 0
M  V30 6829 C 624.843 4.13598 -0.960305 0
M  V30 6830 O 625.867 3.45377 -0.871382 0
M  V30 6831 O 624.726 5.35482 -1.09184 0
M  V30 6832 H 621.82 0.81668 -0.130238 0
M  V30 6833 H 624.366 1.38886 -0.975132 0
M  V30 6834 H 623.138 3.38181 -1.96849 0
M  V30 6835 H 622.761 3.96021 -0.353955 0
M  V30 6836 N 623.758 0.647228 1.43697 0
M  V30 6837 C 625.004 0.158422 2.0218 0
M  V30 6838 C 625.337 -1.22233 1.50907 0
M  V30 6839 O 624.612 -1.81478 0.699702 0
M  V30 6840 C 624.895 0.1627 3.59732 0
M  V30 6841 C 624.748 1.57694 4.21251 0
M  V30 6842 C 626.067 -0.504138 4.37203 0
M  V30 6843 H 623.186 0.059042 0.734631 0
M  V30 6844 H 625.828 0.826772 1.71069 0
M  V30 6845 H 623.978 -0.406414 3.86368 0
M  V30 6846 H 625.65 2.19618 4.05667 0
M  V30 6847 H 623.893 2.12603 3.7813 0
M  V30 6848 H 624.564 1.53183 5.3032 0
M  V30 6849 H 627.04 -0.0199841 4.16095 0
M  V30 6850 H 625.916 -0.470394 5.46881 0
M  V30 6851 H 626.177 -1.57726 4.13007 0
M  V30 6852 N 625.236 -1.5273 0.388769 0
M  V30 6853 C 626.513 -1.93981 -0.251133 0
M  V30 6854 C 626.893 -1.32418 -1.64404 0
M  V30 6855 O 626.241 -0.492074 -2.23139 0
M  V30 6856 C 626.451 -3.47891 -0.27802 0
M  V30 6857 C 627.799 -4.21559 -0.507229 0
M  V30 6858 O 628.823 -3.54394 -0.358252 0
M  V30 6859 O 627.682 -5.40626 -0.799094 0
M  V30 6860 H 624.776 -0.812157 -0.15598 0
M  V30 6861 H 627.322 -1.63809 0.443237 0
M  V30 6862 H 626.094 -3.8503 0.697669 0
M  V30 6863 H 625.717 -3.84364 -1.01733 0
M  V30 6864 N 626.714 -0.118576 -1.57153 0
M  V30 6865 C 628.13 0.238014 -1.57815 0
M  V30 6866 C 628.33 1.66747 -1.13127 0
M  V30 6867 O 627.386 2.38867 -0.818462 0
M  V30 6868 C 628.699 0.00508207 -3.007 0
M  V30 6869 C 630.247 0.0710139 -3.12919 0
M  V30 6870 C 630.722 -0.13422 -4.57803 0
M  V30 6871 N 632.213 -0.0801755 -4.63131 0
M  V30 6872 C 632.948 -0.213885 -5.73001 0
M  V30 6873 N 632.444 -0.403742 -6.91623 0
M  V30 6874 N 634.237 -0.15349 -5.6189 0
M  V30 6875 H 626.388 -1.05226 -1.84503 0
M  V30 6876 H 628.651 -0.414318 -0.852669 0
M  V30 6877 H 628.357 -0.983125 -3.3768 0
M  V30 6878 H 628.231 0.73714 -3.69927 0
M  V30 6879 H 630.618 1.04975 -2.75798 0
M  V30 6880 H 630.699 -0.692918 -2.46236 0
M  V30 6881 H 630.343 -1.10992 -4.95624 0
M  V30 6882 H 630.273 0.649692 -5.22577 0
M  V30 6883 H 632.764 0.0630689 -3.77847 0
M  V30 6884 H 633.077 -0.496645 -7.71202 0
M  V30 6885 H 631.422 -0.43971 -6.93608 0
M  V30 6886 H 634.613 -0.00613174 -4.681 0
M  V30 6887 H 634.786 -0.261138 -6.47474 0
M  V30 6888 N 628.193 1.56834 0.155195 0
M  V30 6889 C 629.123 2.00678 1.19376 0
M  V30 6890 C 630.104 0.884973 1.45266 0
M  V30 6891 O 631.289 1.1522 1.56326 0
M  V30 6892 C 628.419 2.38042 2.5289 0
M  V30 6893 C 627.373 3.53332 2.41538 0
M  V30 6894 C 626.699 3.76485 3.79688 0
M  V30 6895 C 627.999 4.86265 1.9064 0
M  V30 6896 H 629.693 2.87688 0.829232 0
M  V30 6897 H 627.239 1.38407 0.397445 0
M  V30 6898 H 629.192 2.67314 3.25763 0
M  V30 6899 H 627.916 1.4796 2.91162 0
M  V30 6900 H 626.575 3.24213 1.71117 0
M  V30 6901 H 626.223 2.83667 4.15382 0
M  V30 6902 H 625.923 4.54068 3.72956 0
M  V30 6903 H 627.447 4.08174 4.54122 0
M  V30 6904 H 628.861 5.14308 2.53299 0
M  V30 6905 H 627.258 5.67597 1.94818 0
M  V30 6906 H 628.328 4.77184 0.861596 0
M  V30 6907 N 629.671 -0.424282 1.51781 0
M  V30 6908 C 631.087 -0.761768 1.40247 0
M  V30 6909 C 631.287 -1.95324 0.495041 0
M  V30 6910 O 630.343 -2.5246 -0.0448949 0
M  V30 6911 C 631.656 -1.0299 2.82513 0
M  V30 6912 C 633.204 -1.13354 2.91753 0
M  V30 6913 C 633.679 -1.43453 4.34954 0
M  V30 6914 N 635.17 -1.5035 4.3812 0
M  V30 6915 C 635.905 -1.75236 5.45967 0
M  V30 6916 N 635.401 -1.97827 6.63955 0
M  V30 6917 N 637.194 -1.77126 5.33463 0
M  V30 6918 H 629.345 0.360228 2.09323 0
M  V30 6919 H 631.608 0.0988128 0.942836 0
M  V30 6920 H 631.314 -0.226961 3.50967 0
M  V30 6921 H 631.188 -1.95411 3.22637 0
M  V30 6922 H 633.575 -1.92709 2.23489 0
M  V30 6923 H 633.656 -0.188041 2.55108 0
M  V30 6924 H 633.3 -0.646209 5.03772 0
M  V30 6925 H 633.23 -2.3923 4.69123 0
M  V30 6926 H 635.721 -1.34742 3.53062 0
M  V30 6927 H 636.034 -2.16223 7.41935 0
M  V30 6928 H 634.379 -1.95123 6.67047 0
M  V30 6929 H 637.57 -1.59005 4.40267 0
M  V30 6930 H 637.743 -1.96182 6.17589 0
M  V30 6931 N 631.149 -1.42148 -0.680565 0
M  V30 6932 C 632.565 -1.24947 -0.992995 0
M  V30 6933 C 632.765 -0.149527 -2.00944 0
M  V30 6934 O 631.821 0.481145 -2.47873 0
M  V30 6935 C 633.134 -2.60426 -1.5033 0
M  V30 6936 C 634.682 -2.67733 -1.62137 0
M  V30 6937 C 635.157 -4.03564 -2.16565 0
M  V30 6938 N 636.648 -4.05488 -2.23905 0
M  V30 6939 C 637.383 -5.07401 -2.67081 0
M  V30 6940 N 636.879 -6.19698 -3.09751 0
M  V30 6941 N 638.672 -4.94758 -2.66778 0
M  V30 6942 H 630.823 -2.12399 -0.0074788 0
M  V30 6943 H 633.086 -0.94571 -0.0658529 0
M  V30 6944 H 632.792 -3.41743 -0.830947 0
M  V30 6945 H 632.666 -2.83949 -2.483 0
M  V30 6946 H 635.053 -1.86765 -2.2848 0
M  V30 6947 H 635.134 -2.48004 -0.626713 0
M  V30 6948 H 634.778 -4.84987 -1.50833 0
M  V30 6949 H 634.708 -4.20641 -3.1681 0
M  V30 6950 H 637.199 -3.24415 -1.93812 0
M  V30 6951 H 637.512 -6.93318 -3.41365 0
M  V30 6952 H 635.857 -6.23212 -3.07623 0
M  V30 6953 H 639.048 -4.06105 -2.32801 0
M  V30 6954 H 639.221 -5.74317 -3.00107 0
M  V30 6955 N 632.627 0.916307 -1.28225 0
M  V30 6956 C 633.56 2.01954 -1.06254 0
M  V30 6957 C 634.538 1.62587 0.0205983 0
M  V30 6958 O 635.722 1.88073 -0.126824 0
M  V30 6959 C 632.849 3.33086 -0.614141 0
M  V30 6960 C 631.895 3.91435 -1.69354 0
M  V30 6961 S 632.728 4.22603 -3.28887 0
M  V30 6962 C 633.884 5.568 -2.85876 0
M  V30 6963 H 634.117 2.20281 -1.99659 0
M  V30 6964 H 631.65 1.06085 -1.12184 0
M  V30 6965 H 633.608 4.089 -0.36213 0
M  V30 6966 H 632.269 3.12664 0.300036 0
M  V30 6967 H 631.462 4.86098 -1.33136 0
M  V30 6968 H 631.064 3.22248 -1.89821 0
M  V30 6969 H 633.356 6.3658 -2.31888 0
M  V30 6970 H 634.299 5.97927 -3.79326 0
M  V30 6971 H 634.707 5.17865 -2.24669 0
M  V30 6972 N 634.105 1.10431 1.1244 0
M  V30 6973 C 635.33 0.869089 1.88313 0
M  V30 6974 C 635.755 -0.574912 1.79099 0
M  V30 6975 O 635.113 -1.40496 1.14589 0
M  V30 6976 C 635.161 1.32208 3.3549 0
M  V30 6977 O 634.265 0.487092 4.09513 0
M  V30 6978 H 633.606 0.313894 0.585121 0
M  V30 6979 H 636.136 1.47111 1.42195 0
M  V30 6980 H 636.146 1.31201 3.86329 0
M  V30 6981 H 634.821 2.37364 3.41513 0
M  V30 6982 H 633.398 0.562372 3.68635 0
M  V30 6983 N 635.583 -1.29855 0.893053 0
M  V30 6984 C 636.829 -1.96116 0.516349 0
M  V30 6985 C 637.162 -1.70281 -0.933695 0
M  V30 6986 O 636.437 -1.01205 -1.66096 0
M  V30 6987 C 636.72 -3.51068 0.801455 0
M  V30 6988 C 636.573 -3.86387 2.30272 0
M  V30 6989 C 637.892 -4.39186 0.283423 0
M  V30 6990 H 635.011 -0.712335 0.189072 0
M  V30 6991 H 637.653 -1.53587 1.11852 0
M  V30 6992 H 635.803 -3.87424 0.288949 0
M  V30 6993 H 637.475 -3.60012 2.88425 0
M  V30 6994 H 635.718 -3.34167 2.76613 0
M  V30 6995 H 636.389 -4.94512 2.45279 0
M  V30 6996 H 638.865 -4.09785 0.722187 0
M  V30 6997 H 637.741 -5.46505 0.512169 0
M  V30 6998 H 638.002 -4.34511 -0.815643 0
M  V30 6999 N 637.061 -0.65484 -1.43351 0
M  V30 7000 C 638.31 -0.166215 -2.01014 0
M  V30 7001 C 638.623 1.22764 -1.52278 0
M  V30 7002 O 639.829 1.81156 -2.02224 0
M  V30 7003 C 638.285 -0.246341 -3.59056 0
M  V30 7004 C 637.893 -1.64299 -4.16785 0
M  V30 7005 C 639.637 0.184597 -4.24098 0
M  V30 7006 C 637.544 -1.67695 -5.67126 0
M  V30 7007 H 636.474 -0.0583769 -0.751737 0
M  V30 7008 H 639.125 -0.817111 -1.64303 0
M  V30 7009 H 637.507 0.472092 -3.93176 0
M  V30 7010 H 638.681 -2.3869 -3.94162 0
M  V30 7011 H 636.996 -2.02004 -3.6412 0
M  V30 7012 H 639.593 0.179088 -5.344 0
M  V30 7013 H 639.936 1.21632 -3.98135 0
M  V30 7014 H 640.469 -0.482141 -3.94867 0
M  V30 7015 H 637.208 -2.68783 -5.9786 0
M  V30 7016 H 636.728 -0.976313 -5.91801 0
M  V30 7017 H 638.407 -1.42142 -6.31193 0
M  V30 7018 N 638.539 1.52521 -0.396863 0
M  V30 7019 C 639.449 2.30403 0.44178 0
M  V30 7020 C 640.465 1.37625 1.06468 0
M  V30 7021 O 641.641 1.70697 1.06886 0
M  V30 7022 C 638.706 3.1013 1.54986 0
M  V30 7023 C 637.767 4.18628 0.951279 0
M  V30 7024 C 637 4.94543 2.00655 0
M  V30 7025 O 637.223 4.70629 3.22281 0
M  V30 7026 O 636.157 5.797 1.61962 0
M  V30 7027 H 639.983 3.03087 -0.192892 0
M  V30 7028 H 637.568 1.48537 -0.16038 0
M  V30 7029 H 639.45 3.59816 2.19341 0
M  V30 7030 H 638.125 2.40251 2.16935 0
M  V30 7031 H 637.032 3.73119 0.270773 0
M  V30 7032 H 638.365 4.90763 0.375887 0
M  V30 7033 N 640.017 0.126909 1.57088 0
M  V30 7034 C 640.927 -0.833867 2.1928 0
M  V30 7035 C 641.943 -1.2868 1.17122 0
M  V30 7036 O 643.119 -1.34815 1.49622 0
M  V30 7037 C 640.184 -2.0632 2.78627 0
M  V30 7038 C 639.245 -1.66143 3.95847 0
M  V30 7039 C 638.478 -2.83217 4.52354 0
M  V30 7040 O 638.701 -3.98868 4.0775 0
M  V30 7041 O 637.635 -2.59846 5.42922 0
M  V30 7042 H 641.461 -0.334564 3.01852 0
M  V30 7043 H 639.046 -0.0991091 1.49071 0
M  V30 7044 H 640.928 -2.78304 3.16425 0
M  V30 7045 H 639.603 -2.55242 1.99082 0
M  V30 7046 H 638.51 -0.912435 3.62802 0
M  V30 7047 H 639.843 -1.21957 4.76852 0
M  V30 7048 N 641.495 -1.56914 -0.146875 0
M  V30 7049 C 642.743 -1.82994 -0.85777 0
M  V30 7050 C 643.064 -0.707814 -1.817 0
M  V30 7051 O 642.334 0.270521 -1.94023 0
M  V30 7052 H 640.914 -0.675106 -0.319751 0
M  V30 7053 H 643.576 -1.9439 -0.140849 0
M  V30 7054 H 642.672 -2.77928 -1.41994 0
M  V30 7055 N 642.974 0.416227 -1.52004 0
M  V30 7056 C 644.251 1.17637 -1.56272 0
M  V30 7057 C 644.631 2.08352 -0.339493 0
M  V30 7058 O 643.979 2.1833 0.674124 0
M  V30 7059 C 644.189 1.95986 -2.88774 0
M  V30 7060 C 645.537 2.52299 -3.41512 0
M  V30 7061 O 646.561 2.06174 -2.90467 0
M  V30 7062 O 645.42 3.3648 -4.30631 0
M  V30 7063 H 642.514 0.536726 -0.629169 0
M  V30 7064 H 645.06 0.423583 -1.64329 0
M  V30 7065 H 643.832 1.29487 -3.69254 0
M  V30 7066 H 643.455 2.78285 -2.83978 0
M  V30 7067 N 644.452 1.42507 0.673017 0
M  V30 7068 C 645.692 1.44559 1.44507 0
M  V30 7069 C 646.056 0.0606206 1.91904 0
M  V30 7070 O 647.257 -0.044139 2.68764 0
M  V30 7071 C 645.528 2.44291 2.60877 0
M  V30 7072 S 647.087 2.65059 3.49699 0
M  V30 7073 H 643.905 0.51181 0.49353 0
M  V30 7074 H 646.507 1.79124 0.783256 0
M  V30 7075 H 645.211 3.43685 2.24297 0
M  V30 7076 H 644.742 2.11157 3.31928 0
M  V30 7077 H 646.757 1.93494 4.56919 0
M  V30 7078 N 645.93 -0.909495 1.28709 0
M  V30 7079 C 646.877 -2.01245 1.13 0
M  V30 7080 C 647.847 -1.6608 0.0259684 0
M  V30 7081 O 649.032 -1.89835 0.191687 0
M  V30 7082 C 646.172 -3.35644 0.802315 0
M  V30 7083 C 645.285 -3.83653 1.98582 0
M  V30 7084 C 644.42 -5.06582 1.59837 0
M  V30 7085 C 643.459 -5.46934 2.74827 0
M  V30 7086 N 642.596 -6.61053 2.36546 0
M  V30 7087 H 647.436 -2.14013 2.0737 0
M  V30 7088 H 644.973 -1.0482 1.03205 0
M  V30 7089 H 646.931 -4.12963 0.593057 0
M  V30 7090 H 645.561 -3.22631 -0.104457 0
M  V30 7091 H 644.613 -3.02454 2.30708 0
M  V30 7092 H 645.925 -4.09515 2.84779 0
M  V30 7093 H 645.079 -5.91457 1.35143 0
M  V30 7094 H 643.818 -4.82537 0.707753 0
M  V30 7095 H 642.823 -4.60599 3.00215 0
M  V30 7096 H 644.048 -5.72965 3.64538 0
M  V30 7097 H 641.994 -6.3863 1.49959 0
M  V30 7098 H 641.911 -6.86662 3.16277 0
M  V30 7099 H 643.179 -7.49221 2.15146 0
M  V30 7100 N 647.408 -1.11026 -1.11852 0
M  V30 7101 C 648.824 -0.843294 -1.35502 0
M  V30 7102 C 649.024 0.534179 -1.9429 0
M  V30 7103 O 648.08 1.28585 -2.17307 0
M  V30 7104 C 649.393 -1.94793 -2.29077 0
M  V30 7105 C 650.941 -1.97709 -2.42652 0
M  V30 7106 C 651.416 -3.07364 -3.39546 0
M  V30 7107 N 652.907 -3.0671 -3.47107 0
M  V30 7108 C 653.642 -3.88197 -4.22008 0
M  V30 7109 N 653.138 -4.79635 -4.99922 0
M  V30 7110 N 654.931 -3.76391 -4.17476 0
M  V30 7111 H 647.082 -1.99805 -0.720538 0
M  V30 7112 H 649.345 -0.868633 -0.379711 0
M  V30 7113 H 649.051 -2.93971 -1.93065 0
M  V30 7114 H 648.925 -1.84039 -3.29256 0
M  V30 7115 H 651.312 -0.991604 -2.77941 0
M  V30 7116 H 651.393 -2.1254 -1.4234 0
M  V30 7117 H 651.037 -4.06136 -3.04985 0
M  V30 7118 H 650.967 -2.89774 -4.39703 0
M  V30 7119 H 653.458 -2.40457 -2.91528 0
M  V30 7120 H 653.771 -5.38357 -5.54429 0
M  V30 7121 H 652.116 -4.8366 -4.99097 0
M  V30 7122 H 655.307 -3.04303 -3.55693 0
M  V30 7123 H 655.48 -4.40131 -4.75593 0
M  V30 7124 N 648.886 1.2938 -0.899927 0
M  V30 7125 C 650.135 1.9483 -0.521937 0
M  V30 7126 C 650.448 1.71725 0.936473 0
M  V30 7127 O 651.654 2.31282 1.42199 0
M  V30 7128 C 650.11 3.48911 -0.88255 0
M  V30 7129 C 649.718 3.80815 -2.35974 0
M  V30 7130 C 651.462 4.20595 -0.57448 0
M  V30 7131 C 649.369 5.28142 -2.66121 0
M  V30 7132 H 648.299 0.729285 -0.191468 0
M  V30 7133 H 650.95 1.47103 -1.09695 0
M  V30 7134 H 649.332 3.95293 -0.236459 0
M  V30 7135 H 650.506 3.45291 -3.05141 0
M  V30 7136 H 648.821 3.22271 -2.63686 0
M  V30 7137 H 651.418 5.29031 -0.776556 0
M  V30 7138 H 651.761 4.13442 0.487005 0
M  V30 7139 H 652.294 3.79945 -1.17842 0
M  V30 7140 H 649.033 5.4036 -3.71068 0
M  V30 7141 H 648.553 5.64913 -2.01578 0
M  V30 7142 H 650.232 5.95738 -2.52399 0
M  V30 7143 N 650.364 0.662433 1.43002 0
M  V30 7144 C 651.312 -0.035345 2.32573 0
M  V30 7145 C 652.306 -0.803505 1.49131 0
M  V30 7146 O 653.512 -0.712865 1.65282 0
M  V30 7147 H 649.887 -0.0302194 0.751393 0
M  V30 7148 H 651.858 0.737686 2.89138 0
M  V30 7149 C 650.607 -0.981575 3.33557 0
M  V30 7150 H 649.93 -0.399914 3.97795 0
M  V30 7151 H 651.37 -1.43873 3.98844 0
M  V30 7152 C 649.829 -2.08204 2.64863 0
M  V30 7153 O 650.359 -3.16698 2.47113 0
M  V30 7154 N 648.565 -1.85022 2.24088 0
M  V30 7155 H 648.112 -0.967909 2.38724 0
M  V30 7156 H 648.07 -2.58845 1.78457 0
M  V30 7157 N 651.842 -1.52309 0.404946 0
M  V30 7158 C 652.775 -2.23369 -0.467087 0
M  V30 7159 C 653.753 -1.24034 -1.0514 0
M  V30 7160 O 654.937 -1.53071 -1.10006 0
M  V30 7161 C 652.064 -2.95906 -1.64795 0
M  V30 7162 C 651.11 -4.09637 -1.18743 0
M  V30 7163 S 651.943 -5.35273 -0.156022 0
M  V30 7164 C 653.099 -6.11337 -1.34231 0
M  V30 7165 H 653.332 -2.96987 0.136294 0
M  V30 7166 H 650.865 -1.53236 0.189219 0
M  V30 7167 H 652.823 -3.38304 -2.3251 0
M  V30 7168 H 651.484 -2.21937 -2.22267 0
M  V30 7169 H 650.677 -4.59549 -2.06955 0
M  V30 7170 H 650.279 -3.69333 -0.588981 0
M  V30 7171 H 652.571 -6.38458 -2.26665 0
M  V30 7172 H 653.514 -7.02563 -0.883804 0
M  V30 7173 H 653.922 -5.42338 -1.56621 0
M  V30 7174 N 653.32 -0.135238 -1.57019 0
M  V30 7175 C 654.283 0.794707 -2.14981 0
M  V30 7176 C 655.283 1.18342 -1.08866 0
M  V30 7177 O 656.473 1.10627 -1.34563 0
M  V30 7178 C 653.605 2.07685 -2.70333 0
M  V30 7179 H 654.798 0.290696 -2.98488 0
M  V30 7180 H 652.351 0.114128 -1.55883 0
M  V30 7181 H 653.086 2.6248 -1.9046 0
M  V30 7182 H 652.871 1.80745 -3.47957 0
M  V30 7183 H 654.361 2.74127 -3.1503 0
M  V30 7184 N 654.798 1.5699 0.138552 0
M  V30 7185 C 655.748 1.9532 1.17619 0
M  V30 7186 C 656.732 0.825545 1.38107 0
M  V30 7187 O 657.924 1.08908 1.39528 0
M  V30 7188 C 655.053 2.34451 2.50774 0
M  V30 7189 C 654.139 3.53805 2.33844 0
M  V30 7190 N 654.53 4.70088 1.86685 0
M  V30 7191 C 652.828 3.59055 2.64567 0
M  V30 7192 C 653.529 5.52165 1.82998 0
M  V30 7193 N 652.505 4.94108 2.26624 0
M  V30 7194 H 656.307 2.82694 0.803809 0
M  V30 7195 H 653.821 1.5866 0.346519 0
M  V30 7196 H 655.818 2.60119 3.25797 0
M  V30 7197 H 654.478 1.48431 2.88788 0
M  V30 7198 H 655.489 4.93681 1.56523 0
M  V30 7199 H 652.166 2.83596 3.06398 0
M  V30 7200 H 653.556 6.55407 1.47957 0
M  V30 7201 N 656.276 -0.40816 1.52223 0
M  V30 7202 C 657.206 -1.5042 1.78595 0
M  V30 7203 C 658.187 -1.57723 0.636974 0
M  V30 7204 O 659.372 -1.72982 0.882664 0
M  V30 7205 C 656.502 -2.88232 1.93751 0
M  V30 7206 C 655.456 -2.95779 3.09352 0
M  V30 7207 C 654.782 -4.35855 3.09732 0
M  V30 7208 C 656.082 -2.67175 4.48793 0
M  V30 7209 H 657.776 -1.28601 2.70374 0
M  V30 7210 H 655.322 -0.617221 1.30101 0
M  V30 7211 H 657.275 -3.64895 2.10783 0
M  V30 7212 H 655.999 -3.11347 0.986443 0
M  V30 7213 H 654.658 -2.21561 2.92072 0
M  V30 7214 H 654.306 -4.55981 2.12346 0
M  V30 7215 H 654.006 -4.41829 3.87377 0
M  V30 7216 H 655.53 -5.14451 3.28895 0
M  V30 7217 H 656.944 -3.3356 4.66273 0
M  V30 7218 H 655.341 -2.84523 5.28362 0
M  V30 7219 H 656.411 -1.62609 4.56822 0
M  V30 7220 N 657.755 -1.42862 -0.66545 0
M  V30 7221 C 658.995 -1.45323 -1.43738 0
M  V30 7222 C 659.359 -0.0707969 -1.91869 0
M  V30 7223 O 660.56 0.0298852 -2.68783 0
M  V30 7224 C 658.831 -2.45671 -2.59577 0
M  V30 7225 S 660.39 -2.6691 -3.48288 0
M  V30 7226 H 657.208 -0.51442 -0.490809 0
M  V30 7227 H 659.81 -1.79537 -0.773745 0
M  V30 7228 H 658.514 -3.44869 -2.22471 0
M  V30 7229 H 658.045 -2.12914 -3.30804 0
M  V30 7230 H 660.06 -1.95914 -4.55886 0
M  V30 7231 N 659.233 0.902656 -1.29189 0
M  V30 7232 C 660.479 1.65532 -1.17163 0
M  V30 7233 C 660.812 1.92216 0.276879 0
M  V30 7234 O 660.087 1.53048 1.20027 0
M  V30 7235 C 660.37 3.00629 -1.98228 0
M  V30 7236 C 660.223 2.81029 -3.51202 0
M  V30 7237 C 661.542 4.01321 -1.80635 0
M  V30 7238 H 658.661 0.60071 -0.426985 0
M  V30 7239 H 661.303 1.04578 -1.5863 0
M  V30 7240 H 659.453 3.52656 -1.62991 0
M  V30 7241 H 661.125 2.35927 -3.96404 0
M  V30 7242 H 659.368 2.1587 -3.76275 0
M  V30 7243 H 660.039 3.77014 -4.03192 0
M  V30 7244 H 662.515 3.58394 -2.11406 0
M  V30 7245 H 661.391 4.93792 -2.3971 0
M  V30 7246 H 661.652 4.35505 -0.760754 0
M  V30 7247 N 660.711 1.11618 1.11262 0
M  V30 7248 C 661.96 0.860934 1.82403 0
M  V30 7249 C 662.273 -0.615303 1.8567 0
M  V30 7250 O 663.479 -0.986861 2.52929 0
M  V30 7251 C 661.935 1.49048 3.27586 0
M  V30 7252 C 661.543 3.00089 3.32642 0
M  V30 7253 C 663.287 1.31515 4.03614 0
M  V30 7254 C 661.194 3.56019 4.72234 0
M  V30 7255 H 660.124 0.318423 0.683464 0
M  V30 7256 H 662.775 1.34165 1.25188 0
M  V30 7257 H 661.157 0.937434 3.84744 0
M  V30 7258 H 662.331 3.61813 2.85356 0
M  V30 7259 H 660.646 3.16919 2.70096 0
M  V30 7260 H 663.243 1.70732 5.0671 0
M  V30 7261 H 663.586 0.257917 4.155 0
M  V30 7262 H 664.119 1.83694 3.52848 0
M  V30 7263 H 660.858 4.61463 4.65545 0
M  V30 7264 H 660.378 2.99066 5.19923 0
M  V30 7265 H 662.057 3.54568 5.41193 0
M  V30 7266 N 662.189 -1.289 0.906776 0
M  V30 7267 C 663.437 -1.94883 0.535266 0
M  V30 7268 C 663.758 -1.71784 -0.922791 0
M  V30 7269 O 663.028 -1.05359 -1.65156 0
M  V30 7270 H 661.608 -0.721109 0.194962 0
M  V30 7271 H 664.27 -1.57018 1.15461 0
M  V30 7272 H 663.366 -3.03591 0.723821 0
M  V30 7273 N 663.667 -0.670007 -1.42649 0
M  V30 7274 C 664.892 -0.196955 -2.06463 0
M  V30 7275 C 665.317 1.1352 -1.49983 0
M  V30 7276 O 664.675 1.705 -0.616397 0
M  V30 7277 C 664.723 -0.137381 -3.60338 0
M  V30 7278 O 663.827 0.895523 -4.02559 0
M  V30 7279 H 663.168 -0.102579 -0.656029 0
M  V30 7280 H 665.698 -0.917669 -1.82866 0
M  V30 7281 H 665.708 0.0403625 -4.0798 0
M  V30 7282 H 664.383 -1.10977 -4.0082 0
M  V30 7283 H 662.96 0.689209 -3.66476 0
M  V30 7284 N 665.145 1.52092 -0.413018 0
M  V30 7285 C 666.095 2.23947 0.427993 0
M  V30 7286 C 667.079 1.25229 1.01027 0
M  V30 7287 O 668.271 1.50448 0.932444 0
M  V30 7288 C 665.4 3.0672 1.542 0
M  V30 7289 C 664.486 4.12851 0.970307 0
M  V30 7290 N 664.877 5.05644 0.125611 0
M  V30 7291 C 663.175 4.28404 1.24042 0
M  V30 7292 C 663.876 5.8138 -0.192876 0
M  V30 7293 N 662.852 5.41996 0.417273 0
M  V30 7294 H 666.654 2.93048 -0.223628 0
M  V30 7295 H 664.168 1.60852 -0.223664 0
M  V30 7296 H 666.165 3.56754 2.15714 0
M  V30 7297 H 664.825 2.39159 2.19621 0
M  V30 7298 H 665.836 5.17348 -0.238995 0
M  V30 7299 H 662.513 3.72071 1.89391 0
M  V30 7300 H 663.903 6.66129 -0.878762 0
M  V30 7301 N 666.623 0.143563 1.56945 0
M  V30 7302 C 667.586 -0.783295 2.154 0
M  V30 7303 C 668.586 -1.17763 1.09492 0
M  V30 7304 O 669.776 -1.09912 1.35148 0
M  V30 7305 C 666.908 -2.06248 2.7143 0
M  V30 7306 H 668.101 -0.274863 2.98638 0
M  V30 7307 H 665.654 -0.105859 1.55941 0
M  V30 7308 H 666.389 -2.61466 1.91849 0
M  V30 7309 H 666.174 -1.78897 3.4891 0
M  V30 7310 H 667.664 -2.72453 3.16479 0
M  V30 7311 N 668.101 -1.57061 -0.130224 0
M  V30 7312 C 669.347 -1.8453 -0.841216 0
M  V30 7313 C 669.68 -0.727666 -1.80052 0
M  V30 7314 O 668.955 0.267419 -1.92653 0
M  V30 7315 C 669.238 -3.22553 -1.60099 0
M  V30 7316 C 669.091 -4.44901 -0.662048 0
M  V30 7317 C 670.41 -3.58003 -2.55973 0
M  V30 7318 H 667.529 -0.671215 -0.304366 0
M  V30 7319 H 670.171 -1.89705 -0.105821 0
M  V30 7320 H 668.321 -3.18272 -2.22789 0
M  V30 7321 H 669.993 -4.61278 -0.0448559 0
M  V30 7322 H 668.236 -4.33791 0.0272253 0
M  V30 7323 H 668.907 -5.3812 -1.23006 0
M  V30 7324 H 671.383 -3.63002 -2.03393 0
M  V30 7325 H 670.259 -4.55576 -3.06172 0
M  V30 7326 H 670.52 -2.84833 -3.38116 0
M  V30 7327 N 669.579 0.400081 -1.52437 0
M  V30 7328 C 670.527 1.50851 -1.7705 0
M  V30 7329 C 671.521 1.56928 -0.637969 0
M  V30 7330 O 672.727 1.60226 -0.820212 0
M  V30 7331 H 669.102 0.50186 -0.560036 0
M  V30 7332 H 671.073 1.27281 -2.69893 0
M  V30 7333 C 669.822 2.88117 -1.94638 0
M  V30 7334 H 669.145 2.84187 -2.81208 0
M  V30 7335 H 670.585 3.64942 -2.15855 0
M  V30 7336 C 669.044 3.29206 -0.715899 0
M  V30 7337 O 669.574 4.01544 0.111944 0
M  V30 7338 N 667.78 2.85363 -0.549191 0
M  V30 7339 H 667.327 2.26664 -1.22397 0
M  V30 7340 H 667.285 3.13214 0.27278 0
M  V30 7341 N 671.057 1.43213 0.657864 0
M  V30 7342 C 672.305 1.44298 1.41501 0
M  V30 7343 C 672.626 0.0666478 1.94886 0
M  V30 7344 O 671.896 -0.897345 1.74139 0
M  V30 7345 H 670.476 0.531257 0.525143 0
M  V30 7346 H 673.138 1.78777 0.776195 0
M  V30 7347 H 672.234 2.1528 2.25966 0
M  V30 7348 N 672.536 -0.895792 1.29666 0
M  V30 7349 C 673.782 -1.64908 1.18039 0
M  V30 7350 C 674.115 -1.9236 -0.266682 0
M  V30 7351 O 673.39 -1.53682 -1.19214 0
M  V30 7352 C 673.673 -2.99574 1.99819 0
M  V30 7353 C 673.526 -2.79163 3.52687 0
M  V30 7354 C 674.845 -4.00358 1.82761 0
M  V30 7355 H 671.964 -0.598437 0.430165 0
M  V30 7356 H 674.606 -1.03736 1.59182 0
M  V30 7357 H 672.756 -3.51786 1.64859 0
M  V30 7358 H 674.428 -2.33821 3.9765 0
M  V30 7359 H 672.671 -2.13871 3.77414 0
M  V30 7360 H 673.342 -3.74871 4.05186 0
M  V30 7361 H 675.818 -3.57268 2.13304 0
M  V30 7362 H 674.694 -4.92514 2.42325 0
M  V30 7363 H 674.955 -4.35096 0.783839 0
M  V30 7364 N 674.014 -1.12206 -1.10668 0
M  V30 7365 C 674.977 -0.790867 -2.15123 0
M  V30 7366 C 675.977 0.193618 -1.5963 0
M  V30 7367 O 677.167 -0.0318728 -1.74171 0
M  V30 7368 C 674.299 -0.174797 -3.40452 0
M  V30 7369 H 675.492 -1.7163 -2.45933 0
M  V30 7370 H 673.045 -0.924993 -1.2599 0
M  V30 7371 H 673.78 0.760478 -3.15257 0
M  V30 7372 H 673.565 -0.88358 -3.82015 0
M  V30 7373 H 675.055 0.0405162 -4.1758 0
M  V30 7374 N 675.492 1.28418 -0.913599 0
M  V30 7375 C 676.908 1.47411 -0.611728 0
M  V30 7376 C 677.108 1.83018 0.843008 0
M  V30 7377 O 676.164 1.93505 1.6221 0
M  V30 7378 C 677.477 2.57703 -1.5495 0
M  V30 7379 C 679.025 2.71572 -1.5562 0
M  V30 7380 C 679.5 3.85008 -2.48058 0
M  V30 7381 N 680.991 3.92361 -2.46184 0
M  V30 7382 C 681.726 4.79516 -3.14407 0
M  V30 7383 N 681.222 5.71262 -3.91958 0
M  V30 7384 N 683.015 4.73125 -3.03495 0
M  V30 7385 H 675.166 1.03585 -1.85429 0
M  V30 7386 H 677.429 0.515907 -0.795326 0
M  V30 7387 H 677.135 2.38298 -2.58663 0
M  V30 7388 H 677.009 3.54801 -1.28048 0
M  V30 7389 H 679.396 2.90366 -0.526441 0
M  V30 7390 H 679.477 1.75006 -1.86565 0
M  V30 7391 H 679.121 3.66969 -3.51136 0
M  V30 7392 H 679.051 4.80971 -2.14416 0
M  V30 7393 H 681.542 3.26749 -1.89851 0
M  V30 7394 H 681.855 6.34593 -4.41034 0
M  V30 7395 H 680.2 5.71103 -3.96063 0
M  V30 7396 H 683.391 4.00442 -2.42413 0
M  V30 7397 H 683.564 5.40834 -3.56935 0
M  V30 7398 N 676.97 0.677563 1.42291 0
M  V30 7399 C 678.219 0.198173 2.00724 0
M  V30 7400 C 678.532 -1.20325 1.54211 0
M  V30 7401 O 679.738 -1.77916 2.05081 0
M  V30 7402 C 678.194 0.303432 3.58619 0
M  V30 7403 C 677.802 1.70909 4.14119 0
M  V30 7404 C 679.546 -0.117103 4.24338 0
M  V30 7405 C 677.453 1.76696 5.64387 0
M  V30 7406 H 676.383 0.070329 0.750713 0
M  V30 7407 H 679.034 0.843147 1.62982 0
M  V30 7408 H 677.416 -0.409482 3.93877 0
M  V30 7409 H 678.59 2.44931 3.90315 0
M  V30 7410 H 676.905 2.07771 3.6086 0
M  V30 7411 H 679.502 -0.0940471 5.34617 0
M  V30 7412 H 679.845 -1.15283 4.00019 0
M  V30 7413 H 680.378 0.5449 3.9405 0
M  V30 7414 H 677.117 2.7826 5.93508 0
M  V30 7415 H 676.637 1.07034 5.90173 0
M  V30 7416 H 678.316 1.52166 6.28852 0
M  V30 7417 N 678.448 -1.51871 0.421078 0
M  V30 7418 C 679.398 -2.24171 -0.416111 0
M  V30 7419 C 680.382 -1.25763 -1.00362 0
M  V30 7420 O 681.574 -1.5094 -0.924452 0
M  V30 7421 C 678.703 -3.07533 -1.52571 0
M  V30 7422 C 677.789 -4.1336 -0.948399 0
M  V30 7423 N 678.18 -5.05704 -0.0987933 0
M  V30 7424 C 676.478 -4.29055 -1.21768 0
M  V30 7425 C 677.179 -5.8127 0.223705 0
M  V30 7426 N 676.155 -5.4221 -0.388524 0
M  V30 7427 H 679.957 -2.92925 0.239166 0
M  V30 7428 H 677.471 -1.60732 0.232191 0
M  V30 7429 H 679.468 -3.57893 -2.13819 0
M  V30 7430 H 678.128 -2.4032 -2.18349 0
M  V30 7431 H 679.139 -5.17214 0.266428 0
M  V30 7432 H 675.816 -3.73071 -1.87416 0
M  V30 7433 H 677.206 -6.65653 0.914076 0
M  V30 7434 N 679.926 -0.151884 -1.56866 0
M  V30 7435 C 681.151 0.508044 -2.01081 0
M  V30 7436 C 681.576 1.57306 -1.03134 0
M  V30 7437 O 680.934 1.81298 -0.0078309 0
M  V30 7438 C 680.982 1.08106 -3.44014 0
M  V30 7439 O 680.086 2.19577 -3.49084 0
M  V30 7440 H 679.427 0.123757 -0.652365 0
M  V30 7441 H 681.957 -0.250055 -2.03066 0
M  V30 7442 H 681.967 1.40851 -3.82916 0
M  V30 7443 H 680.642 0.301168 -4.14808 0
M  V30 7444 H 679.219 1.88023 -3.22027 0
M  V30 7445 N 681.404 1.57128 0.121893 0
M  V30 7446 C 682.314 2.03425 1.16857 0
M  V30 7447 C 683.33 0.954108 1.45509 0
M  V30 7448 O 684.506 1.26541 1.56682 0
M  V30 7449 C 681.571 2.42685 2.47599 0
M  V30 7450 C 680.632 3.64767 2.2637 0
M  V30 7451 C 679.865 4.02145 3.50878 0
M  V30 7452 O 680.088 3.39897 4.58068 0
M  V30 7453 O 679.022 4.95262 3.42051 0
M  V30 7454 H 682.848 2.92825 0.80544 0
M  V30 7455 H 680.433 1.45654 0.332477 0
M  V30 7456 H 682.315 2.68684 3.24634 0
M  V30 7457 H 680.99 1.56432 2.83392 0
M  V30 7458 H 679.897 3.43922 1.47203 0
M  V30 7459 H 681.23 4.51716 1.95482 0
M  V30 7460 N 682.882 -0.391992 1.52647 0
M  V30 7461 C 684.131 -1.13449 1.6677 0
M  V30 7462 C 684.444 -1.91203 0.412399 0
M  V30 7463 O 685.65 -2.68013 0.433707 0
M  V30 7464 C 684.106 -2.06577 2.9471 0
M  V30 7465 C 683.714 -1.3426 4.27409 0
M  V30 7466 C 685.458 -2.80981 3.18198 0
M  V30 7467 C 683.365 -2.26136 5.46458 0
M  V30 7468 H 682.295 -0.427211 0.621295 0
M  V30 7469 H 684.946 -0.397522 1.79142 0
M  V30 7470 H 683.328 -2.83898 2.76076 0
M  V30 7471 H 684.502 -0.621856 4.56585 0
M  V30 7472 H 682.817 -0.718279 4.10158 0
M  V30 7473 H 685.414 -3.49898 4.04321 0
M  V30 7474 H 685.757 -3.44891 2.33144 0
M  V30 7475 H 686.29 -2.10754 3.37383 0
M  V30 7476 H 683.029 -1.66846 6.33911 0
M  V30 7477 H 682.549 -2.96134 5.21598 0
M  V30 7478 H 684.228 -2.86286 5.80215 0
M  V30 7479 N 684.36 -1.4356 -0.65026 0
M  V30 7480 C 685.606 -1.45549 -1.41221 0
M  V30 7481 C 685.939 -0.0805472 -1.94033 0
M  V30 7482 O 685.214 0.899043 -1.72475 0
M  V30 7483 C 685.497 -2.50028 -2.59148 0
M  V30 7484 C 685.35 -3.96808 -2.1181 0
M  V30 7485 C 686.669 -2.51212 -3.61359 0
M  V30 7486 H 683.788 -0.529967 -0.512156 0
M  V30 7487 H 686.43 -1.75127 -0.736933 0
M  V30 7488 H 684.58 -2.24937 -3.16758 0
M  V30 7489 H 686.252 -4.32966 -1.59178 0
M  V30 7490 H 684.495 -4.09498 -1.43156 0
M  V30 7491 H 685.166 -4.6553 -2.96625 0
M  V30 7492 H 687.642 -2.73583 -3.13515 0
M  V30 7493 H 686.518 -3.26252 -4.41419 0
M  V30 7494 H 686.779 -1.54701 -4.1415 0
M  V30 7495 N 685.838 0.888903 -1.30139 0
M  V30 7496 C 686.785 1.99422 -1.16188 0
M  V30 7497 C 687.755 1.66017 -0.0523869 0
M  V30 7498 O 688.94 1.89506 -0.221864 0
M  V30 7499 C 686.08 3.34325 -0.855612 0
M  V30 7500 C 685.193 3.80445 -2.0466 0
M  V30 7501 C 684.328 5.03975 -1.67876 0
M  V30 7502 C 683.367 5.42492 -2.83493 0
M  V30 7503 N 682.504 6.57206 -2.47032 0
M  V30 7504 H 687.344 2.10687 -2.10749 0
M  V30 7505 H 684.881 1.03165 -1.04859 0
M  V30 7506 H 686.839 4.11968 -0.658681 0
M  V30 7507 H 685.469 3.22756 0.0531155 0
M  V30 7508 H 684.521 2.98745 -2.3549 0
M  V30 7509 H 685.833 4.04933 -2.91257 0
M  V30 7510 H 684.987 5.89232 -1.44535 0
M  V30 7511 H 683.726 4.8135 -0.784431 0
M  V30 7512 H 682.731 4.55764 -3.07505 0
M  V30 7513 H 683.956 5.67093 -3.73607 0
M  V30 7514 H 681.902 6.36164 -1.601 0
M  V30 7515 H 681.819 6.81543 -3.27161 0
M  V30 7516 H 683.087 7.45704 -2.27038 0
M  V30 7517 N 687.317 1.12792 1.10072 0
M  V30 7518 C 688.249 0.757003 2.16338 0
M  V30 7519 C 689.262 -0.218144 1.61332 0
M  V30 7520 O 690.451 0.0010727 1.785 0
M  V30 7521 C 687.551 0.100303 3.38752 0
M  V30 7522 C 686.724 1.10586 4.2319 0
M  V30 7523 C 685.783 0.47609 5.24042 0
M  V30 7524 O 684.809 1.13418 5.57786 0
M  V30 7525 N 686.011 -0.754823 5.75572 0
M  V30 7526 H 688.776 1.6714 2.48766 0
M  V30 7527 H 686.337 1.02003 1.25726 0
M  V30 7528 H 688.329 -0.333092 4.03327 0
M  V30 7529 H 686.899 -0.716915 3.04268 0
M  V30 7530 H 686.119 1.71677 3.54853 0
M  V30 7531 H 687.407 1.78571 4.76435 0
M  V30 7532 H 686.805 -1.30838 5.50362 0
M  V30 7533 H 685.362 -1.13098 6.41913 0
M  V30 7534 N 688.795 -1.27931 0.920396 0
M  V30 7535 C 690.02 -1.99343 0.572478 0
M  V30 7536 C 690.445 -1.68267 -0.840696 0
M  V30 7537 O 689.803 -0.918805 -1.56294 0
M  V30 7538 C 689.851 -3.51698 0.796284 0
M  V30 7539 O 688.955 -4.12157 -0.141602 0
M  V30 7540 H 688.296 -0.626065 0.221221 0
M  V30 7541 H 690.826 -1.62921 1.23765 0
M  V30 7542 H 690.836 -4.01793 0.708984 0
M  V30 7543 H 689.511 -3.73649 1.82644 0
M  V30 7544 H 688.088 -3.729 -0.005007 0
M  V30 7545 N 690.273 -0.685099 -1.4193 0
M  V30 7546 C 691.519 -0.211971 -2.01689 0
M  V30 7547 C 691.852 1.18189 -1.54094 0
M  V30 7548 O 691.127 1.79559 -0.747572 0
M  V30 7549 C 691.41 -0.258019 -3.59174 0
M  V30 7550 C 691.263 -1.68807 -4.16922 0
M  V30 7551 C 692.582 0.388044 -4.38386 0
M  V30 7552 H 689.701 -0.0784987 -0.732808 0
M  V30 7553 H 692.343 -0.871837 -1.68816 0
M  V30 7554 H 690.493 0.303832 -3.8731 0
M  V30 7555 H 692.165 -2.30296 -3.99702 0
M  V30 7556 H 690.408 -2.22553 -3.72361 0
M  V30 7557 H 691.079 -1.6719 -5.26072 0
M  V30 7558 H 693.555 -0.0903432 -4.16002 0
M  V30 7559 H 692.431 0.325232 -5.47936 0
M  V30 7560 H 692.692 1.4672 -4.17044 0
M  V30 7561 N 691.751 1.51645 -0.429126 0
M  V30 7562 C 692.998 2.02015 0.140079 0
M  V30 7563 C 693.326 1.31374 1.43427 0
M  V30 7564 O 692.581 0.414779 1.91254 0
M  V30 7565 C 692.88 3.54989 0.414472 0
M  V30 7566 C 692.546 4.43874 -0.792911 0
M  V30 7567 C 691.208 4.67887 -1.12404 0
M  V30 7568 C 693.56 4.96074 -1.59875 0
M  V30 7569 C 690.888 5.41348 -2.26184 0
M  V30 7570 C 693.24 5.70782 -2.72747 0
M  V30 7571 C 691.904 5.93062 -3.06324 0
M  V30 7572 H 691.174 0.739225 0.0512585 0
M  V30 7573 H 693.821 1.82675 -0.574641 0
M  V30 7574 H 692.126 3.72615 1.21099 0
M  V30 7575 H 693.823 3.91489 0.868173 0
M  V30 7576 H 690.413 4.25374 -0.524871 0
M  V30 7577 H 694.597 4.77412 -1.35614 0
M  V30 7578 H 689.853 5.56815 -2.52522 0
M  V30 7579 H 694.027 6.10221 -3.35564 0
M  V30 7580 H 691.654 6.49764 -3.94602 0
M  V30 7581 N 693.229 0.160201 1.56784 0
M  V30 7582 C 694.176 -0.774416 2.1742 0
M  V30 7583 C 695.146 -1.23483 1.11091 0
M  V30 7584 O 696.331 -1.30499 1.39193 0
M  V30 7585 C 693.471 -2.00283 2.81035 0
M  V30 7586 C 692.584 -1.58701 4.01793 0
M  V30 7587 C 691.719 -2.76824 4.53367 0
M  V30 7588 C 690.758 -2.31679 5.66561 0
M  V30 7589 N 689.895 -3.42856 6.12694 0
M  V30 7590 H 694.735 -0.250542 2.96945 0
M  V30 7591 H 692.272 -0.111943 1.46673 0
M  V30 7592 H 694.23 -2.72316 3.16069 0
M  V30 7593 H 692.86 -2.5006 2.04132 0
M  V30 7594 H 691.912 -0.76384 3.72652 0
M  V30 7595 H 693.224 -1.21555 4.83762 0
M  V30 7596 H 692.378 -3.57029 4.90525 0
M  V30 7597 H 691.117 -3.17223 3.70433 0
M  V30 7598 H 690.122 -1.49917 5.28966 0
M  V30 7599 H 691.347 -1.9235 6.5129 0
M  V30 7600 H 689.293 -3.82852 5.32692 0
M  V30 7601 H 689.21 -3.09767 6.89624 0
M  V30 7602 H 690.478 -4.23379 6.545 0
M  V30 7603 N 694.707 -1.5719 -0.113559 0
M  V30 7604 C 695.984 -1.76117 -0.850999 0
M  V30 7605 C 696.364 -0.737085 -1.97814 0
M  V30 7606 O 695.712 0.237942 -2.27258 0
M  V30 7607 C 695.922 -3.21298 -1.36266 0
M  V30 7608 C 697.27 -3.83955 -1.81283 0
M  V30 7609 O 698.294 -3.24934 -1.45933 0
M  V30 7610 O 697.153 -4.87707 -2.46585 0
M  V30 7611 H 694.247 -0.721308 -0.404529 0
M  V30 7612 H 696.793 -1.69423 -0.0968756 0
M  V30 7613 H 695.565 -3.87355 -0.554235 0
M  V30 7614 H 695.188 -3.32552 -2.17933 0
M  V30 7615 N 696.185 0.383891 -1.52853 0
M  V30 7616 C 697.432 1.12842 -1.68146 0
M  V30 7617 C 697.76 1.89823 -0.423954 0
M  V30 7618 O 697.015 1.86475 0.593765 0
M  V30 7619 C 697.314 2.12881 -2.87082 0
M  V30 7620 C 696.98 1.52519 -4.24322 0
M  V30 7621 C 695.642 1.35783 -4.61645 0
M  V30 7622 C 697.994 1.0868 -5.09743 0
M  V30 7623 C 695.322 0.737643 -5.82044 0
M  V30 7624 C 697.674 0.480699 -6.30771 0
M  V30 7625 C 696.338 0.300681 -6.66822 0
M  V30 7626 H 695.608 0.412917 -0.615289 0
M  V30 7627 H 698.255 0.412416 -1.87006 0
M  V30 7628 H 696.56 2.90719 -2.62659 0
M  V30 7629 H 698.257 2.70408 -2.96109 0
M  V30 7630 H 694.847 1.66534 -3.94923 0
M  V30 7631 H 699.031 1.2041 -4.81472 0
M  V30 7632 H 694.287 0.586415 -6.08581 0
M  V30 7633 H 698.461 0.132733 -6.96273 0
M  V30 7634 H 696.088 -0.181966 -7.59982 0
M  V30 7635 N 697.663 1.43903 0.642637 0
M  V30 7636 C 698.893 1.49323 1.4278 0
M  V30 7637 C 699.301 0.113058 1.88862 0
M  V30 7638 O 698.644 -0.889089 1.60751 0
M  V30 7639 C 698.706 2.3861 2.68897 0
M  V30 7640 C 698.37 3.85976 2.44687 0
M  V30 7641 C 699.367 4.7681 2.07239 0
M  V30 7642 C 697.052 4.30567 2.58683 0
M  V30 7643 C 699.046 6.10234 1.841 0
M  V30 7644 C 696.733 5.64042 2.35159 0
M  V30 7645 C 697.731 6.53693 1.97925 0
M  V30 7646 O 697.419 7.84698 1.74654 0
M  V30 7647 H 697.151 0.509109 0.444729 0
M  V30 7648 H 699.705 1.89425 0.794195 0
M  V30 7649 H 697.935 1.93415 3.34855 0
M  V30 7650 H 699.624 2.35112 3.30873 0
M  V30 7651 H 700.39 4.43635 1.95993 0
M  V30 7652 H 696.269 3.61054 2.86637 0
M  V30 7653 H 699.813 6.80171 1.54962 0
M  V30 7654 H 695.71 5.96782 2.46011 0
M  V30 7655 H 696.478 7.96382 1.88993 0
M  V30 7656 N 699.141 -0.881989 1.30609 0
M  V30 7657 C 700.051 -2.02076 1.19174 0
M  V30 7658 C 701.067 -1.73645 0.11102 0
M  V30 7659 O 702.243 -1.98735 0.326528 0
M  V30 7660 C 699.308 -3.3515 0.887438 0
M  V30 7661 C 698.369 -3.76983 2.05383 0
M  V30 7662 C 697.602 -5.03707 1.76395 0
M  V30 7663 O 697.825 -5.66171 0.693302 0
M  V30 7664 O 696.759 -5.42019 2.61723 0
M  V30 7665 H 700.585 -2.14652 2.14845 0
M  V30 7666 H 698.17 -1.00843 1.10232 0
M  V30 7667 H 700.052 -4.14975 0.73306 0
M  V30 7668 H 698.727 -3.23676 -0.0393354 0
M  V30 7669 H 697.634 -2.97849 2.26355 0
M  V30 7670 H 698.967 -3.93066 2.96243 0
M  V30 7671 N 700.619 -1.13374 -1.09472 0
M  V30 7672 C 701.549 -0.833268 -2.18126 0
M  V30 7673 C 702.53 0.207169 -1.68834 0
M  V30 7674 O 703.715 0.0662012 -1.94087 0
M  V30 7675 C 700.845 -0.297979 -3.46019 0
M  V30 7676 C 699.799 -1.27261 -4.08642 0
M  V30 7677 C 699.125 -0.597104 -5.31356 0
M  V30 7678 C 700.425 -2.63095 -4.51197 0
M  V30 7679 H 702.119 -1.74182 -2.43518 0
M  V30 7680 H 699.665 -0.838921 -1.17039 0
M  V30 7681 H 701.618 -0.0754444 -4.21332 0
M  V30 7682 H 700.342 0.645959 -3.20148 0
M  V30 7683 H 699.001 -1.48113 -3.35348 0
M  V30 7684 H 698.649 0.352293 -5.01765 0
M  V30 7685 H 698.349 -1.24734 -5.74208 0
M  V30 7686 H 699.873 -0.38384 -6.09392 0
M  V30 7687 H 701.287 -2.46214 -5.17737 0
M  V30 7688 H 699.684 -3.2429 -5.04932 0
M  V30 7689 H 700.754 -3.20793 -3.6362 0
M  V30 7690 N 702.098 1.27442 -0.927168 0
M  V30 7691 C 703.008 2.30599 -0.431448 0
M  V30 7692 C 704.024 1.67028 0.48761 0
M  V30 7693 O 705.2 1.97962 0.370546 0
M  V30 7694 C 702.265 3.45327 0.308292 0
M  V30 7695 C 701.326 4.24418 -0.645615 0
M  V30 7696 C 700.559 5.33667 0.0589164 0
M  V30 7697 O 700.782 5.5589 1.27838 0
M  V30 7698 O 699.716 5.98774 -0.612638 0
M  V30 7699 H 703.542 2.75036 -1.28797 0
M  V30 7700 H 701.127 1.32382 -0.692495 0
M  V30 7701 H 703.009 4.15107 0.725555 0
M  V30 7702 H 701.684 3.02945 1.14043 0
M  V30 7703 H 700.591 3.57174 -1.11255 0
M  V30 7704 H 701.924 4.70512 -1.44496 0
M  V30 7705 N 703.576 0.692616 1.41565 0
M  V30 7706 C 704.987 0.297478 1.84315 0
M  V30 7707 C 705.338 -1.16379 1.57957 0
M  V30 7708 O 704.463 -1.89303 1.0485 0
M  V30 7709 C 705.058 0.533136 3.34579 0
M  V30 7710 C 703.617 0.191944 3.7591 0
M  V30 7711 C 702.764 0.816873 2.64995 0
M  V30 7712 H 705.715 0.893488 1.31158 0
M  V30 7713 H 705.736 -0.209105 3.79925 0
M  V30 7714 H 705.248 1.59674 3.53731 0
M  V30 7715 H 703.349 -0.867512 3.6236 0
M  V30 7716 H 703.462 0.644902 4.7474 0
M  V30 7717 H 701.826 0.246715 2.53502 0
M  V30 7718 H 702.609 1.88429 2.86966 0
M  V30 7719 N 705.054 -1.51416 0.437162 0
M  V30 7720 C 705.964 -2.31493 -0.380537 0
M  V30 7721 C 706.98 -1.40399 -1.02782 0
M  V30 7722 O 708.156 -1.73471 -1.02323 0
M  V30 7723 C 705.221 -3.1413 -1.46709 0
M  V30 7724 C 704.282 -4.21003 -0.839953 0
M  V30 7725 C 703.515 -4.9969 -1.87473 0
M  V30 7726 O 703.738 -4.79008 -3.09689 0
M  V30 7727 O 702.672 -5.8379 -1.46536 0
M  V30 7728 H 706.498 -3.02469 0.273183 0
M  V30 7729 H 704.083 -1.48059 0.199706 0
M  V30 7730 H 705.965 -3.65505 -2.09724 0
M  V30 7731 H 704.64 -2.45919 -2.10489 0
M  V30 7732 H 703.547 -3.73706 -0.171752 0
M  V30 7733 H 704.88 -4.91587 -0.245638 0
M  V30 7734 N 706.532 -0.168513 -1.56696 0
M  V30 7735 C 707.479 0.762875 -2.17828 0
M  V30 7736 C 708.449 1.22892 -1.11745 0
M  V30 7737 O 709.634 1.29759 -1.39883 0
M  V30 7738 C 706.774 1.9879 -2.82093 0
M  V30 7739 C 705.887 1.56568 -4.02629 0
M  V30 7740 C 705.022 2.74416 -4.54829 0
M  V30 7741 C 704.061 2.28671 -5.67782 0
M  V30 7742 N 703.198 3.39602 -6.14504 0
M  V30 7743 H 708.038 0.23479 -2.97074 0
M  V30 7744 H 705.575 0.104163 -1.46731 0
M  V30 7745 H 707.533 2.70636 -3.17509 0
M  V30 7746 H 706.163 2.48973 -2.05456 0
M  V30 7747 H 705.215 0.744067 -3.73052 0
M  V30 7748 H 706.527 1.18988 -4.844 0
M  V30 7749 H 705.681 3.54423 -4.92412 0
M  V30 7750 H 704.42 3.15254 -3.7211 0
M  V30 7751 H 703.425 1.4711 -5.29753 0
M  V30 7752 H 704.65 1.88894 -6.52301 0
M  V30 7753 H 702.596 3.80021 -5.34715 0
M  V30 7754 H 702.513 3.06105 -6.91257 0
M  V30 7755 H 703.781 4.19902 -6.56737 0
M  V30 7756 N 708.01 1.57248 0.105221 0
M  V30 7757 C 709.257 1.8557 0.810552 0
M  V30 7758 C 709.585 0.755595 1.79223 0
M  V30 7759 O 708.84 -0.251788 1.94073 0
M  V30 7760 C 709.139 3.20437 1.58287 0
M  V30 7761 C 708.805 4.44716 0.744235 0
M  V30 7762 C 707.467 4.78458 0.513013 0
M  V30 7763 C 709.819 5.20953 0.160578 0
M  V30 7764 C 707.147 5.8587 -0.311894 0
M  V30 7765 C 709.499 6.29235 -0.651596 0
M  V30 7766 C 708.163 6.615 -0.893005 0
M  V30 7767 H 707.433 0.67905 0.296602 0
M  V30 7768 H 710.08 1.91363 0.0723968 0
M  V30 7769 H 708.385 3.10283 2.39232 0
M  V30 7770 H 710.082 3.39576 2.13282 0
M  V30 7771 H 706.672 4.18287 0.934555 0
M  V30 7772 H 710.856 4.95226 0.3264 0
M  V30 7773 H 706.112 6.09286 -0.508012 0
M  V30 7774 H 710.286 6.87484 -1.11077 0
M  V30 7775 H 707.913 7.44562 -1.53401 0
M  V30 7776 N 709.488 -0.375779 1.53054 0
M  V30 7777 C 710.42 -1.47963 1.75042 0
M  V30 7778 C 711.433 -1.50073 0.631031 0
M  V30 7779 O 712.622 -1.53736 0.907052 0
M  V30 7780 C 709.722 -2.86767 1.80604 0
M  V30 7781 C 708.895 -3.08471 3.10104 0
M  V30 7782 C 707.954 -4.27332 3.07041 0
M  V30 7783 O 706.98 -4.22998 3.80869 0
M  V30 7784 N 708.182 -5.34214 2.27147 0
M  V30 7785 H 710.947 -1.29484 2.70285 0
M  V30 7786 H 708.508 -0.565416 1.51706 0
M  V30 7787 H 710.5 -3.64404 1.76045 0
M  V30 7788 H 709.07 -2.98542 0.926897 0
M  V30 7789 H 708.29 -2.18583 3.28048 0
M  V30 7790 H 709.578 -3.19834 3.95706 0
M  V30 7791 H 708.976 -5.40594 1.66656 0
M  V30 7792 H 707.533 -6.10467 2.28415 0
M  V30 7793 N 710.966 -1.44241 -0.634997 0
M  V30 7794 C 711.914 -1.51103 -1.76835 0
M  V30 7795 C 712.908 -0.383051 -1.65012 0
M  V30 7796 O 714.114 -0.557832 -1.71138 0
M  V30 7797 H 710.489 -0.474076 -0.583743 0
M  V30 7798 H 712.46 -2.46499 -1.68169 0
M  V30 7799 C 711.209 -1.4687 -3.15158 0
M  V30 7800 H 710.532 -2.32979 -3.24901 0
M  V30 7801 H 711.972 -1.55731 -3.94365 0
M  V30 7802 C 710.431 -0.188884 -3.3637 0
M  V30 7803 O 710.961 0.742487 -3.94778 0
M  V30 7804 N 709.167 -0.0932516 -2.9045 0
M  V30 7805 H 708.714 -0.852004 -2.43102 0
M  V30 7806 H 708.672 0.762308 -3.05018 0
M  V30 7807 N 712.444 0.87505 -1.31075 0
M  V30 7808 C 713.391 1.98178 -1.18296 0
M  V30 7809 C 714.361 1.65952 -0.0699923 0
M  V30 7810 O 715.546 1.8926 -0.241951 0
M  V30 7811 C 712.686 3.33399 -0.891024 0
M  V30 7812 C 711.799 3.78253 -2.08684 0
M  V30 7813 C 710.934 5.02166 -1.73212 0
M  V30 7814 C 709.973 5.39455 -2.89231 0
M  V30 7815 N 709.11 6.54549 -2.53989 0
M  V30 7816 H 713.95 2.0844 -2.12971 0
M  V30 7817 H 711.487 1.02047 -1.05948 0
M  V30 7818 H 713.445 4.11246 -0.702338 0
M  V30 7819 H 712.075 3.22794 0.0188799 0
M  V30 7820 H 711.127 2.9623 -2.38646 0
M  V30 7821 H 712.439 4.01821 -2.95536 0
M  V30 7822 H 711.593 5.87666 -1.50777 0
M  V30 7823 H 710.332 4.80491 -0.83544 0
M  V30 7824 H 709.337 4.52477 -3.12321 0
M  V30 7825 H 710.562 5.63098 -3.79601 0
M  V30 7826 H 708.508 6.3443 -1.66838 0
M  V30 7827 H 708.425 6.78035 -3.34372 0
M  V30 7828 H 709.693 7.43254 -2.34934 0
M  V30 7829 N 713.922 1.13953 1.08869 0
M  V30 7830 C 715.15 0.92817 1.84912 0
M  V30 7831 C 715.565 -0.523197 1.81406 0
M  V30 7832 O 714.922 -1.36237 1.21432 0
M  V30 7833 C 714.973 1.41509 3.32652 0
M  V30 7834 O 714.694 2.80959 3.36145 0
M  V30 7835 C 716.195 1.243 4.25517 0
M  V30 7836 H 713.415 0.330612 0.583898 0
M  V30 7837 H 715.959 1.51349 1.37527 0
M  V30 7838 H 714.114 0.872648 3.77444 0
M  V30 7839 H 714.528 3.02704 4.28335 0
M  V30 7840 H 716.002 1.63237 5.27312 0
M  V30 7841 H 716.479 0.18532 4.38809 0
M  V30 7842 H 717.085 1.77375 3.86546 0
M  V30 7843 N 715.4 -1.26948 0.933913 0
M  V30 7844 C 716.348 -2.2862 0.428463 0
M  V30 7845 C 717.342 -1.62144 -0.490464 0
M  V30 7846 O 718.548 -1.76167 -0.36948 0
M  V30 7847 H 714.923 -0.742363 0.120003 0
M  V30 7848 H 716.894 -2.68659 1.29865 0
M  V30 7849 C 715.643 -3.46423 -0.29774 0
M  V30 7850 H 714.966 -3.97792 0.400183 0
M  V30 7851 H 716.406 -4.19505 -0.615736 0
M  V30 7852 C 714.865 -3.01017 -1.51295 0
M  V30 7853 O 715.395 -3.05226 -2.61151 0
M  V30 7854 N 713.601 -2.56442 -1.36696 0
M  V30 7855 H 713.148 -2.53217 -0.473178 0
M  V30 7856 H 713.106 -2.26424 -2.18127 0
M  V30 7857 N 716.879 -0.700114 -1.41195 0
M  V30 7858 C 718.127 -0.232546 -2.00758 0
M  V30 7859 C 718.448 1.1734 -1.55745 0
M  V30 7860 O 717.718 1.79262 -0.790058 0
M  V30 7861 H 716.298 -0.0829845 -0.742376 0
M  V30 7862 H 718.96 -0.902289 -1.72756 0
M  V30 7863 H 718.056 -0.253521 -3.11069 0
M  V30 7864 N 718.357 1.51182 -0.445186 0
M  V30 7865 C 719.606 2.01342 0.120189 0
M  V30 7866 C 719.919 1.33353 1.43095 0
M  V30 7867 O 721.125 1.74525 2.07974 0
M  V30 7868 C 719.581 3.58925 0.264732 0
M  V30 7869 C 719.189 4.35855 -1.03606 0
M  V30 7870 C 720.933 4.17208 0.783455 0
M  V30 7871 C 718.84 5.85162 -0.856731 0
M  V30 7872 H 717.77 0.752426 0.0486922 0
M  V30 7873 H 720.421 1.74221 -0.576143 0
M  V30 7874 H 718.803 3.82525 1.02425 0
M  V30 7875 H 719.977 4.23997 -1.80452 0
M  V30 7876 H 718.292 3.89062 -1.48391 0
M  V30 7877 H 720.889 5.26475 0.934239 0
M  V30 7878 H 721.232 3.76892 1.768 0
M  V30 7879 H 721.765 3.97715 0.0820346 0
M  V30 7880 H 718.504 6.29904 -1.81388 0
M  V30 7881 H 718.024 5.99663 -0.128206 0
M  V30 7882 H 719.703 6.44963 -0.513027 0
M  V30 7883 N 719.835 0.176821 1.56605 0
M  V30 7884 C 721.063 -0.472828 2.01425 0
M  V30 7885 C 721.478 -1.56436 1.05703 0
M  V30 7886 O 720.835 -1.82405 0.058808 0
M  V30 7887 C 720.886 -1.04607 3.46034 0
M  V30 7888 O 720.607 0.00189608 4.381 0
M  V30 7889 C 722.108 -1.7734 4.06282 0
M  V30 7890 H 719.328 -0.120503 0.660091 0
M  V30 7891 H 721.872 0.280166 2.02572 0
M  V30 7892 H 720.027 -1.74953 3.45645 0
M  V30 7893 H 720.441 -0.422118 5.22799 0
M  V30 7894 H 721.915 -2.12703 5.09374 0
M  V30 7895 H 722.392 -2.67043 3.4869 0
M  V30 7896 H 722.998 -1.11623 4.10391 0
M  V30 7897 N 721.313 -1.57302 -0.09688 0
M  V30 7898 C 722.724 -1.7496 -0.651595 0
M  V30 7899 C 723.075 -0.798746 -1.79205 0
M  V30 7900 O 722.2 0.0231858 -2.16388 0
M  V30 7901 C 722.795 -3.17259 -1.18878 0
M  V30 7902 C 721.354 -3.36348 -1.68958 0
M  V30 7903 C 720.501 -2.70766 -0.598413 0
M  V30 7904 H 723.452 -1.58173 0.12918 0
M  V30 7905 H 723.473 -3.20033 -2.05814 0
M  V30 7906 H 722.985 -3.8644 -0.358523 0
M  V30 7907 H 721.086 -2.72243 -2.5439 0
M  V30 7908 H 721.199 -4.44654 -1.7838 0
M  V30 7909 H 719.563 -2.32615 -1.03743 0
M  V30 7910 H 720.346 -3.42586 0.221238 0
M  V30 7911 N 722.791 0.367657 -1.53252 0
M  V30 7912 C 724.207 0.709191 -1.42978 0
M  V30 7913 C 724.407 1.93352 -0.567193 0
M  V30 7914 O 723.463 2.52453 -0.0488349 0
M  V30 7915 C 724.776 0.924338 -2.86141 0
M  V30 7916 C 726.324 1.02448 -2.95759 0
M  V30 7917 C 726.799 1.27211 -4.39979 0
M  V30 7918 N 728.29 1.33986 -4.43398 0
M  V30 7919 C 729.025 1.54852 -5.52095 0
M  V30 7920 N 728.521 1.73049 -6.7084 0
M  V30 7921 N 730.314 1.57205 -5.39669 0
M  V30 7922 H 722.465 -0.437669 -2.07842 0
M  V30 7923 H 724.728 -0.133737 -0.938519 0
M  V30 7924 H 724.434 0.0965455 -3.51567 0
M  V30 7925 H 724.308 1.83302 -3.29667 0
M  V30 7926 H 726.695 1.84282 -2.30487 0
M  V30 7927 H 726.776 0.0932301 -2.5563 0
M  V30 7928 H 726.42 0.458792 -5.05824 0
M  V30 7929 H 726.35 2.21654 -4.77679 0
M  V30 7930 H 728.841 1.21545 -3.5782 0
M  V30 7931 H 729.154 1.88538 -7.49449 0
M  V30 7932 H 727.499 1.70231 -6.7383 0
M  V30 7933 H 730.69 1.42555 -4.45865 0
M  V30 7934 H 730.863 1.73126 -6.24445 0
M  V30 7935 N 724.269 1.44576 0.627338 0
M  V30 7936 C 725.685 1.28546 0.945938 0
M  V30 7937 C 725.885 0.224003 2.00251 0
M  V30 7938 O 724.941 -0.388817 2.49488 0
M  V30 7939 C 726.254 2.65825 1.40561 0
M  V30 7940 C 727.802 2.73566 1.52088 0
M  V30 7941 C 728.277 4.11323 2.01438 0
M  V30 7942 N 729.768 4.13519 2.08702 0
M  V30 7943 C 730.503 5.16964 2.48065 0
M  V30 7944 N 729.999 6.30768 2.86538 0
M  V30 7945 N 731.792 5.04319 2.48232 0
M  V30 7946 H 723.943 2.1228 -0.0713567 0
M  V30 7947 H 726.206 0.947503 0.0307081 0
M  V30 7948 H 725.912 3.44591 0.703539 0
M  V30 7949 H 725.786 2.92969 2.37591 0
M  V30 7950 H 728.173 1.95116 2.21391 0
M  V30 7951 H 728.254 2.50159 0.534237 0
M  V30 7952 H 727.898 4.9025 1.32729 0
M  V30 7953 H 727.828 4.32109 3.0098 0
M  V30 7954 H 730.319 3.31385 1.81638 0
M  V30 7955 H 730.632 7.0551 3.15398 0
M  V30 7956 H 728.977 6.342 2.84281 0
M  V30 7957 H 732.168 4.14465 2.17569 0
M  V30 7958 H 732.341 5.85059 2.78585 0
M  V30 7959 N 725.747 -0.868086 1.31537 0
M  V30 7960 C 726.993 -1.62359 1.2252 0
M  V30 7961 C 727.348 -1.91204 -0.214169 0
M  V30 7962 O 726.641 -1.5339 -1.14813 0
M  V30 7963 C 726.835 -2.95889 2.0046 0
M  V30 7964 C 726.664 -2.80082 3.5183 0
M  V30 7965 C 725.434 -2.7917 4.21179 0
M  V30 7966 C 727.632 -2.54805 4.46743 0
M  V30 7967 N 725.614 -2.54433 5.58692 0
M  V30 7968 C 726.985 -2.39349 5.71937 0
M  V30 7969 C 729.04 -2.40165 4.36148 0
M  V30 7970 C 727.743 -2.1074 6.87736 0
M  V30 7971 C 729.769 -2.12945 5.51732 0
M  V30 7972 C 729.131 -1.98278 6.75918 0
M  V30 7973 H 725.23 -0.598381 0.503452 0
M  V30 7974 H 727.814 -1.02156 1.65748 0
M  V30 7975 H 725.985 -3.54095 1.59598 0
M  V30 7976 H 727.717 -3.60734 1.83447 0
M  V30 7977 H 724.472 -2.91621 3.73168 0
M  V30 7978 H 724.896 -2.45029 6.31102 0
M  V30 7979 H 729.538 -2.50231 3.408 0
M  V30 7980 H 727.256 -1.99412 7.8311 0
M  V30 7981 H 730.842 -2.02415 5.45454 0
M  V30 7982 H 729.722 -1.77514 7.63845 0
M  V30 7983 N 727.225 -1.14528 -1.08264 0
M  V30 7984 C 728.155 -0.856356 -2.1723 0
M  V30 7985 C 729.136 0.189251 -1.69044 0
M  V30 7986 O 730.321 0.0456119 -1.94146 0
M  V30 7987 C 727.451 -0.334662 -3.45684 0
M  V30 7988 C 726.405 -1.31588 -4.0727 0
M  V30 7989 C 725.731 -0.653428 -5.30692 0
M  V30 7990 C 727.031 -2.67866 -4.48381 0
M  V30 7991 H 728.725 -1.76755 -2.41657 0
M  V30 7992 H 726.271 -0.851287 -1.16143 0
M  V30 7993 H 728.224 -0.120128 -4.21229 0
M  V30 7994 H 726.948 0.611967 -3.20815 0
M  V30 7995 H 725.607 -1.51661 -3.33758 0
M  V30 7996 H 725.255 0.299054 -5.0211 0
M  V30 7997 H 724.955 -1.30817 -5.72853 0
M  V30 7998 H 726.479 -0.448453 -6.08951 0
M  V30 7999 H 727.893 -2.51692 -5.15096 0
M  V30 8000 H 726.29 -3.29627 -5.01464 0
M  V30 8001 H 727.36 -3.24632 -3.60198 0
M  V30 8002 N 728.703 1.26451 -0.940633 0
M  V30 8003 C 729.633 2.28773 -0.467479 0
M  V30 8004 C 730.614 1.63218 0.478955 0
M  V30 8005 O 731.799 1.90427 0.380929 0
M  V30 8006 C 728.929 3.46259 0.268656 0
M  V30 8007 C 727.883 4.23898 -0.591171 0
M  V30 8008 C 727.209 5.33993 0.274891 0
M  V30 8009 C 728.509 4.87974 -1.86223 0
M  V30 8010 H 730.203 2.68601 -1.32265 0
M  V30 8011 H 727.749 1.29123 -0.637436 0
M  V30 8012 H 729.702 4.16951 0.610696 0
M  V30 8013 H 728.426 3.05383 1.15796 0
M  V30 8014 H 727.085 3.54969 -0.916098 0
M  V30 8015 H 726.733 4.89358 1.16353 0
M  V30 8016 H 726.433 5.86849 -0.297006 0
M  V30 8017 H 727.957 6.07523 0.612213 0
M  V30 8018 H 729.371 5.50883 -1.58747 0
M  V30 8019 H 727.768 5.50945 -2.37866 0
M  V30 8020 H 728.838 4.10945 -2.57394 0
M  V30 8021 N 730.181 0.707592 1.40822 0
M  V30 8022 C 731.111 0.0644925 2.33411 0
M  V30 8023 C 732.092 -0.754205 1.52466 0
M  V30 8024 O 733.277 -0.704749 1.80961 0
M  V30 8025 C 730.407 -0.863865 3.36385 0
M  V30 8026 C 729.361 -0.15138 4.27732 0
M  V30 8027 C 728.687 -1.19491 5.21177 0
M  V30 8028 C 729.987 0.989607 5.12839 0
M  V30 8029 H 731.681 0.837829 2.87438 0
M  V30 8030 H 729.227 0.404346 1.38207 0
M  V30 8031 H 731.18 -1.32309 4.0009 0
M  V30 8032 H 729.904 -1.66901 2.80734 0
M  V30 8033 H 728.563 0.287937 3.65467 0
M  V30 8034 H 728.211 -1.9929 4.61836 0
M  V30 8035 H 727.911 -0.723123 5.83134 0
M  V30 8036 H 729.435 -1.6544 5.8776 0
M  V30 8037 H 730.849 0.610114 5.70044 0
M  V30 8038 H 729.246 1.38926 5.83798 0
M  V30 8039 H 730.316 1.82389 4.49291 0
M  V30 8040 N 731.66 -1.50943 0.453197 0
M  V30 8041 C 732.9 -2.0412 -0.106894 0
M  V30 8042 C 733.264 -1.32895 -1.38575 0
M  V30 8043 O 734.465 -1.76529 -2.02709 0
M  V30 8044 C 732.736 -3.561 -0.304565 0
M  V30 8045 S 734.295 -4.3096 -0.825784 0
M  V30 8046 H 731.113 -0.710581 -0.0243969 0
M  V30 8047 H 733.715 -1.85534 0.616239 0
M  V30 8048 H 732.419 -4.055 0.632277 0
M  V30 8049 H 731.95 -3.79009 -1.05433 0
M  V30 8050 H 733.965 -4.49503 -2.10147 0
M  V30 8051 N 733.138 -0.185124 -1.56509 0
M  V30 8052 C 734.086 0.756505 -2.19954 0
M  V30 8053 C 735.08 1.22725 -1.16769 0
M  V30 8054 O 736.286 1.1913 -1.34937 0
M  V30 8055 H 732.661 0.262279 -0.704779 0
M  V30 8056 H 734.632 0.197587 -2.97745 0
M  V30 8057 C 733.381 1.96975 -2.86524 0
M  V30 8058 H 732.704 1.61658 -3.65659 0
M  V30 8059 H 734.144 2.60719 -3.34367 0
M  V30 8060 C 732.603 2.80219 -1.87027 0
M  V30 8061 O 733.133 3.77821 -1.36433 0
M  V30 8062 N 731.339 2.4551 -1.55477 0
M  V30 8063 H 730.886 1.66199 -1.96813 0
M  V30 8064 H 730.844 3.01493 -0.891597 0
M  V30 8065 N 734.616 1.57351 0.0885366 0
M  V30 8066 C 736.027 1.75303 0.642308 0
M  V30 8067 C 736.378 0.808238 1.78779 0
M  V30 8068 O 735.503 -0.01171 2.16397 0
M  V30 8069 C 736.098 3.17885 1.17194 0
M  V30 8070 C 734.657 3.37239 1.67172 0
M  V30 8071 C 733.804 2.7108 0.584045 0
M  V30 8072 H 736.755 1.58103 -0.137567 0
M  V30 8073 H 736.776 3.2112 2.04114 0
M  V30 8074 H 736.288 3.86625 0.338024 0
M  V30 8075 H 734.389 2.73588 2.52943 0
M  V30 8076 H 734.502 4.45594 1.76019 0
M  V30 8077 H 732.866 2.33161 1.02508 0
M  V30 8078 H 733.649 3.42464 -0.239403 0
M  V30 8079 N 736.094 -0.359525 1.53444 0
M  V30 8080 C 737.342 -1.09935 1.69584 0
M  V30 8081 C 737.663 -1.89656 0.453371 0
M  V30 8082 O 736.933 -1.8852 -0.53263 0
M  V30 8083 H 735.513 -0.408843 0.625185 0
M  V30 8084 H 738.175 -0.40467 1.90653 0
M  V30 8085 H 737.271 -1.78575 2.55964 0
M  V30 8086 N 737.572 -1.44907 -0.619662 0
M  V30 8087 C 738.502 -1.55488 -1.742 0
M  V30 8088 C 739.483 -0.407143 -1.65156 0
M  V30 8089 O 740.668 -0.628743 -1.8374 0
M  V30 8090 C 737.798 -1.5097 -3.1277 0
M  V30 8091 C 736.752 -2.64337 -3.36615 0
M  V30 8092 C 736.078 -2.44872 -4.75333 0
M  V30 8093 C 737.378 -4.06423 -3.28051 0
M  V30 8094 H 739.072 -2.49432 -1.65602 0
M  V30 8095 H 736.618 -1.20047 -0.795281 0
M  V30 8096 H 738.571 -1.56971 -3.91073 0
M  V30 8097 H 737.295 -0.535486 -3.2218 0
M  V30 8098 H 735.954 -2.57744 -2.60698 0
M  V30 8099 H 735.602 -1.45617 -4.81461 0
M  V30 8100 H 735.302 -3.20888 -4.92244 0
M  V30 8101 H 736.826 -2.52709 -5.55851 0
M  V30 8102 H 738.24 -4.14324 -3.96243 0
M  V30 8103 H 736.637 -4.82733 -3.56495 0
M  V30 8104 H 737.707 -4.29183 -2.25676 0
M  V30 8105 N 739.05 0.861098 -1.31996 0
M  V30 8106 C 740.013 1.95068 -1.20338 0
M  V30 8107 C 741.013 1.60289 -0.128114 0
M  V30 8108 O 742.203 1.70048 -0.378044 0
M  V30 8109 C 739.335 3.30153 -0.849205 0
M  V30 8110 H 740.528 2.06833 -2.17164 0
M  V30 8111 H 738.081 1.05049 -1.15734 0
M  V30 8112 H 738.816 3.24087 0.117508 0
M  V30 8113 H 738.601 3.56771 -1.62655 0
M  V30 8114 H 740.091 4.10025 -0.791782 0
M  V30 8115 N 740.528 1.15101 1.07655 0
M  V30 8116 C 741.805 0.834578 1.76902 0
M  V30 8117 C 742.185 -0.670431 2.00171 0
M  V30 8118 O 741.533 -1.61378 1.6177 0
M  V30 8119 C 741.743 1.64191 3.07965 0
M  V30 8120 C 743.091 1.84615 3.82364 0
M  V30 8121 O 744.115 1.60941 3.17768 0
M  V30 8122 O 742.974 2.24244 4.98374 0
M  V30 8123 H 740.068 0.306608 0.768063 0
M  V30 8124 H 742.614 1.25663 1.14048 0
M  V30 8125 H 741.386 2.66386 2.86626 0
M  V30 8126 H 741.009 1.216 3.78549 0
M  V30 8127 N 742.006 -1.2595 0.947325 0
M  V30 8128 C 743.234 -1.97544 0.615127 0
M  V30 8129 C 743.649 -1.70484 -0.811221 0
M  V30 8130 O 743.006 -0.97662 -1.5417 0
M  V30 8131 C 743.057 -3.51236 0.855328 0
M  V30 8132 O 742.778 -3.77359 2.22558 0
M  V30 8133 C 744.279 -4.40066 0.534515 0
M  V30 8134 H 741.499 -0.629888 0.231263 0
M  V30 8135 H 744.043 -1.60308 1.26971 0
M  V30 8136 H 742.198 -3.8661 0.247266 0
M  V30 8137 H 742.612 -4.71857 2.29022 0
M  V30 8138 H 744.086 -5.46838 0.753168 0
M  V30 8139 H 744.563 -4.35982 -0.530701 0
M  V30 8140 H 745.169 -4.10245 1.12158 0
M  V30 8141 N 743.484 -0.715051 -1.40445 0
M  V30 8142 C 744.733 -0.251322 -2.00128 0
M  V30 8143 C 745.046 1.16194 -1.57347 0
M  V30 8144 O 746.252 1.72416 -2.09726 0
M  V30 8145 C 744.708 -0.398407 -3.57688 0
M  V30 8146 C 744.316 -1.81828 -4.09442 0
M  V30 8147 C 746.06 0.00455625 -4.245 0
M  V30 8148 C 743.967 -1.91598 -5.59503 0
M  V30 8149 H 742.897 -0.0902081 -0.748584 0
M  V30 8150 H 745.548 -0.886062 -1.6069 0
M  V30 8151 H 743.93 0.304908 -3.94824 0
M  V30 8152 H 745.104 -2.55193 -3.83684 0
M  V30 8153 H 743.419 -2.17266 -3.55225 0
M  V30 8154 H 746.016 -0.0477303 -5.34679 0
M  V30 8155 H 746.359 1.04636 -4.02935 0
M  V30 8156 H 746.892 -0.649184 -3.92467 0
M  V30 8157 H 743.631 -2.93898 -5.85922 0
M  V30 8158 H 743.151 -1.22644 -5.87127 0
M  V30 8159 H 744.83 -1.68785 -6.24596 0
M  V30 8160 N 744.962 1.50701 -0.461195 0
M  V30 8161 C 746.208 2.02566 0.0973411 0
M  V30 8162 C 746.541 1.3432 1.40257 0
M  V30 8163 O 745.816 0.465692 1.88843 0
M  V30 8164 C 746.099 3.58919 0.291423 0
M  V30 8165 C 745.952 4.37751 -1.03413 0
M  V30 8166 C 747.271 4.27379 1.05048 0
M  V30 8167 H 744.39 0.73622 0.0339026 0
M  V30 8168 H 747.032 1.80115 -0.604855 0
M  V30 8169 H 745.182 3.78179 0.889539 0
M  V30 8170 H 746.854 4.30085 -1.66806 0
M  V30 8171 H 745.097 4.01885 -1.63313 0
M  V30 8172 H 745.768 5.45384 -0.852085 0
M  V30 8173 H 748.244 4.12534 0.543603 0
M  V30 8174 H 747.12 5.36609 1.15506 0
M  V30 8175 H 747.381 3.89868 2.0846 0
M  V30 8176 N 746.441 0.193421 1.56409 0
M  V30 8177 C 747.351 -0.740112 2.2262 0
M  V30 8178 C 748.367 -1.23597 1.22474 0
M  V30 8179 O 749.543 -1.28348 1.55206 0
M  V30 8180 C 746.608 -1.94317 2.87127 0
M  V30 8181 C 745.669 -1.49205 4.02538 0
M  V30 8182 C 744.902 -2.63776 4.63959 0
M  V30 8183 O 745.125 -3.81215 4.24301 0
M  V30 8184 O 744.059 -2.36585 5.53454 0
M  V30 8185 H 747.885 -0.206238 3.02999 0
M  V30 8186 H 745.47 -0.0357938 1.49357 0
M  V30 8187 H 747.352 -2.64633 3.27944 0
M  V30 8188 H 746.027 -2.46568 2.09728 0
M  V30 8189 H 744.934 -0.757738 3.66346 0
M  V30 8190 H 746.267 -1.01622 4.81595 0
M  V30 8191 N 747.919 -1.57396 -0.0801906 0
M  V30 8192 C 748.866 -2.03107 -1.09618 0
M  V30 8193 C 749.836 -0.910118 -1.38946 0
M  V30 8194 O 751.021 -1.17719 -1.50156 0
M  V30 8195 C 748.161 -2.47293 -2.40708 0
M  V30 8196 C 747.274 -3.72972 -2.17982 0
M  V30 8197 C 746.409 -4.05975 -3.42576 0
M  V30 8198 C 745.448 -5.24719 -3.15177 0
M  V30 8199 N 744.585 -5.53401 -4.32078 0
M  V30 8200 H 749.425 -2.89677 -0.69939 0
M  V30 8201 H 746.962 -1.43263 -0.333785 0
M  V30 8202 H 748.92 -2.7096 -3.17232 0
M  V30 8203 H 747.55 -1.63713 -2.78205 0
M  V30 8204 H 746.602 -3.56693 -1.32189 0
M  V30 8205 H 747.914 -4.59638 -1.93738 0
M  V30 8206 H 747.068 -4.30498 -4.275 0
M  V30 8207 H 745.807 -3.17859 -3.69887 0
M  V30 8208 H 744.812 -5 -2.28648 0
M  V30 8209 H 746.037 -6.14445 -2.89197 0
M  V30 8210 H 743.983 -4.68245 -4.59437 0
M  V30 8211 H 743.9 -6.34469 -4.11078 0
M  V30 8212 H 745.168 -5.8247 -5.18024 0
M  V30 8213 N 749.397 0.351382 -1.53633 0
M  V30 8214 C 750.646 1.08988 -1.69719 0
M  V30 8215 C 750.959 1.90043 -0.462948 0
M  V30 8216 O 752.165 2.66769 -0.504613 0
M  V30 8217 C 750.621 1.98691 -3.00083 0
M  V30 8218 C 750.229 1.22881 -4.30818 0
M  V30 8219 C 751.973 2.72446 -3.25536 0
M  V30 8220 C 749.88 2.11568 -5.52262 0
M  V30 8221 H 748.81 0.410588 -0.632403 0
M  V30 8222 H 751.461 0.349886 -1.80133 0
M  V30 8223 H 749.843 2.76478 -2.83506 0
M  V30 8224 H 751.017 0.500582 -4.58073 0
M  V30 8225 H 749.332 0.60928 -4.11918 0
M  V30 8226 H 751.929 3.39055 -4.13456 0
M  V30 8227 H 752.272 3.38588 -2.42206 0
M  V30 8228 H 752.805 2.01735 -3.42852 0
M  V30 8229 H 749.544 1.4998 -6.38111 0
M  V30 8230 H 749.064 2.82201 -5.29266 0
M  V30 8231 H 750.743 2.70802 -5.87601 0
M  V30 8232 N 750.875 1.45233 0.611969 0
M  V30 8233 C 752.123 1.48727 1.36838 0
M  V30 8234 C 752.444 0.128616 1.94575 0
M  V30 8235 O 751.714 -0.84149 1.76906 0
M  V30 8236 H 750.294 0.547695 0.507976 0
M  V30 8237 H 752.956 1.81156 0.718925 0
M  V30 8238 H 752.052 2.2236 2.19003 0
M  V30 8239 N 752.353 -0.854086 1.3245 0
M  V30 8240 C 753.263 -1.99503 1.23434 0
M  V30 8241 C 754.279 -1.73371 0.147828 0
M  V30 8242 O 755.455 -1.97998 0.368609 0
M  V30 8243 C 752.52 -3.33192 0.958328 0
M  V30 8244 C 751.581 -3.72542 2.13333 0
M  V30 8245 C 750.814 -4.99852 1.8704 0
M  V30 8246 O 751.037 -5.64573 0.813239 0
M  V30 8247 O 749.971 -5.36345 2.73161 0
M  V30 8248 H 753.797 -2.10046 2.1935 0
M  V30 8249 H 751.382 -0.984823 1.12346 0
M  V30 8250 H 753.264 -4.13327 0.820918 0
M  V30 8251 H 751.939 -3.23687 0.0293299 0
M  V30 8252 H 750.846 -2.92981 2.32622 0
M  V30 8253 H 752.179 -3.86694 3.04514 0
M  V30 8254 N 753.831 -1.1567 -1.07043 0
M  V30 8255 C 754.741 -0.870435 -2.17855 0
M  V30 8256 C 755.757 0.154452 -1.73313 0
M  V30 8257 O 756.933 -0.0203759 -2.0139 0
M  V30 8258 C 753.998 -0.367219 -3.4475 0
M  V30 8259 C 753.059 -1.45639 -4.03841 0
M  V30 8260 C 752.292 -0.977092 -5.2468 0
M  V30 8261 O 752.515 0.176127 -5.70128 0
M  V30 8262 O 751.449 -1.76215 -5.75527 0
M  V30 8263 H 755.275 -1.79687 -2.44839 0
M  V30 8264 H 752.86 -0.936064 -1.1644 0
M  V30 8265 H 754.742 -0.0931947 -4.21297 0
M  V30 8266 H 753.417 0.53131 -3.1931 0
M  V30 8267 H 752.324 -1.78406 -3.28819 0
M  V30 8268 H 753.657 -2.32995 -4.3356 0
M  V30 8269 N 755.309 1.25446 -0.953992 0
M  V30 8270 C 756.556 1.93143 -0.608429 0
M  V30 8271 C 756.884 1.74727 0.854451 0
M  V30 8272 O 756.139 1.0855 1.62836 0
M  V30 8273 C 756.438 3.45555 -0.912496 0
M  V30 8274 C 756.104 3.84126 -2.36131 0
M  V30 8275 C 754.766 3.94367 -2.75732 0
M  V30 8276 C 757.118 4.0324 -3.30223 0
M  V30 8277 C 754.446 4.21127 -4.08496 0
M  V30 8278 C 756.798 4.31493 -4.62598 0
M  V30 8279 C 755.462 4.3995 -5.01996 0
M  V30 8280 H 754.732 0.706762 -0.22264 0
M  V30 8281 H 757.379 1.49005 -1.20291 0
M  V30 8282 H 755.684 3.91091 -0.235618 0
M  V30 8283 H 757.381 3.9612 -0.623714 0
M  V30 8284 H 753.971 3.76711 -2.04418 0
M  V30 8285 H 758.155 3.94744 -3.00817 0
M  V30 8286 H 753.411 4.2589 -4.38665 0
M  V30 8287 H 757.585 4.45227 -5.35486 0
M  V30 8288 H 755.212 4.60439 -6.04896 0
M  V30 8289 N 756.787 0.722489 1.40064 0
M  V30 8290 C 757.717 0.0892452 2.33329 0
M  V30 8291 C 758.698 -0.737992 1.53257 0
M  V30 8292 O 759.883 -0.685516 1.81698 0
M  V30 8293 C 757.013 -0.828139 3.37282 0
M  V30 8294 C 755.967 -0.106005 4.27869 0
M  V30 8295 C 755.293 -1.13957 5.22415 0
M  V30 8296 C 756.593 1.04395 5.11761 0
M  V30 8297 H 758.287 0.868269 2.86534 0
M  V30 8298 H 755.833 0.418982 1.3777 0
M  V30 8299 H 757.786 -1.28058 4.01471 0
M  V30 8300 H 756.51 -1.63914 2.82489 0
M  V30 8301 H 755.169 0.326683 3.65142 0
M  V30 8302 H 754.817 -1.9438 4.63924 0
M  V30 8303 H 754.517 -0.661233 5.83868 0
M  V30 8304 H 756.041 -1.59197 5.89482 0
M  V30 8305 H 757.455 0.670541 5.69365 0
M  V30 8306 H 755.852 1.4511 5.82291 0
M  V30 8307 H 756.922 1.87144 4.47331 0
M  V30 8308 N 758.265 -1.50454 0.469181 0
M  V30 8309 C 759.493 -2.06729 -0.0842134 0
M  V30 8310 C 759.908 -1.33326 -1.33677 0
M  V30 8311 O 759.265 -0.401977 -1.78018 0
M  V30 8312 C 759.316 -3.59557 -0.374253 0
M  V30 8313 O 759.037 -4.30192 0.828622 0
M  V30 8314 C 760.538 -4.32449 -0.974824 0
M  V30 8315 H 757.758 -0.670971 0.006231 0
M  V30 8316 H 760.302 -1.93645 0.657415 0
M  V30 8317 H 758.457 -3.7245 -1.06581 0
M  V30 8318 H 758.871 -5.21371 0.572066 0
M  V30 8319 H 760.345 -5.40361 -1.12755 0
M  V30 8320 H 760.822 -3.92819 -1.96442 0
M  V30 8321 H 761.428 -4.24082 -0.321703 0
M  V30 8322 N 759.743 -0.201713 -1.56304 0
M  V30 8323 C 761.02 0.483273 -1.89536 0
M  V30 8324 C 761.4 1.79176 -1.11621 0
M  V30 8325 O 760.748 2.27445 -0.219339 0
M  V30 8326 C 760.958 0.695604 -3.41998 0
M  V30 8327 C 762.306 1.012 -4.12364 0
M  V30 8328 O 763.33 0.783094 -3.47485 0
M  V30 8329 O 762.189 1.44534 -5.27041 0
M  V30 8330 H 759.283 0.252801 -0.787414 0
M  V30 8331 H 761.829 -0.24242 -1.6796 0
M  V30 8332 H 760.601 -0.228165 -3.90634 0
M  V30 8333 H 760.224 1.47351 -3.69288 0
M  V30 8334 N 761.222 1.57436 0.0718424 0
M  V30 8335 C 762.152 2.06724 1.08571 0
M  V30 8336 C 763.133 0.960731 1.40371 0
M  V30 8337 O 764.318 1.23345 1.49999 0
M  V30 8338 C 761.448 2.51112 2.39916 0
M  V30 8339 C 760.402 3.65639 2.22469 0
M  V30 8340 C 759.728 3.96082 3.59198 0
M  V30 8341 C 761.028 4.95687 1.64596 0
M  V30 8342 H 762.722 2.91679 0.675569 0
M  V30 8343 H 760.268 1.40319 0.32352 0
M  V30 8344 H 762.221 2.84206 3.11135 0
M  V30 8345 H 760.945 1.63186 2.8291 0
M  V30 8346 H 759.604 3.32828 1.53691 0
M  V30 8347 H 759.252 3.05287 3.99761 0
M  V30 8348 H 758.952 4.73199 3.48362 0
M  V30 8349 H 760.476 4.31672 4.31847 0
M  V30 8350 H 761.89 5.27011 2.25681 0
M  V30 8351 H 760.287 5.77126 1.64457 0
M  V30 8352 H 761.357 4.8108 0.60744 0
M  V30 8353 N 762.7 -0.34323 1.53817 0
M  V30 8354 C 763.925 -1.1079 1.75329 0
M  V30 8355 C 764.35 -1.81571 0.491293 0
M  V30 8356 O 763.708 -1.72561 -0.556089 0
M  V30 8357 C 763.756 -2.09681 2.9337 0
M  V30 8358 O 762.86 -3.17207 2.63541 0
M  V30 8359 H 762.201 -0.320402 0.581583 0
M  V30 8360 H 764.731 -0.393525 2.0078 0
M  V30 8361 H 764.741 -2.52897 3.20168 0
M  V30 8362 H 763.416 -1.5756 3.84899 0
M  V30 8363 H 761.993 -2.78806 2.47632 0
M  V30 8364 N 764.178 -1.45556 -0.604258 0
M  V30 8365 C 765.11 -1.50494 -1.72871 0
M  V30 8366 C 766.123 -0.395368 -1.57926 0
M  V30 8367 O 767.312 -0.662603 -1.65746 0
M  V30 8368 C 764.412 -1.34874 -3.10906 0
M  V30 8369 C 763.585 -2.59564 -3.52058 0
M  V30 8370 C 762.644 -2.38453 -4.6907 0
M  V30 8371 O 761.67 -3.12082 -4.76018 0
M  V30 8372 N 762.872 -1.43229 -5.62553 0
M  V30 8373 H 765.637 -2.4744 -1.69097 0
M  V30 8374 H 763.198 -1.41338 -0.789636 0
M  V30 8375 H 765.19 -1.18556 -3.86945 0
M  V30 8376 H 763.76 -0.461913 -3.09168 0
M  V30 8377 H 762.98 -2.90974 -2.65946 0
M  V30 8378 H 764.268 -3.42441 -3.76313 0
M  V30 8379 H 763.666 -0.824714 -5.59656 0
M  V30 8380 H 762.223 -1.32882 -6.38111 0
M  V30 8381 N 765.656 0.84705 -1.32902 0
M  V30 8382 C 766.586 1.97166 -1.25091 0
M  V30 8383 C 767.567 1.69578 -0.133161 0
M  V30 8384 O 768.752 1.91519 -0.321591 0
M  V30 8385 C 765.882 3.33157 -0.981006 0
M  V30 8386 C 764.836 3.75119 -2.06082 0
M  V30 8387 C 764.162 5.08826 -1.64318 0
M  V30 8388 C 765.462 3.89774 -3.47669 0
M  V30 8389 H 767.156 2.03958 -2.19184 0
M  V30 8390 H 764.702 0.979907 -1.05517 0
M  V30 8391 H 766.655 4.11393 -0.912891 0
M  V30 8392 H 765.379 3.266 -0.00445559 0
M  V30 8393 H 764.038 2.9914 -2.11921 0
M  V30 8394 H 763.686 4.98732 -0.653876 0
M  V30 8395 H 763.386 5.37873 -2.36572 0
M  V30 8396 H 764.91 5.89546 -1.58958 0
M  V30 8397 H 766.324 4.58343 -3.44376 0
M  V30 8398 H 764.721 4.30248 -4.18338 0
M  V30 8399 H 765.791 2.92463 -3.86773 0
M  V30 8400 N 767.134 1.16236 1.06428 0
M  V30 8401 C 768.081 0.86769 2.13869 0
M  V30 8402 C 769.051 -0.183298 1.65086 0
M  V30 8403 O 770.236 -0.0488002 1.90738 0
M  V30 8404 C 767.376 0.373427 3.43074 0
M  V30 8405 C 766.489 1.48708 4.05598 0
M  V30 8406 C 765.624 0.947977 5.22673 0
M  V30 8407 C 764.663 2.03793 5.77178 0
M  V30 8408 N 763.8 1.51451 6.85571 0
M  V30 8409 H 768.64 1.78781 2.38414 0
M  V30 8410 H 766.177 0.891892 1.16977 0
M  V30 8411 H 768.135 0.0685035 4.17144 0
M  V30 8412 H 766.765 -0.509752 3.1875 0
M  V30 8413 H 765.817 1.908 3.29089 0
M  V30 8414 H 767.129 2.30964 4.42105 0
M  V30 8415 H 766.283 0.596154 6.03764 0
M  V30 8416 H 765.022 0.0947081 4.87608 0
M  V30 8417 H 764.027 2.39847 4.94726 0
M  V30 8418 H 765.252 2.89514 6.14295 0
M  V30 8419 H 763.198 0.683755 6.52427 0
M  V30 8420 H 763.115 2.27325 7.21013 0
M  V30 8421 H 764.383 1.19123 7.70344 0
M  V30 8422 N 768.612 -1.24939 0.960631 0
M  V30 8423 C 769.559 -2.25658 0.484459 0
M  V30 8424 C 770.529 -1.59422 -0.466242 0
M  V30 8425 O 771.714 -1.87015 -0.378169 0
M  V30 8426 C 768.854 -3.44359 -0.225958 0
M  V30 8427 C 767.967 -4.25214 0.762682 0
M  V30 8428 C 767.102 -5.31192 0.0290931 0
M  V30 8429 C 766.141 -6.03739 1.00827 0
M  V30 8430 N 765.278 -7.01437 0.305155 0
M  V30 8431 H 770.118 -2.65758 1.34821 0
M  V30 8432 H 767.655 -1.30648 0.675983 0
M  V30 8433 H 769.613 -4.12035 -0.654472 0
M  V30 8434 H 768.243 -3.05118 -1.05371 0
M  V30 8435 H 767.295 -3.57144 1.30966 0
M  V30 8436 H 768.607 -4.75406 1.50964 0
M  V30 8437 H 767.761 -6.04971 -0.457763 0
M  V30 8438 H 766.5 -4.81889 -0.750614 0
M  V30 8439 H 765.505 -5.2877 1.50607 0
M  V30 8440 H 766.73 -6.55131 1.7883 0
M  V30 8441 H 764.676 -6.54415 -0.455704 0
M  V30 8442 H 764.593 -7.49475 0.991104 0
M  V30 8443 H 765.861 -7.79336 -0.159966 0
M  V30 8444 N 770.09 -0.729906 -1.39679 0
M  V30 8445 C 771.02 -0.101618 -2.33279 0
M  V30 8446 C 772.001 0.729854 -1.53646 0
M  V30 8447 O 773.186 0.67587 -1.82059 0
M  V30 8448 C 770.316 0.81024 -3.37716 0
M  V30 8449 C 769.27 0.0833126 -4.27919 0
M  V30 8450 C 768.596 1.11185 -5.23012 0
M  V30 8451 C 769.896 -1.07107 -5.112 0
M  V30 8452 H 771.59 -0.883452 -2.86069 0
M  V30 8453 H 769.136 -0.426283 -1.37546 0
M  V30 8454 H 771.089 1.25927 -4.02145 0
M  V30 8455 H 769.813 1.62413 -2.83354 0
M  V30 8456 H 768.472 -0.346043 -3.64963 0
M  V30 8457 H 768.12 1.91917 -4.64948 0
M  V30 8458 H 767.82 0.63026 -5.8421 0
M  V30 8459 H 769.344 1.56068 -5.90318 0
M  V30 8460 H 770.758 -0.700726 -5.69002 0
M  V30 8461 H 769.155 -1.48196 -5.81514 0
M  V30 8462 H 770.225 -1.89513 -4.46332 0
M  V30 8463 N 771.568 1.50203 -0.477153 0
M  V30 8464 C 772.498 2.31517 0.303646 0
M  V30 8465 C 773.479 1.38696 0.984753 0
M  V30 8466 O 774.664 1.67615 0.980758 0
M  V30 8467 C 771.794 3.18598 1.38249 0
M  V30 8468 C 770.748 4.2002 0.822645 0
M  V30 8469 C 770.074 4.95878 2.00024 0
M  V30 8470 C 771.374 5.22023 -0.170185 0
M  V30 8471 H 773.068 2.97042 -0.375027 0
M  V30 8472 H 770.614 1.42848 -0.181802 0
M  V30 8473 H 772.567 3.74282 1.93625 0
M  V30 8474 H 771.291 2.5097 2.09002 0
M  V30 8475 H 769.95 3.65445 0.290813 0
M  V30 8476 H 769.598 4.24717 2.69489 0
M  V30 8477 H 769.298 5.64487 1.63183 0
M  V30 8478 H 770.822 5.54399 2.55878 0
M  V30 8479 H 772.236 5.72543 0.294606 0
M  V30 8480 H 770.633 5.98386 -0.453181 0
M  V30 8481 H 771.703 4.72396 -1.09408 0
M  V30 8482 N 773.046 0.209999 1.56195 0
M  V30 8483 C 774.457 -0.299943 1.84275 0
M  V30 8484 C 774.808 -1.60314 1.1311 0
M  V30 8485 O 773.933 -2.1273 0.396874 0
M  V30 8486 C 774.528 -0.550986 3.3429 0
M  V30 8487 C 773.087 -1.00526 3.62728 0
M  V30 8488 C 772.234 -0.0619828 2.77231 0
M  V30 8489 H 775.185 0.433458 1.52666 0
M  V30 8490 H 775.206 -1.39846 3.53869 0
M  V30 8491 H 774.718 0.397669 3.86057 0
M  V30 8492 H 772.819 -1.96768 3.16407 0
M  V30 8493 H 772.932 -0.887664 4.70805 0
M  V30 8494 H 771.296 -0.566648 2.48317 0
M  V30 8495 H 772.079 0.881383 3.31793 0
M  V30 8496 N 774.524 -1.57472 -0.0634922 0
M  V30 8497 C 775.454 -2.07297 -1.07473 0
M  V30 8498 C 776.435 -0.968162 -1.39859 0
M  V30 8499 O 777.62 -1.24139 -1.49343 0
M  V30 8500 C 774.75 -2.52381 -2.38581 0
M  V30 8501 C 773.704 -3.66813 -2.20526 0
M  V30 8502 C 773.03 -3.97982 -3.57092 0
M  V30 8503 C 774.33 -4.96553 -1.61965 0
M  V30 8504 H 776.024 -2.92033 -0.660092 0
M  V30 8505 H 773.57 -1.40488 -0.316074 0
M  V30 8506 H 775.523 -2.85852 -3.09624 0
M  V30 8507 H 774.247 -1.64684 -2.8204 0
M  V30 8508 H 772.906 -3.33639 -1.51924 0
M  V30 8509 H 772.554 -3.07403 -3.98136 0
M  V30 8510 H 772.254 -4.7504 -3.45848 0
M  V30 8511 H 773.778 -4.33956 -4.29552 0
M  V30 8512 H 775.192 -5.28201 -2.22883 0
M  V30 8513 H 773.589 -5.7799 -1.61394 0
M  V30 8514 H 774.659 -4.81396 -0.581918 0
M  V30 8515 N 776.003 0.335068 -1.53997 0
M  V30 8516 C 777.249 1.07594 -1.71905 0
M  V30 8517 C 777.582 1.88039 -0.485264 0
M  V30 8518 O 776.857 1.87482 0.517752 0
M  V30 8519 C 777.14 2.01016 -2.98772 0
M  V30 8520 C 776.993 1.23977 -4.32377 0
M  V30 8521 C 778.312 3.0071 -3.21343 0
M  V30 8522 H 775.431 0.38976 -0.625505 0
M  V30 8523 H 778.073 0.353684 -1.86679 0
M  V30 8524 H 776.223 2.62603 -2.86307 0
M  V30 8525 H 777.895 0.649383 -4.56706 0
M  V30 8526 H 776.138 0.541878 -4.30402 0
M  V30 8527 H 776.809 1.92512 -5.17342 0
M  V30 8528 H 779.285 2.4924 -3.33194 0
M  V30 8529 H 778.161 3.63272 -4.11491 0
M  V30 8530 H 778.422 3.72549 -2.38033 0
M  V30 8531 N 777.481 1.45874 0.596531 0
M  V30 8532 C 778.706 1.54247 1.38646 0
M  V30 8533 C 779.131 0.179571 1.87241 0
M  V30 8534 O 778.489 -0.837831 1.6078 0
M  V30 8535 C 778.537 2.54015 2.55946 0
M  V30 8536 O 777.641 2.06561 3.5694 0
M  V30 8537 H 776.982 0.519555 0.413471 0
M  V30 8538 H 779.512 1.91327 0.724936 0
M  V30 8539 H 779.522 2.73179 3.03047 0
M  V30 8540 H 778.197 3.52994 2.19928 0
M  V30 8541 H 776.774 1.97324 3.16414 0
M  V30 8542 N 778.959 -0.83999 1.33349 0
M  V30 8543 C 780.236 -1.57973 1.15342 0
M  V30 8544 C 780.616 -2.09226 -0.280632 0
M  V30 8545 O 779.964 -1.89317 -1.2795 0
M  V30 8546 C 780.174 -2.71446 2.19359 0
M  V30 8547 C 781.522 -3.40654 2.53456 0
M  V30 8548 O 782.546 -2.81686 2.18017 0
M  V30 8549 O 781.405 -4.47101 3.14266 0
M  V30 8550 H 778.499 -0.6964 0.446044 0
M  V30 8551 H 781.045 -0.882843 1.44927 0
M  V30 8552 H 779.817 -2.31205 3.1569 0
M  V30 8553 H 779.44 -3.488 1.90852 0
M  V30 8554 N 780.437 -1.16799 -1.0581 0
M  V30 8555 C 781.347 -0.893492 -2.16919 0
M  V30 8556 C 782.363 0.136061 -1.73467 0
M  V30 8557 O 783.539 -0.0417348 -2.01357 0
M  V30 8558 C 780.604 -0.403763 -3.44341 0
M  V30 8559 C 779.665 -1.49914 -4.02274 0
M  V30 8560 C 778.898 -1.03269 -5.23614 0
M  V30 8561 O 779.121 0.115647 -5.70283 0
M  V30 8562 O 778.055 -1.8231 -5.73626 0
M  V30 8563 H 781.881 -1.82274 -2.42919 0
M  V30 8564 H 779.466 -0.948361 -1.1544 0
M  V30 8565 H 781.348 -0.137874 -4.21174 0
M  V30 8566 H 780.023 0.497413 -3.19855 0
M  V30 8567 H 778.93 -1.81883 -3.26909 0
M  V30 8568 H 780.263 -2.3758 -4.31064 0
M  V30 8569 N 781.915 1.24427 -0.967243 0
M  V30 8570 C 783.161 1.92772 -0.629812 0
M  V30 8571 C 783.494 1.75436 0.832827 0
M  V30 8572 O 782.769 1.10716 1.59913 0
M  V30 8573 C 783.052 3.45798 -1.00477 0
M  V30 8574 C 782.905 3.72304 -2.52407 0
M  V30 8575 C 784.224 4.36787 -0.538999 0
M  V30 8576 H 781.343 0.700099 -0.230282 0
M  V30 8577 H 783.985 1.46805 -1.20616 0
M  V30 8578 H 782.135 3.8508 -0.514336 0
M  V30 8579 H 783.807 3.42584 -3.08924 0
M  V30 8580 H 782.05 3.17472 -2.95625 0
M  V30 8581 H 782.721 4.7937 -2.73693 0
M  V30 8582 H 785.197 4.04877 -0.959874 0
M  V30 8583 H 784.073 5.4259 -0.829926 0
M  V30 8584 H 784.334 4.38527 0.560923 0
M  V30 8585 N 783.393 0.737304 1.3929 0
M  V30 8586 C 784.64 0.286257 2.00467 0
M  V30 8587 C 784.968 -1.1272 1.58507 0
M  V30 8588 O 784.223 -1.7832 0.806257 0
M  V30 8589 C 784.522 0.338438 3.55794 0
M  V30 8590 C 784.188 1.70524 4.17411 0
M  V30 8591 C 782.85 2.07934 4.33955 0
M  V30 8592 C 785.202 2.60256 4.51571 0
M  V30 8593 C 782.53 3.34578 4.81948 0
M  V30 8594 C 784.882 3.86275 5.00974 0
M  V30 8595 C 783.546 4.23774 5.15725 0
M  V30 8596 H 782.816 0.104749 0.733559 0
M  V30 8597 H 785.463 0.944598 1.66582 0
M  V30 8598 H 783.768 -0.403478 3.89717 0
M  V30 8599 H 785.465 -0.0287255 4.0099 0
M  V30 8600 H 782.055 1.40439 4.04938 0
M  V30 8601 H 786.239 2.32624 4.38406 0
M  V30 8602 H 781.495 3.63572 4.91554 0
M  V30 8603 H 785.669 4.5596 5.26378 0
M  V30 8604 H 783.296 5.21972 5.52674 0
M  V30 8605 N 784.871 -1.49948 0.485112 0
M  V30 8606 C 786.12 -2.01589 -0.066765 0
M  V30 8607 C 786.433 -1.371 -1.39509 0
M  V30 8608 O 787.639 -1.79978 -2.03274 0
M  V30 8609 C 786.095 -3.59501 -0.169476 0
M  V30 8610 C 785.703 -4.32955 1.15126 0
M  V30 8611 C 787.447 -4.19138 -0.672564 0
M  V30 8612 C 785.354 -5.82684 1.01158 0
M  V30 8613 H 784.284 -0.753453 -0.0287259 0
M  V30 8614 H 786.935 -1.72632 0.622132 0
M  V30 8615 H 785.317 -3.85106 -0.922471 0
M  V30 8616 H 786.491 -4.19064 1.9163 0
M  V30 8617 H 784.806 -3.84991 1.58654 0
M  V30 8618 H 787.403 -5.28767 -0.794325 0
M  V30 8619 H 787.746 -3.81447 -1.66745 0
M  V30 8620 H 788.279 -3.97793 0.0234415 0
M  V30 8621 H 785.018 -6.24873 1.98025 0
M  V30 8622 H 784.538 -5.99112 0.287151 0
M  V30 8623 H 786.217 -6.43376 0.683847 0
M  V30 8624 N 786.349 -0.21828 -1.56081 0
M  V30 8625 C 787.765 0.137168 -1.59009 0
M  V30 8626 C 787.965 1.59215 -1.23503 0
M  V30 8627 O 787.021 2.33178 -0.968716 0
M  V30 8628 C 788.334 -0.186162 -3.00123 0
M  V30 8629 C 789.882 -0.128135 -3.12738 0
M  V30 8630 C 790.357 -0.425094 -4.56023 0
M  V30 8631 N 791.848 -0.374547 -4.61683 0
M  V30 8632 C 792.583 -0.57786 -5.70481 0
M  V30 8633 N 792.079 -0.842771 -6.87655 0
M  V30 8634 N 793.872 -0.510521 -5.59777 0
M  V30 8635 H 786.023 -1.16746 -1.77437 0
M  V30 8636 H 788.286 -0.467706 -0.824594 0
M  V30 8637 H 787.992 -1.19589 -3.30744 0
M  V30 8638 H 787.866 0.500388 -3.73866 0
M  V30 8639 H 790.253 0.872224 -2.81915 0
M  V30 8640 H 790.334 -0.848112 -2.41331 0
M  V30 8641 H 789.978 -1.42288 -4.87562 0
M  V30 8642 H 789.908 0.316038 -5.25651 0
M  V30 8643 H 792.399 -0.177356 -3.77484 0
M  V30 8644 H 792.712 -0.986095 -7.66483 0
M  V30 8645 H 791.057 -0.879929 -6.89407 0
M  V30 8646 H 794.248 -0.303813 -4.67113 0
M  V30 8647 H 794.421 -0.672378 -6.44502 0
M  V30 8648 N 787.827 1.57504 0.0551401 0
M  V30 8649 C 789.104 1.79155 0.785048 0
M  V30 8650 C 789.484 0.809995 1.94942 0
M  V30 8651 O 788.832 -0.153432 2.27984 0
M  V30 8652 C 789.042 3.26134 1.24247 0
M  V30 8653 C 790.39 3.90419 1.66908 0
M  V30 8654 O 791.414 3.30126 1.33772 0
M  V30 8655 O 790.273 4.96523 2.28314 0
M  V30 8656 H 787.367 0.735825 0.377479 0
M  V30 8657 H 789.913 1.69666 0.0339285 0
M  V30 8658 H 788.685 3.89145 0.410089 0
M  V30 8659 H 788.308 3.40411 2.05441 0
M  V30 8660 N 789.305 -0.326896 1.54172 0
M  V30 8661 C 790.551 -1.06681 1.72473 0
M  V30 8662 C 790.884 -1.87779 0.49523 0
M  V30 8663 O 790.159 -1.87754 -0.507803 0
M  V30 8664 C 790.442 -1.99429 2.99834 0
M  V30 8665 C 790.295 -1.21682 4.33028 0
M  V30 8666 C 791.614 -2.99002 3.22933 0
M  V30 8667 H 788.733 -0.386438 0.627563 0
M  V30 8668 H 791.375 -0.343779 1.86864 0
M  V30 8669 H 789.525 -2.61081 2.87696 0
M  V30 8670 H 791.197 -0.625153 4.57044 0
M  V30 8671 H 789.44 -0.519045 4.30684 0
M  V30 8672 H 790.111 -1.89766 5.18356 0
M  V30 8673 H 792.587 -2.4747 3.34511 0
M  V30 8674 H 791.463 -3.61085 4.13412 0
M  V30 8675 H 791.724 -3.71281 2.40006 0
M  V30 8676 N 790.784 -1.46188 -0.588786 0
M  V30 8677 C 791.747 -1.55882 -1.68029 0
M  V30 8678 C 792.747 -0.436515 -1.54762 0
M  V30 8679 O 793.937 -0.700626 -1.59489 0
M  V30 8680 C 791.069 -1.47332 -3.07418 0
M  V30 8681 H 792.262 -2.5315 -1.60795 0
M  V30 8682 H 789.815 -1.33908 -0.806116 0
M  V30 8683 H 790.55 -0.513193 -3.20214 0
M  V30 8684 H 790.335 -2.28753 -3.18456 0
M  V30 8685 H 791.825 -1.57187 -3.86887 0
M  V30 8686 N 792.262 0.832906 -1.33792 0
M  V30 8687 C 793.209 1.94314 -1.24541 0
M  V30 8688 C 794.179 1.65646 -0.122753 0
M  V30 8689 O 795.364 1.88394 -0.30204 0
M  V30 8690 C 792.504 3.30395 -0.996641 0
M  V30 8691 C 791.617 3.71422 -2.20612 0
M  V30 8692 C 790.752 4.96401 -1.89101 0
M  V30 8693 C 789.791 5.2998 -3.06247 0
M  V30 8694 N 788.928 6.46137 -2.74685 0
M  V30 8695 H 793.768 2.01559 -2.19495 0
M  V30 8696 H 791.305 0.986243 -1.09141 0
M  V30 8697 H 793.263 4.08803 -0.832817 0
M  V30 8698 H 791.893 3.22691 -0.0838242 0
M  V30 8699 H 790.945 2.88488 -2.47949 0
M  V30 8700 H 792.257 3.92215 -3.0817 0
M  V30 8701 H 791.411 5.82572 -1.69396 0
M  V30 8702 H 790.15 4.7759 -0.987882 0
M  V30 8703 H 789.155 4.42312 -3.26559 0
M  V30 8704 H 790.38 5.50737 -3.97323 0
M  V30 8705 H 788.326 6.28801 -1.86938 0
M  V30 8706 H 788.243 6.67054 -3.55774 0
M  V30 8707 H 789.511 7.35403 -2.58461 0
M  V30 8708 N 793.74 1.17359 1.05189 0
M  V30 8709 C 794.986 0.963413 1.78455 0
M  V30 8710 C 795.319 -0.506703 1.87473 0
M  V30 8711 O 794.594 -1.37611 1.37453 0
M  V30 8712 C 794.877 1.60519 3.22344 0
M  V30 8713 C 794.73 3.14741 3.21338 0
M  V30 8714 C 796.049 1.3091 4.20179 0
M  V30 8715 H 793.168 0.351412 0.647826 0
M  V30 8716 H 795.81 1.44858 1.22948 0
M  V30 8717 H 793.96 1.19265 3.69741 0
M  V30 8718 H 795.632 3.65053 2.82017 0
M  V30 8719 H 793.875 3.4749 2.59679 0
M  V30 8720 H 794.546 3.54775 4.22894 0
M  V30 8721 H 797.022 1.66635 3.81277 0
M  V30 8722 H 795.898 1.784 5.191 0
M  V30 8723 H 796.159 0.229908 4.41502 0
M  V30 8724 N 795.218 -1.23913 0.973828 0
M  V30 8725 C 796.165 -2.25132 0.508366 0
M  V30 8726 C 797.135 -1.59908 -0.449307 0
M  V30 8727 O 798.32 -1.87405 -0.358313 0
M  V30 8728 C 795.46 -3.4458 -0.189422 0
M  V30 8729 C 794.573 -4.24381 0.807738 0
M  V30 8730 C 793.708 -5.31131 0.0854315 0
M  V30 8731 C 792.747 -6.02635 1.07225 0
M  V30 8732 N 791.884 -7.01073 0.379535 0
M  V30 8733 H 796.724 -2.64313 1.37632 0
M  V30 8734 H 794.261 -1.29924 0.689802 0
M  V30 8735 H 796.219 -4.12706 -0.610733 0
M  V30 8736 H 794.849 -3.06218 -1.02129 0
M  V30 8737 H 793.901 -3.55735 1.34747 0
M  V30 8738 H 795.213 -4.73778 1.55998 0
M  V30 8739 H 794.367 -6.05422 -0.393572 0
M  V30 8740 H 793.106 -4.82658 -0.699461 0
M  V30 8741 H 792.111 -5.27143 1.56207 0
M  V30 8742 H 793.336 -6.53197 1.85769 0
M  V30 8743 H 791.282 -6.54862 -0.386269 0
M  V30 8744 H 791.199 -7.48382 1.07054 0
M  V30 8745 H 792.467 -7.79462 -0.0772984 0
M  V30 8746 N 796.696 -0.74468 -1.38897 0
M  V30 8747 C 797.628 -0.0713608 -2.29089 0
M  V30 8748 C 798.641 0.693224 -1.47303 0
M  V30 8749 O 799.83 0.535785 -1.70269 0
M  V30 8750 C 796.93 0.923078 -3.26087 0
M  V30 8751 C 796.103 0.217998 -4.36856 0
M  V30 8752 C 795.162 1.12192 -5.14101 0
M  V30 8753 O 794.188 0.595771 -5.66073 0
M  V30 8754 N 795.39 2.45082 -5.26227 0
M  V30 8755 H 798.155 -0.845906 -2.87514 0
M  V30 8756 H 795.716 -0.594712 -1.50581 0
M  V30 8757 H 797.708 1.53061 -3.74639 0
M  V30 8758 H 796.278 1.59876 -2.68623 0
M  V30 8759 H 795.498 -0.570134 -3.90055 0
M  V30 8760 H 796.786 -0.270248 -5.08082 0
M  V30 8761 H 796.184 2.90294 -4.85537 0
M  V30 8762 H 794.741 3.00907 -5.78185 0
M  V30 8763 N 798.174 1.49689 -0.493057 0
M  V30 8764 C 799.084 2.32746 0.294358 0
M  V30 8765 C 800.1 1.44117 0.975003 0
M  V30 8766 O 801.276 1.77149 0.958138 0
M  V30 8767 C 798.341 3.19358 1.34949 0
M  V30 8768 C 797.402 4.2383 0.683122 0
M  V30 8769 C 796.635 5.06303 1.68798 0
M  V30 8770 O 796.858 4.90172 2.91698 0
M  V30 8771 O 795.792 5.88826 1.24768 0
M  V30 8772 H 799.618 3.01247 -0.385254 0
M  V30 8773 H 797.203 1.47216 -0.254519 0
M  V30 8774 H 799.085 3.73037 1.96014 0
M  V30 8775 H 797.76 2.53561 2.01217 0
M  V30 8776 H 796.667 3.74086 0.0329351 0
M  V30 8777 H 798 4.9216 0.0630192 0
M  V30 8778 N 799.652 0.226554 1.55963 0
M  V30 8779 C 800.6 -0.697922 2.21882 0
M  V30 8780 C 801.594 -1.19586 1.19981 0
M  V30 8781 O 802.8 -1.15511 1.38048 0
M  V30 8782 H 799.175 -0.243501 0.711485 0
M  V30 8783 H 801.146 -0.118576 2.98164 0
M  V30 8784 C 799.895 -1.89309 2.91646 0
M  V30 8785 H 799.218 -1.51906 3.69817 0
M  V30 8786 H 800.658 -2.51762 3.41162 0
M  V30 8787 C 799.117 -2.75162 1.94391 0
M  V30 8788 O 799.647 -3.74071 1.46402 0
M  V30 8789 N 797.853 -2.41302 1.61932 0
M  V30 8790 H 797.4 -1.60923 2.01151 0
M  V30 8791 H 797.358 -2.99023 0.971219 0
M  V30 8792 N 801.13 -1.57531 -0.0467866 0
M  V30 8793 C 802.077 -2.05387 -1.05285 0
M  V30 8794 C 803.047 -0.939385 -1.36985 0
M  V30 8795 O 804.232 -1.20877 -1.47626 0
M  V30 8796 C 801.372 -2.52343 -2.35408 0
M  V30 8797 C 800.485 -3.77512 -2.10022 0
M  V30 8798 C 799.62 -4.1315 -3.33887 0
M  V30 8799 C 798.659 -5.31286 -3.03976 0
M  V30 8800 N 797.796 -5.62441 -4.20243 0
M  V30 8801 H 802.636 -2.91095 -0.637788 0
M  V30 8802 H 800.173 -1.43939 -0.303322 0
M  V30 8803 H 802.131 -2.77628 -3.11413 0
M  V30 8804 H 800.761 -1.69577 -2.7467 0
M  V30 8805 H 799.813 -3.59417 -1.24594 0
M  V30 8806 H 801.125 -4.63644 -1.83945 0
M  V30 8807 H 800.279 -4.39469 -4.18273 0
M  V30 8808 H 799.018 -3.25634 -3.63062 0
M  V30 8809 H 798.023 -5.04738 -2.17991 0
M  V30 8810 H 799.248 -6.20441 -2.76098 0
M  V30 8811 H 797.194 -4.77885 -4.49402 0
M  V30 8812 H 797.111 -6.43046 -3.97528 0
M  V30 8813 H 798.379 -5.93327 -5.05553 0
M  V30 8814 N 802.608 0.318715 -1.54344 0
M  V30 8815 C 803.538 1.39751 -1.87061 0
M  V30 8816 C 804.519 1.53741 -0.727848 0
M  V30 8817 O 805.704 1.67541 -0.982016 0
M  V30 8818 C 802.834 2.76446 -2.10226 0
M  V30 8819 C 801.788 2.77239 -3.26071 0
M  V30 8820 C 801.114 4.17056 -3.34617 0
M  V30 8821 C 802.414 2.40555 -4.63606 0
M  V30 8822 H 804.108 1.12619 -2.77412 0
M  V30 8823 H 801.654 0.540318 -1.33479 0
M  V30 8824 H 803.607 3.51985 -2.31699 0
M  V30 8825 H 802.331 3.05066 -1.16629 0
M  V30 8826 H 800.99 2.04155 -3.04493 0
M  V30 8827 H 800.638 4.42824 -2.3857 0
M  V30 8828 H 800.338 4.18492 -4.12478 0
M  V30 8829 H 801.862 4.94401 -3.5833 0
M  V30 8830 H 803.276 3.05808 -4.84927 0
M  V30 8831 H 801.673 2.53234 -5.44052 0
M  V30 8832 H 802.743 1.35698 -4.65526 0
M  V30 8833 N 804.086 1.46499 0.581025 0
M  V30 8834 C 805.033 1.5719 1.68997 0
M  V30 8835 C 806.003 0.416114 1.60803 0
M  V30 8836 O 807.188 0.633086 1.79991 0
M  V30 8837 C 804.328 1.56973 3.07333 0
M  V30 8838 C 803.441 2.83298 3.26139 0
M  V30 8839 C 802.576 2.74574 4.54734 0
M  V30 8840 C 801.615 3.9583 4.66889 0
M  V30 8841 N 800.752 3.85482 5.86811 0
M  V30 8842 H 805.592 2.51914 1.59196 0
M  V30 8843 H 803.129 1.24975 0.775857 0
M  V30 8844 H 805.087 1.54832 3.87405 0
M  V30 8845 H 803.717 0.657803 3.16027 0
M  V30 8846 H 802.769 2.95411 2.3966 0
M  V30 8847 H 804.081 3.7316 3.30988 0
M  V30 8848 H 803.235 2.70548 5.43036 0
M  V30 8849 H 801.974 1.82354 4.52325 0
M  V30 8850 H 800.979 4.00186 3.77003 0
M  V30 8851 H 802.204 4.89148 4.71075 0
M  V30 8852 H 800.15 2.96051 5.85397 0
M  V30 8853 H 800.067 4.69002 5.92936 0
M  V30 8854 H 801.335 3.85434 6.7754 0
M  V30 8855 N 805.565 -0.825799 1.34232 0
M  V30 8856 C 806.812 -1.58185 1.26427 0
M  V30 8857 C 807.14 -1.93786 -0.166533 0
M  V30 8858 O 806.395 -1.59986 -1.12707 0
M  V30 8859 C 806.694 -2.89362 2.09772 0
M  V30 8860 C 806.36 -2.73066 3.58812 0
M  V30 8861 C 805.022 -2.68329 3.99441 0
M  V30 8862 C 807.374 -2.56946 4.53462 0
M  V30 8863 C 804.702 -2.4539 5.32917 0
M  V30 8864 C 807.054 -2.35538 5.87115 0
M  V30 8865 C 805.718 -2.29212 6.26912 0
M  V30 8866 H 804.988 -0.57884 0.462629 0
M  V30 8867 H 807.635 -0.955714 1.65947 0
M  V30 8868 H 805.94 -3.56251 1.63071 0
M  V30 8869 H 807.637 -3.4694 2.01081 0
M  V30 8870 H 804.227 -2.77591 3.26559 0
M  V30 8871 H 808.411 -2.59631 4.22972 0
M  V30 8872 H 803.667 -2.38947 5.62774 0
M  V30 8873 H 807.841 -2.22051 6.6005 0
M  V30 8874 H 805.468 -2.11197 7.30274 0
M  V30 8875 N 807.043 -1.17915 -1.04565 0
M  V30 8876 C 808.268 -0.996749 -1.81878 0
M  V30 8877 C 808.693 0.450169 -1.82634 0
M  V30 8878 O 808.051 1.32268 -1.23995 0
M  V30 8879 C 808.099 -1.55005 -3.25585 0
M  V30 8880 O 807.203 -0.76804 -4.05185 0
M  V30 8881 H 806.544 -0.353456 -0.562108 0
M  V30 8882 H 809.074 -1.56557 -1.31723 0
M  V30 8883 H 809.084 -1.57503 -3.76373 0
M  V30 8884 H 807.759 -2.60327 -3.2435 0
M  V30 8885 H 806.336 -0.81498 -3.63885 0
M  V30 8886 N 808.521 1.23394 -0.980386 0
M  V30 8887 C 809.484 2.23092 -0.525619 0
M  V30 8888 C 810.484 1.56129 0.384745 0
M  V30 8889 O 811.674 1.73284 0.178439 0
M  V30 8890 C 808.806 3.40074 0.23712 0
M  V30 8891 H 809.999 2.64839 -1.40714 0
M  V30 8892 H 807.552 1.36227 -0.766275 0
M  V30 8893 H 808.287 3.03783 1.13518 0
M  V30 8894 H 808.072 3.89883 -0.416356 0
M  V30 8895 H 809.562 4.14043 0.543892 0
M  V30 8896 N 809.999 0.752036 1.385 0
M  V30 8897 C 811.246 0.307503 2.00152 0
M  V30 8898 C 811.574 -1.11033 1.59693 0
M  V30 8899 O 810.829 -1.77455 0.825125 0
M  V30 8900 C 811.128 0.376155 3.55415 0
M  V30 8901 C 810.794 1.74942 4.15579 0
M  V30 8902 C 809.456 2.12525 4.31725 0
M  V30 8903 C 811.808 2.65031 4.48785 0
M  V30 8904 C 809.136 3.39671 4.78373 0
M  V30 8905 C 811.488 3.91567 4.96848 0
M  V30 8906 C 810.152 4.2922 5.11201 0
M  V30 8907 H 809.422 0.112523 0.732407 0
M  V30 8908 H 812.069 0.962213 1.65571 0
M  V30 8909 H 810.374 -0.362121 3.90123 0
M  V30 8910 H 812.071 0.0138065 4.00998 0
M  V30 8911 H 808.661 1.44726 4.03426 0
M  V30 8912 H 812.845 2.3726 4.35914 0
M  V30 8913 H 808.101 3.68765 4.8767 0
M  V30 8914 H 812.275 4.61517 5.21512 0
M  V30 8915 H 809.902 5.27805 5.47107 0
M  V30 8916 N 811.477 -1.49425 0.500989 0
M  V30 8917 C 812.407 -2.31971 -0.266775 0
M  V30 8918 C 813.388 -1.40245 -0.962563 0
M  V30 8919 O 814.573 -1.69154 -0.953968 0
M  V30 8920 C 811.703 -3.20757 -1.33163 0
M  V30 8921 C 810.657 -4.21275 -0.75572 0
M  V30 8922 C 809.983 -4.98997 -1.92109 0
M  V30 8923 C 811.283 -5.21686 0.253213 0
M  V30 8924 H 812.977 -2.96408 0.422237 0
M  V30 8925 H 810.523 -1.4254 0.204505 0
M  V30 8926 H 812.476 -3.77315 -1.87646 0
M  V30 8927 H 811.2 -2.54263 -2.04983 0
M  V30 8928 H 809.859 -3.65861 -0.232637 0
M  V30 8929 H 809.507 -4.28951 -2.62698 0
M  V30 8930 H 809.207 -5.67011 -1.54182 0
M  V30 8931 H 810.731 -5.584 -2.47026 0
M  V30 8932 H 812.145 -5.72939 -0.203483 0
M  V30 8933 H 810.542 -5.9759 0.548322 0
M  V30 8934 H 811.612 -4.70596 1.16909 0
M  V30 8935 N 812.955 -0.234822 -1.55841 0
M  V30 8936 C 813.865 0.680828 -2.24504 0
M  V30 8937 C 814.881 1.20306 -1.25708 0
M  V30 8938 O 816.057 1.24188 -1.58554 0
M  V30 8939 C 813.122 1.86636 -2.92178 0
M  V30 8940 C 812.183 1.3848 -4.06352 0
M  V30 8941 C 811.416 2.51382 -4.70789 0
M  V30 8942 O 811.639 3.69831 -4.34259 0
M  V30 8943 O 810.573 2.21828 -5.59532 0
M  V30 8944 H 814.399 0.12583 -3.03439 0
M  V30 8945 H 811.984 -0.00381817 -1.494 0
M  V30 8946 H 813.866 2.55845 -3.34845 0
M  V30 8947 H 812.541 2.40921 -2.16192 0
M  V30 8948 H 811.448 0.660341 -3.68226 0
M  V30 8949 H 812.781 0.888177 -4.8412 0
M  V30 8950 N 814.433 1.57553 0.0384317 0
M  V30 8951 C 815.38 2.05942 1.04194 0
M  V30 8952 C 816.35 0.946637 1.36484 0
M  V30 8953 O 817.535 1.21658 1.46983 0
M  V30 8954 C 814.675 2.53588 2.34066 0
M  V30 8955 C 813.788 3.7862 2.08017 0
M  V30 8956 C 812.923 4.14915 3.31692 0
M  V30 8957 C 811.962 5.32891 3.01155 0
M  V30 8958 N 811.099 5.64662 4.17254 0
M  V30 8959 H 815.939 2.91429 0.622341 0
M  V30 8960 H 813.476 1.44098 0.295684 0
M  V30 8961 H 815.434 2.79276 3.09937 0
M  V30 8962 H 814.064 1.71031 2.73767 0
M  V30 8963 H 813.116 3.60073 1.22686 0
M  V30 8964 H 814.428 4.64613 1.81484 0
M  V30 8965 H 813.582 4.41681 4.15936 0
M  V30 8966 H 812.321 3.27555 3.6133 0
M  V30 8967 H 811.326 5.05887 2.15311 0
M  V30 8968 H 812.551 6.21896 2.72804 0
M  V30 8969 H 810.497 4.80261 4.46861 0
M  V30 8970 H 810.414 6.45145 3.94112 0
M  V30 8971 H 811.682 5.96 5.02399 0
M  V30 8972 N 815.911 -0.310526 1.54511 0
M  V30 8973 C 816.821 -1.4054 1.87844 0
M  V30 8974 C 817.837 -1.55954 0.771635 0
M  V30 8975 O 819.013 -1.70801 1.06719 0
M  V30 8976 C 816.078 -2.75063 2.11048 0
M  V30 8977 C 815.139 -2.68715 3.348 0
M  V30 8978 C 814.372 -3.96821 3.56887 0
M  V30 8979 O 814.595 -4.95721 2.82165 0
M  V30 8980 O 813.529 -3.99291 4.50389 0
M  V30 8981 H 817.355 -1.15275 2.80972 0
M  V30 8982 H 814.94 -0.505732 1.4058 0
M  V30 8983 H 816.822 -3.54671 2.27566 0
M  V30 8984 H 815.497 -3.00191 1.21108 0
M  V30 8985 H 814.404 -1.87611 3.23655 0
M  V30 8986 H 815.737 -2.4854 4.2484 0
M  V30 8987 N 817.389 -1.46805 -0.573248 0
M  V30 8988 C 818.619 -1.55965 -1.35494 0
M  V30 8989 C 819.027 -0.203038 -1.88107 0
M  V30 8990 O 818.37 0.81138 -1.6481 0
M  V30 8991 C 818.432 -2.51168 -2.57206 0
M  V30 8992 C 818.096 -3.97211 -2.25993 0
M  V30 8993 C 819.093 -4.86155 -1.84254 0
M  V30 8994 C 816.778 -4.42419 -2.37846 0
M  V30 8995 C 818.772 -6.18323 -1.54776 0
M  V30 8996 C 816.459 -5.74619 -2.0798 0
M  V30 8997 C 817.457 -6.62392 -1.66511 0
M  V30 8998 O 817.145 -7.92137 -1.37016 0
M  V30 8999 H 816.877 -0.529748 -0.419932 0
M  V30 9000 H 819.431 -1.92998 -0.702914 0
M  V30 9001 H 817.661 -2.09171 -3.25245 0
M  V30 9002 H 819.35 -2.50631 -3.19279 0
M  V30 9003 H 820.116 -4.52481 -1.74603 0
M  V30 9004 H 815.995 -3.74319 -2.69085 0
M  V30 9005 H 819.539 -6.8679 -1.22334 0
M  V30 9006 H 815.436 -6.0784 -2.17258 0
M  V30 9007 H 816.204 -8.04492 -1.50782 0
M  V30 9008 N 818.867 0.818669 -1.34668 0
M  V30 9009 C 819.814 1.92983 -1.26595 0
M  V30 9010 C 820.784 1.65506 -0.140315 0
M  V30 9011 O 821.969 1.88063 -0.322005 0
M  V30 9012 C 819.109 3.2932 -1.03163 0
M  V30 9013 C 818.222 3.69061 -2.24539 0
M  V30 9014 C 817.357 4.94368 -1.94355 0
M  V30 9015 C 816.396 5.26702 -3.11851 0
M  V30 9016 N 815.533 6.43187 -2.81522 0
M  V30 9017 H 820.373 1.99219 -2.2162 0
M  V30 9018 H 817.91 0.974612 -1.1018 0
M  V30 9019 H 819.868 4.07897 -0.87613 0
M  V30 9020 H 818.498 3.22584 -0.118045 0
M  V30 9021 H 817.55 2.85842 -2.50995 0
M  V30 9022 H 818.862 3.88924 -3.12313 0
M  V30 9023 H 818.016 5.80742 -1.75566 0
M  V30 9024 H 816.755 4.76515 -1.03848 0
M  V30 9025 H 815.76 4.38823 -3.31231 0
M  V30 9026 H 816.985 5.46492 -4.03142 0
M  V30 9027 H 814.931 6.26783 -1.93596 0
M  V30 9028 H 814.848 6.63243 -3.62829 0
M  V30 9029 H 816.116 7.32621 -2.66247 0
M  V30 9030 N 820.346 1.18468 1.03938 0
M  V30 9031 C 821.592 0.982286 1.77423 0
M  V30 9032 C 821.925 -0.48679 1.88 0
M  V30 9033 O 821.2 -1.36146 1.38905 0
M  V30 9034 C 821.483 1.63929 3.20623 0
M  V30 9035 C 821.336 3.18132 3.17982 0
M  V30 9036 C 822.655 1.3536 4.18767 0
M  V30 9037 H 819.774 0.358264 0.644062 0
M  V30 9038 H 822.416 1.46154 1.21405 0
M  V30 9039 H 820.566 1.2318 3.68455 0
M  V30 9040 H 822.238 3.68024 2.78129 0
M  V30 9041 H 820.481 3.50225 2.55978 0
M  V30 9042 H 821.152 3.5924 4.19107 0
M  V30 9043 H 823.628 1.70669 3.79488 0
M  V30 9044 H 822.504 1.83896 5.17178 0
M  V30 9045 H 822.765 0.276722 4.41233 0
M  V30 9046 N 821.824 -1.22873 0.986916 0
M  V30 9047 C 822.771 -2.2458 0.532215 0
M  V30 9048 C 823.741 -1.60375 -0.432322 0
M  V30 9049 O 824.926 -1.87775 -0.338416 0
M  V30 9050 C 822.066 -3.44761 -0.152864 0
M  V30 9051 C 821.179 -4.23501 0.852704 0
M  V30 9052 C 820.314 -5.31011 0.14176 0
M  V30 9053 C 819.353 -6.01464 1.1361 0
M  V30 9054 N 818.49 -7.00631 0.453871 0
M  V30 9055 H 823.33 -2.62838 1.40428 0
M  V30 9056 H 820.867 -1.29185 0.703543 0
M  V30 9057 H 822.825 -4.1333 -0.566926 0
M  V30 9058 H 821.455 -3.07284 -0.988756 0
M  V30 9059 H 820.507 -3.54286 1.38512 0
M  V30 9060 H 821.819 -4.72097 1.61014 0
M  V30 9061 H 820.973 -6.05805 -0.329337 0
M  V30 9062 H 819.712 -4.83373 -0.648229 0
M  V30 9063 H 818.717 -5.25456 1.61789 0
M  V30 9064 H 819.942 -6.5119 1.92686 0
M  V30 9065 H 817.888 -6.55235 -0.316791 0
M  V30 9066 H 817.805 -7.47204 1.14986 0
M  V30 9067 H 819.073 -7.795 0.00537823 0
M  V30 9068 N 823.302 -0.75937 -1.38099 0
M  V30 9069 C 824.551 -0.314864 -1.99227 0
M  V30 9070 C 824.864 1.1113 -1.60964 0
M  V30 9071 O 826.07 1.65657 -2.15105 0
M  V30 9072 C 824.526 -0.512001 -3.56239 0
M  V30 9073 C 824.134 -1.94762 -4.0345 0
M  V30 9074 C 825.878 -0.130497 -4.24299 0
M  V30 9075 C 823.785 -2.09301 -5.53125 0
M  V30 9076 H 822.715 -0.113978 -0.745335 0
M  V30 9077 H 825.366 -0.936736 -1.57789 0
M  V30 9078 H 823.748 0.179144 -3.95595 0
M  V30 9079 H 824.922 -2.67271 -3.75371 0
M  V30 9080 H 823.237 -2.28457 -3.48133 0
M  V30 9081 H 825.834 -0.21781 -5.34256 0
M  V30 9082 H 826.177 0.917644 -4.0606 0
M  V30 9083 H 826.71 -0.773716 -3.90203 0
M  V30 9084 H 823.449 -3.1239 -5.76275 0
M  V30 9085 H 822.969 -1.41261 -5.82928 0
M  V30 9086 H 824.648 -1.88571 -6.1891 0
M  V30 9087 N 824.78 1.49157 -0.508906 0
M  V30 9088 C 825.728 2.30922 0.278906 0
M  V30 9089 C 826.722 1.39889 0.955382 0
M  V30 9090 O 827.928 1.56901 0.882169 0
M  V30 9091 H 824.303 0.744087 0.108805 0
M  V30 9092 H 826.274 2.95277 -0.430583 0
M  V30 9093 C 825.023 3.21432 1.32576 0
M  V30 9094 H 824.346 3.91413 0.814634 0
M  V30 9095 H 825.786 3.81568 1.84882 0
M  V30 9096 C 824.245 2.41583 2.34817 0
M  V30 9097 O 824.775 2.1256 3.40854 0
M  V30 9098 N 822.981 2.03462 2.07489 0
M  V30 9099 H 822.528 2.27265 1.21278 0
M  V30 9100 H 822.486 1.50345 2.76123 0
M  V30 9101 N 826.258 0.243083 1.55714 0
M  V30 9102 C 827.669 -0.260788 1.8487 0
M  V30 9103 C 828.02 -1.57879 1.16485 0
M  V30 9104 O 827.145 -2.1184 0.441908 0
M  V30 9105 C 827.74 -0.479954 3.35383 0
M  V30 9106 C 826.299 -0.928096 3.64778 0
M  V30 9107 C 825.446 -0.00316416 2.773 0
M  V30 9108 H 828.397 0.465743 1.51712 0
M  V30 9109 H 828.418 -1.32308 3.56756 0
M  V30 9110 H 827.93 0.479468 3.85127 0
M  V30 9111 H 826.031 -1.90012 3.20509 0
M  V30 9112 H 826.144 -0.7876 4.72582 0
M  V30 9113 H 824.508 -0.513849 2.49463 0
M  V30 9114 H 825.291 0.951562 3.29849 0
M  V30 9115 N 827.736 -1.57571 -0.0300757 0
M  V30 9116 C 828.961 -1.93879 -0.736601 0
M  V30 9117 C 829.386 -0.842998 -1.68152 0
M  V30 9118 O 828.744 0.20135 -1.80178 0
M  V30 9119 C 828.792 -3.29247 -1.47066 0
M  V30 9120 O 827.896 -3.21426 -2.58378 0
M  V30 9121 H 827.237 -0.633735 -0.198181 0
M  V30 9122 H 829.767 -2.04595 0.0141485 0
M  V30 9123 H 829.777 -3.64113 -1.84081 0
M  V30 9124 H 828.452 -4.08565 -0.77764 0
M  V30 9125 H 827.029 -2.98189 -2.23914 0
M  V30 9126 N 829.214 0.302327 -1.54673 0
M  V30 9127 C 830.439 1.06103 -1.78205 0
M  V30 9128 C 830.864 1.80204 -0.53926 0
M  V30 9129 O 830.222 1.73975 0.510142 0
M  V30 9130 C 830.27 2.01829 -2.98827 0
M  V30 9131 O 829.374 3.10108 -2.71858 0
M  V30 9132 H 828.715 0.30487 -0.589873 0
M  V30 9133 H 831.245 0.340153 -2.01753 0
M  V30 9134 H 831.255 2.44319 -3.2676 0
M  V30 9135 H 829.93 1.473 -3.88942 0
M  V30 9136 H 828.507 2.72142 -2.54937 0
M  V30 9137 N 830.692 1.47107 0.565454 0
M  V30 9138 C 831.625 1.53505 1.68853 0
M  V30 9139 C 832.603 0.387806 1.57908 0
M  V30 9140 O 833.787 0.594433 1.78882 0
M  V30 9141 C 830.914 1.42985 3.07039 0
M  V30 9142 C 829.96 2.62109 3.36454 0
M  V30 9143 S 830.793 4.2436 3.26617 0
M  V30 9144 C 831.949 4.16378 4.67312 0
M  V30 9145 H 832.182 2.48522 1.63169 0
M  V30 9146 H 829.715 1.35204 0.745609 0
M  V30 9147 H 831.673 1.37602 3.8675 0
M  V30 9148 H 830.334 0.493671 3.10196 0
M  V30 9149 H 829.527 2.50788 4.37174 0
M  V30 9150 H 829.129 2.64571 2.64345 0
M  V30 9151 H 831.421 3.84123 5.58082 0
M  V30 9152 H 832.364 5.17156 4.83689 0
M  V30 9153 H 832.772 3.47363 4.44971 0
M  V30 9154 N 832.17 -0.811516 1.35101 0
M  V30 9155 C 833.417 -1.56835 1.28098 0
M  V30 9156 C 833.745 -1.93951 -0.14597 0
M  V30 9157 O 833 -1.61173 -1.11004 0
M  V30 9158 C 833.299 -2.87121 2.1283 0
M  V30 9159 C 832.965 -2.69245 3.61688 0
M  V30 9160 C 831.627 -2.64078 4.02264 0
M  V30 9161 C 833.979 -2.52122 4.56162 0
M  V30 9162 C 831.307 -2.39724 5.3549 0
M  V30 9163 C 833.659 -2.29298 5.89581 0
M  V30 9164 C 832.323 -2.2255 6.29307 0
M  V30 9165 H 831.593 -0.5739 0.468742 0
M  V30 9166 H 834.24 -0.93806 1.66951 0
M  V30 9167 H 832.545 -3.54502 1.66841 0
M  V30 9168 H 834.242 -3.44788 2.0475 0
M  V30 9169 H 830.832 -2.74112 3.29485 0
M  V30 9170 H 835.016 -2.5513 4.25702 0
M  V30 9171 H 830.272 -2.32965 5.65276 0
M  V30 9172 H 834.446 -2.15038 6.62368 0
M  V30 9173 H 832.073 -2.0344 7.32473 0
M  V30 9174 N 833.648 -1.19017 -1.03309 0
M  V30 9175 C 834.925 -0.899659 -1.73682 0
M  V30 9176 C 835.305 0.595677 -2.02521 0
M  V30 9177 O 834.653 1.55263 -1.67648 0
M  V30 9178 C 834.863 -1.75508 -3.01659 0
M  V30 9179 C 836.211 -1.98679 -3.75249 0
M  V30 9180 O 837.235 -1.72624 -3.11576 0
M  V30 9181 O 836.094 -2.42587 -4.89708 0
M  V30 9182 H 833.188 -0.334903 -0.756154 0
M  V30 9183 H 835.734 -1.29809 -1.09305 0
M  V30 9184 H 834.506 -2.7684 -2.76542 0
M  V30 9185 H 834.129 -1.35565 -3.73775 0
M  V30 9186 N 835.127 1.22348 -0.993418 0
M  V30 9187 C 836.373 1.91393 -0.67056 0
M  V30 9188 C 836.706 1.77163 0.795428 0
M  V30 9189 O 835.981 1.14084 1.57528 0
M  V30 9190 C 836.264 3.43589 -1.0779 0
M  V30 9191 C 836.117 3.66867 -2.60248 0
M  V30 9192 C 837.436 4.35545 -0.631527 0
M  V30 9193 H 834.555 0.695057 -0.24508 0
M  V30 9194 H 837.197 1.44213 -1.23703 0
M  V30 9195 H 835.347 3.83903 -0.595902 0
M  V30 9196 H 837.019 3.35954 -3.16121 0
M  V30 9197 H 835.262 3.1113 -3.02293 0
M  V30 9198 H 835.933 4.73457 -2.838 0
M  V30 9199 H 838.409 4.0275 -1.04554 0
M  V30 9200 H 837.285 5.40707 -0.944831 0
M  V30 9201 H 837.546 4.39618 0.467779 0
M  V30 9202 N 836.605 0.766683 1.37694 0
M  V30 9203 C 837.555 0.123173 2.27667 0
M  V30 9204 C 838.539 -0.679436 1.45851 0
M  V30 9205 O 839.731 -0.54324 1.68457 0
M  V30 9206 C 836.86 -0.759064 3.34803 0
M  V30 9207 C 835.946 0.0511009 4.24069 0
M  V30 9208 N 836.337 1.09418 4.93823 0
M  V30 9209 C 834.635 -0.173675 4.45662 0
M  V30 9210 C 835.336 1.58546 5.59677 0
M  V30 9211 N 834.312 0.898503 5.36123 0
M  V30 9212 H 838.114 0.921859 2.79068 0
M  V30 9213 H 835.628 0.603957 1.50752 0
M  V30 9214 H 837.625 -1.23581 3.98163 0
M  V30 9215 H 836.285 -1.55655 2.84959 0
M  V30 9216 H 837.296 1.47623 4.96415 0
M  V30 9217 H 833.973 -0.943473 4.067 0
M  V30 9218 H 835.363 2.45504 6.25442 0
M  V30 9219 N 838.083 -1.48885 0.516809 0
M  V30 9220 C 839.329 -2.02788 -0.0220928 0
M  V30 9221 C 839.662 -1.39433 -1.35175 0
M  V30 9222 O 838.937 -0.535459 -1.86984 0
M  V30 9223 C 839.22 -3.59753 -0.158012 0
M  V30 9224 C 839.073 -4.33611 1.19588 0
M  V30 9225 C 840.392 -4.30984 -0.891133 0
M  V30 9226 H 837.511 -0.736971 -0.00655488 0
M  V30 9227 H 840.153 -1.77746 0.671287 0
M  V30 9228 H 838.303 -3.8122 -0.748568 0
M  V30 9229 H 839.975 -4.23598 1.82653 0
M  V30 9230 H 838.218 -3.95547 1.78116 0
M  V30 9231 H 838.889 -5.41846 1.05391 0
M  V30 9232 H 841.365 -4.14267 -0.39012 0
M  V30 9233 H 840.241 -5.40527 -0.955107 0
M  V30 9234 H 840.502 -3.97336 -1.93847 0
M  V30 9235 N 839.561 -0.251338 -1.55583 0
M  V30 9236 C 840.508 0.646337 -2.21565 0
M  V30 9237 C 841.478 1.16796 -1.18102 0
M  V30 9238 O 842.663 1.22162 -1.46564 0
M  V30 9239 C 839.803 1.83557 -2.92234 0
M  V30 9240 C 838.916 1.35006 -4.10363 0
M  V30 9241 C 838.051 2.4992 -4.68736 0
M  V30 9242 C 837.09 1.98253 -5.79105 0
M  V30 9243 N 836.227 3.06551 -6.31642 0
M  V30 9244 H 841.067 0.0769881 -2.97901 0
M  V30 9245 H 838.604 0.026238 -1.47077 0
M  V30 9246 H 840.562 2.53425 -3.31408 0
M  V30 9247 H 839.192 2.37733 -2.18364 0
M  V30 9248 H 838.244 0.545274 -3.76472 0
M  V30 9249 H 839.556 0.931435 -4.90026 0
M  V30 9250 H 838.71 3.27823 -5.10507 0
M  V30 9251 H 837.449 2.95086 -3.88298 0
M  V30 9252 H 836.454 1.18822 -5.36807 0
M  V30 9253 H 837.679 1.54051 -6.61396 0
M  V30 9254 H 835.625 3.51143 -5.54107 0
M  V30 9255 H 835.542 2.69033 -7.06511 0
M  V30 9256 H 836.81 3.84499 -6.78071 0
M  V30 9257 N 841.039 1.57585 0.0217189 0
M  V30 9258 C 842.455 1.55072 0.377484 0
M  V30 9259 C 842.655 0.978423 1.76151 0
M  V30 9260 O 841.711 0.602688 2.45202 0
M  V30 9261 C 843.024 2.99462 0.272605 0
M  V30 9262 C 844.572 3.11047 0.349148 0
M  V30 9263 C 845.047 4.57182 0.273636 0
M  V30 9264 N 846.538 4.62007 0.332206 0
M  V30 9265 C 847.273 5.72631 0.296782 0
M  V30 9266 N 846.769 6.92472 0.21322 0
M  V30 9267 N 848.562 5.61028 0.347053 0
M  V30 9268 H 840.713 1.93133 -0.883925 0
M  V30 9269 H 842.976 0.886151 -0.33681 0
M  V30 9270 H 842.682 3.45088 -0.67878 0
M  V30 9271 H 842.556 3.61901 1.06335 0
M  V30 9272 H 844.943 2.65364 1.29097 0
M  V30 9273 H 845.024 2.51425 -0.471085 0
M  V30 9274 H 844.668 5.03534 -0.664548 0
M  V30 9275 H 844.598 5.14724 1.11207 0
M  V30 9276 H 847.089 3.75788 0.399003 0
M  V30 9277 H 847.402 7.72563 0.191492 0
M  V30 9278 H 845.747 6.94769 0.179161 0
M  V30 9279 H 848.938 4.66298 0.410378 0
M  V30 9280 H 849.111 6.47229 0.315979 0
M  V30 9281 N 842.517 -0.29412 1.54831 0
M  V30 9282 C 843.766 -1.02614 1.73647 0
M  V30 9283 C 844.079 -1.88193 0.533162 0
M  V30 9284 O 845.285 -2.64713 0.603275 0
M  V30 9285 C 843.741 -1.87417 3.07251 0
M  V30 9286 C 843.349 -1.06806 4.35082 0
M  V30 9287 C 845.093 -2.60176 3.35423 0
M  V30 9288 C 843 -1.90926 5.59733 0
M  V30 9289 H 841.93 -0.386834 0.647206 0
M  V30 9290 H 844.581 -0.282789 1.81308 0
M  V30 9291 H 842.963 -2.65765 2.93572 0
M  V30 9292 H 844.137 -0.330226 4.59615 0
M  V30 9293 H 842.452 -0.455979 4.13896 0
M  V30 9294 H 845.049 -3.23476 4.25755 0
M  V30 9295 H 845.392 -3.29365 2.54606 0
M  V30 9296 H 845.925 -1.88871 3.50103 0
M  V30 9297 H 842.664 -1.26194 6.43238 0
M  V30 9298 H 842.184 -2.62363 5.39375 0
M  V30 9299 H 843.863 -2.48807 5.97247 0
M  V30 9300 N 843.995 -1.47404 -0.557645 0
M  V30 9301 C 844.945 -1.56267 -1.66026 0
M  V30 9302 C 845.929 -0.42161 -1.55278 0
M  V30 9303 O 847.121 -0.671505 -1.63768 0
M  V30 9304 C 844.25 -1.57958 -3.04802 0
M  V30 9305 C 843.336 -2.77447 -3.20755 0
M  V30 9306 N 843.727 -4.02148 -3.06775 0
M  V30 9307 C 842.025 -2.74199 -3.51754 0
M  V30 9308 C 842.726 -4.82168 -3.25406 0
M  V30 9309 N 841.702 -4.14481 -3.5172 0
M  V30 9310 H 845.504 -2.50454 -1.53785 0
M  V30 9311 H 843.018 -1.43392 -0.762388 0
M  V30 9312 H 845.015 -1.62397 -3.8397 0
M  V30 9313 H 843.675 -0.648667 -3.18155 0
M  V30 9314 H 844.686 -4.33014 -2.84111 0
M  V30 9315 H 841.363 -1.90243 -3.71637 0
M  V30 9316 H 842.753 -5.91037 -3.19569 0
M  V30 9317 N 845.473 0.80434 -1.35529 0
M  V30 9318 C 846.383 1.94784 -1.30753 0
M  V30 9319 C 847.399 1.72703 -0.212071 0
M  V30 9320 O 848.575 1.96494 -0.441841 0
M  V30 9321 C 845.64 3.29406 -1.08133 0
M  V30 9322 C 844.701 3.64367 -2.27013 0
M  V30 9323 C 843.934 4.92566 -2.05463 0
M  V30 9324 O 844.157 5.61166 -1.02222 0
M  V30 9325 O 843.091 5.25838 -2.92879 0
M  V30 9326 H 846.917 2.01761 -2.26994 0
M  V30 9327 H 844.502 0.942448 -1.15924 0
M  V30 9328 H 846.384 4.09995 -0.973756 0
M  V30 9329 H 845.059 3.23355 -0.149444 0
M  V30 9330 H 843.966 2.84146 -2.43335 0
M  V30 9331 H 845.299 3.75125 -3.18656 0
M  V30 9332 N 846.951 1.19563 1.02676 0
M  V30 9333 C 848.181 1.0234 1.79472 0
M  V30 9334 C 848.589 -0.430891 1.84228 0
M  V30 9335 O 847.932 -1.31106 1.28674 0
M  V30 9336 C 847.994 1.51901 3.25832 0
M  V30 9337 C 847.658 3.00045 3.44706 0
M  V30 9338 C 848.655 3.9779 3.34752 0
M  V30 9339 C 846.34 3.38784 3.70851 0
M  V30 9340 C 848.334 5.32267 3.50672 0
M  V30 9341 C 846.021 4.73419 3.86416 0
M  V30 9342 C 847.019 5.69969 3.7633 0
M  V30 9343 O 846.707 7.02165 3.91432 0
M  V30 9344 H 846.439 0.360936 0.571578 0
M  V30 9345 H 848.993 1.58863 1.30198 0
M  V30 9346 H 847.223 0.897546 3.7614 0
M  V30 9347 H 848.912 1.30853 3.84229 0
M  V30 9348 H 849.678 3.69207 3.14502 0
M  V30 9349 H 845.557 2.64183 3.77794 0
M  V30 9350 H 849.101 6.07612 3.42715 0
M  V30 9351 H 844.998 5.01697 4.06165 0
M  V30 9352 H 845.766 7.09268 4.08511 0
M  V30 9353 N 848.429 -1.21819 0.999893 0
M  V30 9354 C 849.376 -2.24003 0.556005 0
M  V30 9355 C 850.346 -1.60825 -0.415287 0
M  V30 9356 O 851.531 -1.88123 -0.318481 0
M  V30 9357 C 848.671 -3.44904 -0.116289 0
M  V30 9358 C 847.784 -4.22573 0.897574 0
M  V30 9359 C 846.919 -5.30831 0.198073 0
M  V30 9360 C 845.958 -6.00225 1.19983 0
M  V30 9361 N 845.095 -7.00111 0.528157 0
M  V30 9362 H 849.935 -2.61334 1.43208 0
M  V30 9363 H 847.472 -1.28431 0.717205 0
M  V30 9364 H 849.43 -4.13908 -0.523055 0
M  V30 9365 H 848.06 -3.08315 -0.956108 0
M  V30 9366 H 847.112 -3.52797 1.42262 0
M  V30 9367 H 848.424 -4.70363 1.66013 0
M  V30 9368 H 847.578 -6.06121 -0.265065 0
M  V30 9369 H 846.317 -4.84033 -0.596924 0
M  V30 9370 H 845.322 -5.23711 1.67353 0
M  V30 9371 H 846.547 -6.4911 1.99582 0
M  V30 9372 H 844.493 -6.55534 -0.247276 0
M  V30 9373 H 844.41 -7.45943 1.22904 0
M  V30 9374 H 845.678 -7.7945 0.0880543 0
M  V30 9375 N 849.908 -0.773975 -1.37286 0
M  V30 9376 C 851.324 -0.45386 -1.53011 0
M  V30 9377 C 851.524 1.03018 -1.73175 0
M  V30 9378 O 850.58 1.81597 -1.75438 0
M  V30 9379 C 851.893 -1.27087 -2.72524 0
M  V30 9380 C 853.441 -1.26299 -2.86387 0
M  V30 9381 C 853.916 -2.0634 -4.08886 0
M  V30 9382 N 855.407 -2.03706 -4.16003 0
M  V30 9383 C 856.142 -2.62418 -5.09828 0
M  V30 9384 N 855.638 -3.29926 -6.09197 0
M  V30 9385 N 857.431 -2.52236 -5.02328 0
M  V30 9386 H 849.582 -1.73551 -1.22449 0
M  V30 9387 H 851.845 -0.736874 -0.596423 0
M  V30 9388 H 851.551 -2.32263 -2.64096 0
M  V30 9389 H 851.425 -0.90157 -3.66267 0
M  V30 9390 H 853.812 -0.219213 -2.94285 0
M  V30 9391 H 853.893 -1.67195 -1.93596 0
M  V30 9392 H 853.537 -3.10741 -4.01749 0
M  V30 9393 H 853.467 -1.62825 -5.00795 0
M  V30 9394 H 855.958 -1.54559 -3.44848 0
M  V30 9395 H 856.271 -3.72095 -6.77322 0
M  V30 9396 H 854.616 -3.34026 -6.09469 0
M  V30 9397 H 857.807 -1.99108 -4.23643 0
M  V30 9398 H 857.98 -2.98286 -5.75265 0
M  V30 9399 N 851.386 1.48609 -0.524698 0
M  V30 9400 C 852.318 2.27508 0.278 0
M  V30 9401 C 853.331 1.35042 0.909258 0
M  V30 9402 O 854.52 1.60136 0.788592 0
M  V30 9403 C 851.62 3.08247 1.40843 0
M  V30 9404 C 850.793 4.28455 0.880083 0
M  V30 9405 C 849.852 4.91048 1.891 0
M  V30 9406 O 848.878 5.5042 1.45005 0
M  V30 9407 N 850.08 4.82816 3.22288 0
M  V30 9408 H 852.845 2.97037 -0.398642 0
M  V30 9409 H 850.406 1.57876 -0.358698 0
M  V30 9410 H 852.398 3.46992 2.08276 0
M  V30 9411 H 850.968 2.41173 1.98883 0
M  V30 9412 H 850.188 3.94189 0.0299228 0
M  V30 9413 H 851.476 5.06279 0.505881 0
M  V30 9414 H 850.874 4.3572 3.60783 0
M  V30 9415 H 849.431 5.25676 3.85368 0
M  V30 9416 N 852.864 0.259585 1.55447 0
M  V30 9417 C 853.794 -0.62852 2.24882 0
M  V30 9418 C 854.775 -1.17128 1.23349 0
M  V30 9419 O 855.96 -1.20829 1.52033 0
M  V30 9420 C 853.09 -1.81983 2.95803 0
M  V30 9421 C 852.044 -1.40929 4.04132 0
M  V30 9422 C 851.37 -2.68246 4.62545 0
M  V30 9423 C 852.67 -0.570956 5.1917 0
M  V30 9424 H 854.364 -0.0495021 2.99359 0
M  V30 9425 H 851.91 -0.0223688 1.43983 0
M  V30 9426 H 853.863 -2.44689 3.43082 0
M  V30 9427 H 852.587 -2.42444 2.18835 0
M  V30 9428 H 851.246 -0.805519 3.57641 0
M  V30 9429 H 850.894 -3.26931 3.82263 0
M  V30 9430 H 850.594 -2.41495 5.35681 0
M  V30 9431 H 852.118 -3.31827 5.12565 0
M  V30 9432 H 853.532 -1.10262 5.62597 0
M  V30 9433 H 851.929 -0.398979 5.98772 0
M  V30 9434 H 852.999 0.413918 4.8313 0
M  V30 9435 N 854.342 -1.57594 -0.0133615 0
M  V30 9436 C 855.272 -2.10611 -1.00823 0
M  V30 9437 C 856.253 -1.01217 -1.36708 0
M  V30 9438 O 857.438 -1.28827 -1.45318 0
M  V30 9439 C 854.568 -2.59844 -2.30431 0
M  V30 9440 C 853.522 -3.73644 -2.08745 0
M  V30 9441 C 852.848 -4.09141 -3.4425 0
M  V30 9442 C 854.148 -5.01454 -1.46086 0
M  V30 9443 H 855.842 -2.93985 -0.566849 0
M  V30 9444 H 853.388 -1.41423 -0.271219 0
M  V30 9445 H 855.341 -2.95557 -3.00373 0
M  V30 9446 H 854.065 -1.73573 -2.76658 0
M  V30 9447 H 852.724 -3.38303 -1.41232 0
M  V30 9448 H 852.372 -3.19914 -3.88155 0
M  V30 9449 H 852.072 -4.85802 -3.3056 0
M  V30 9450 H 853.596 -4.47402 -4.15528 0
M  V30 9451 H 855.01 -5.35024 -2.05966 0
M  V30 9452 H 853.407 -5.82832 -1.42924 0
M  V30 9453 H 854.477 -4.83003 -0.428471 0
M  V30 9454 N 855.82 0.285905 -1.54985 0
M  V30 9455 C 856.768 1.37302 -1.87752 0
M  V30 9456 C 857.762 1.51763 -0.752616 0
M  V30 9457 O 858.968 1.53701 -0.936805 0
M  V30 9458 H 855.343 0.458935 -0.59572 0
M  V30 9459 H 857.314 1.0691 -2.78591 0
M  V30 9460 C 856.063 2.72885 -2.15474 0
M  V30 9461 H 855.386 2.62545 -3.01513 0
M  V30 9462 H 856.826 3.47925 -2.42331 0
M  V30 9463 C 855.285 3.22989 -0.958124 0
M  V30 9464 O 855.815 4.01268 -0.186219 0
M  V30 9465 N 854.021 2.80503 -0.759354 0
M  V30 9466 H 853.568 2.16961 -1.38874 0
M  V30 9467 H 853.526 3.14375 0.0396937 0
M  V30 9468 N 857.298 1.47698 0.54982 0
M  V30 9469 C 858.538 1.56286 1.31735 0
M  V30 9470 C 858.902 0.223042 1.907 0
M  V30 9471 O 860.103 0.183798 2.68171 0
M  V30 9472 C 858.374 2.65522 2.39234 0
M  V30 9473 S 859.933 2.93742 3.25977 0
M  V30 9474 H 856.751 0.551795 0.448378 0
M  V30 9475 H 859.353 1.85118 0.628629 0
M  V30 9476 H 858.057 3.61457 1.94362 0
M  V30 9477 H 857.588 2.38528 3.12838 0
M  V30 9478 H 859.603 2.31522 4.38876 0
M  V30 9479 N 858.776 -0.797141 1.35954 0
M  V30 9480 C 859.706 -1.92387 1.32323 0
M  V30 9481 C 860.687 -1.68967 0.196007 0
M  V30 9482 O 861.872 -1.90193 0.39245 0
M  V30 9483 C 859.002 -3.29286 1.10398 0
M  V30 9484 C 857.956 -3.67212 2.19862 0
M  V30 9485 C 857.282 -5.02377 1.8309 0
M  V30 9486 C 858.582 -3.76602 3.61896 0
M  V30 9487 H 860.276 -1.95683 2.26602 0
M  V30 9488 H 857.822 -0.94007 1.09081 0
M  V30 9489 H 859.775 -4.07721 1.06495 0
M  V30 9490 H 858.499 -3.26358 0.125668 0
M  V30 9491 H 857.158 -2.91069 2.22878 0
M  V30 9492 H 856.806 -4.95961 0.838527 0
M  V30 9493 H 856.506 -5.28722 2.56372 0
M  V30 9494 H 858.03 -5.8324 1.80729 0
M  V30 9495 H 859.444 -4.45246 3.6115 0
M  V30 9496 H 857.841 -4.14425 4.34018 0
M  V30 9497 H 858.911 -2.77906 3.97361 0
M  V30 9498 N 860.254 -1.20106 -1.0204 0
M  V30 9499 C 861.204 -0.914145 -2.08872 0
M  V30 9500 C 862.188 0.124503 -1.60418 0
M  V30 9501 O 863.38 -0.0823521 -1.76808 0
M  V30 9502 C 860.509 -0.463897 -3.40151 0
M  V30 9503 C 859.595 -1.53576 -3.95317 0
M  V30 9504 N 859.986 -2.75726 -4.24038 0
M  V30 9505 C 858.284 -1.40103 -4.23423 0
M  V30 9506 C 858.985 -3.44838 -4.68468 0
M  V30 9507 N 857.961 -2.72245 -4.70514 0
M  V30 9508 H 861.763 -1.8424 -2.28982 0
M  V30 9509 H 859.277 -1.0945 -1.19977 0
M  V30 9510 H 861.274 -0.239766 -4.1621 0
M  V30 9511 H 859.934 0.457779 -3.21457 0
M  V30 9512 H 860.945 -3.12412 -4.13061 0
M  V30 9513 H 857.622 -0.543472 -4.13948 0
M  V30 9514 H 859.012 -4.49342 -4.99541 0
M  V30 9515 N 861.732 1.21287 -1.00634 0
M  V30 9516 C 862.978 1.90671 -0.690822 0
M  V30 9517 C 863.311 1.77996 0.776592 0
M  V30 9518 O 862.586 1.15748 1.5631 0
M  V30 9519 C 862.869 3.42426 -1.11428 0
M  V30 9520 C 862.722 3.64086 -2.64124 0
M  V30 9521 C 864.041 4.34851 -0.677686 0
M  V30 9522 H 861.16 0.692419 -0.252439 0
M  V30 9523 H 863.802 1.42893 -1.25226 0
M  V30 9524 H 861.952 3.83249 -0.636586 0
M  V30 9525 H 863.624 3.32582 -3.19667 0
M  V30 9526 H 861.867 3.07906 -3.05576 0
M  V30 9527 H 862.538 4.7042 -2.88806 0
M  V30 9528 H 865.014 4.01619 -1.0882 0
M  V30 9529 H 863.89 5.39675 -1.00213 0
M  V30 9530 H 864.151 4.4009 0.421125 0
M  V30 9531 N 863.21 0.781244 1.36873 0
M  V30 9532 C 864.456 0.350407 1.9975 0
M  V30 9533 C 864.789 -1.07293 1.6187 0
M  V30 9534 O 864.064 -1.73983 0.869491 0
M  V30 9535 C 864.347 0.504834 3.56544 0
M  V30 9536 C 864.2 1.97127 4.04303 0
M  V30 9537 C 865.519 -0.0851272 4.40018 0
M  V30 9538 H 862.638 0.128794 0.725659 0
M  V30 9539 H 865.28 0.98606 1.6241 0
M  V30 9540 H 863.43 -0.0363006 3.88483 0
M  V30 9541 H 865.102 2.57284 3.82887 0
M  V30 9542 H 863.345 2.47676 3.56145 0
M  V30 9543 H 864.016 2.03033 5.13305 0
M  V30 9544 H 866.492 0.376704 4.14391 0
M  V30 9545 H 865.368 0.0530015 5.48874 0
M  V30 9546 H 865.629 -1.17642 4.2616 0
M  V30 9547 N 864.689 -1.48329 0.532571 0
M  V30 9548 C 865.917 -2.069 0.00354299 0
M  V30 9549 C 866.332 -1.38876 -1.27902 0
M  V30 9550 O 865.689 -0.477119 -1.76153 0
M  V30 9551 C 865.74 -3.60821 -0.221416 0
M  V30 9552 O 865.461 -4.26291 1.01034 0
M  V30 9553 C 866.962 -4.36194 -0.790531 0
M  V30 9554 H 864.182 -0.670103 0.0346836 0
M  V30 9555 H 866.726 -1.90682 0.738955 0
M  V30 9556 H 864.881 -3.76636 -0.906884 0
M  V30 9557 H 865.295 -5.18475 0.792683 0
M  V30 9558 H 866.769 -5.44657 -0.897347 0
M  V30 9559 H 867.246 -4.00798 -1.79605 0
M  V30 9560 H 867.852 -4.25064 -0.141546 0
M  V30 9561 N 866.167 -0.267825 -1.55308 0
M  V30 9562 C 867.097 0.616585 -2.25212 0
M  V30 9563 C 868.078 1.16472 -1.23969 0
M  V30 9564 O 869.263 1.20021 -1.52672 0
M  V30 9565 C 866.393 1.80412 -2.96764 0
M  V30 9566 C 865.347 1.38784 -4.04874 0
M  V30 9567 C 864.673 2.65789 -4.63961 0
M  V30 9568 C 865.973 0.543415 -5.19465 0
M  V30 9569 H 867.667 0.0336257 -2.99381 0
M  V30 9570 H 865.213 0.0147328 -1.43992 0
M  V30 9571 H 867.166 2.42866 -3.44375 0
M  V30 9572 H 865.89 2.4128 -2.20118 0
M  V30 9573 H 864.549 0.786541 -3.58063 0
M  V30 9574 H 864.197 3.24899 -3.83992 0
M  V30 9575 H 863.897 2.38651 -5.36954 0
M  V30 9576 H 865.421 3.29104 -5.14318 0
M  V30 9577 H 866.835 1.07277 -5.63174 0
M  V30 9578 H 865.232 0.367219 -5.98975 0
M  V30 9579 H 866.302 -0.439534 -4.82904 0
M  V30 9580 N 867.645 1.57599 0.00500368 0
M  V30 9581 C 868.875 1.94344 0.700998 0
M  V30 9582 C 869.283 0.868011 1.68114 0
M  V30 9583 O 868.626 -0.16214 1.82983 0
M  V30 9584 C 868.688 3.27046 1.49268 0
M  V30 9585 C 868.352 4.51992 0.674684 0
M  V30 9586 C 869.349 5.19888 -0.0354833 0
M  V30 9587 C 867.034 4.98432 0.622129 0
M  V30 9588 C 869.028 6.3252 -0.787246 0
M  V30 9589 C 866.715 6.10954 -0.133362 0
M  V30 9590 C 867.713 6.77855 -0.836788 0
M  V30 9591 O 867.401 7.88221 -1.57996 0
M  V30 9592 H 867.133 0.645572 0.20053 0
M  V30 9593 H 869.687 2.0536 -0.040718 0
M  V30 9594 H 867.917 3.12424 2.27877 0
M  V30 9595 H 869.606 3.4894 2.07355 0
M  V30 9596 H 870.372 4.85 -0.00400159 0
M  V30 9597 H 866.251 4.46189 1.15917 0
M  V30 9598 H 869.795 6.84671 -1.33683 0
M  V30 9599 H 865.692 6.45285 -0.166682 0
M  V30 9600 H 866.46 8.0471 -1.49615 0
M  V30 9601 N 869.123 -0.277682 1.55134 0
M  V30 9602 C 870.071 -1.36305 1.88478 0
M  V30 9603 C 871.065 -1.51362 0.760654 0
M  V30 9604 O 872.271 -1.53202 0.944943 0
M  V30 9605 H 868.646 -0.45577 0.598146 0
M  V30 9606 H 870.617 -1.05431 2.79154 0
M  V30 9607 C 869.366 -2.71739 2.16918 0
M  V30 9608 H 868.689 -2.60942 3.02901 0
M  V30 9609 H 870.129 -3.46635 2.44172 0
M  V30 9610 C 868.588 -3.22476 0.975239 0
M  V30 9611 O 869.118 -4.01164 0.207497 0
M  V30 9612 N 867.324 -2.80097 0.774219 0
M  V30 9613 H 866.871 -2.16221 1.40022 0
M  V30 9614 H 866.829 -3.14392 -0.023021 0
M  V30 9615 N 870.601 -1.47988 -0.541979 0
M  V30 9616 C 872.017 -1.33843 -0.869383 0
M  V30 9617 C 872.217 -0.340374 -1.98604 0
M  V30 9618 O 871.273 0.242696 -2.51331 0
M  V30 9619 C 872.586 -2.73568 -1.24823 0
M  V30 9620 C 874.134 -2.81967 -1.3588 0
M  V30 9621 C 874.609 -4.22368 -1.77114 0
M  V30 9622 N 876.1 -4.24983 -1.84237 0
M  V30 9623 C 876.835 -5.30547 -2.17503 0
M  V30 9624 N 876.331 -6.46401 -2.49275 0
M  V30 9625 N 878.124 -5.17933 -2.18406 0
M  V30 9626 H 870.275 -2.11503 0.195001 0
M  V30 9627 H 872.538 -0.947681 0.0245862 0
M  V30 9628 H 872.244 -3.48107 -0.501435 0
M  V30 9629 H 872.118 -3.06322 -2.20106 0
M  V30 9630 H 874.505 -2.07692 -2.09638 0
M  V30 9631 H 874.586 -2.52848 -0.387478 0
M  V30 9632 H 874.23 -4.97155 -1.0392 0
M  V30 9633 H 874.16 -4.48922 -2.75275 0
M  V30 9634 H 876.651 -3.41411 -1.62009 0
M  V30 9635 H 876.964 -7.22698 -2.73729 0
M  V30 9636 H 875.309 -6.49696 -2.46821 0
M  V30 9637 H 878.5 -4.26445 -1.93034 0
M  V30 9638 H 878.673 -6.00307 -2.44 0
M  V30 9639 N 872.079 0.78992 -1.36375 0
M  V30 9640 C 873.328 1.54296 -1.29906 0
M  V30 9641 C 873.641 1.95234 0.119651 0
M  V30 9642 O 874.847 2.69762 0.306708 0
M  V30 9643 C 873.303 2.78533 -2.27919 0
M  V30 9644 C 872.911 2.44767 -3.75224 0
M  V30 9645 C 874.655 3.56516 -2.30427 0
M  V30 9646 C 872.562 3.65397 -4.65015 0
M  V30 9647 H 871.492 0.579214 -0.482729 0
M  V30 9648 H 874.143 0.866845 -1.61735 0
M  V30 9649 H 872.525 3.47941 -1.89084 0
M  V30 9650 H 873.699 1.83259 -4.22792 0
M  V30 9651 H 872.014 1.79996 -3.75487 0
M  V30 9652 H 874.611 4.46143 -2.94722 0
M  V30 9653 H 874.954 3.95063 -1.31266 0
M  V30 9654 H 875.487 2.94087 -2.67876 0
M  V30 9655 H 872.226 3.31946 -5.65236 0
M  V30 9656 H 871.746 4.26072 -4.22164 0
M  V30 9657 H 873.425 4.32431 -4.81261 0
M  V30 9658 N 873.557 1.20646 1.01402 0
M  V30 9659 C 874.504 0.957618 2.09996 0
M  V30 9660 C 875.474 -0.113115 1.65714 0
M  V30 9661 O 876.659 0.032142 1.90773 0
M  V30 9662 C 873.799 0.5186 3.41181 0
M  V30 9663 C 872.912 1.65777 3.98926 0
M  V30 9664 C 872.047 1.16881 5.18182 0
M  V30 9665 C 871.086 2.2809 5.68015 0
M  V30 9666 N 870.223 1.80392 6.7853 0
M  V30 9667 H 875.063 1.88732 2.30617 0
M  V30 9668 H 872.6 0.940703 1.13089 0
M  V30 9669 H 874.558 0.245367 4.16478 0
M  V30 9670 H 873.188 -0.3741 3.20625 0
M  V30 9671 H 872.24 2.04586 3.207 0
M  V30 9672 H 873.552 2.49507 4.31912 0
M  V30 9673 H 872.706 0.851694 6.00692 0
M  V30 9674 H 871.445 0.301434 4.86768 0
M  V30 9675 H 870.45 2.60614 4.84108 0
M  V30 9676 H 871.675 3.15308 6.01463 0
M  V30 9677 H 869.621 0.959856 6.4894 0
M  V30 9678 H 869.538 2.57701 7.10722 0
M  V30 9679 H 870.806 1.51688 7.64598 0
M  V30 9680 N 875.035 -1.20752 1.01276 0
M  V30 9681 C 876.451 -1.42084 0.726934 0
M  V30 9682 C 876.651 -1.89138 -0.694907 0
M  V30 9683 O 875.707 -2.05783 -1.4632 0
M  V30 9684 C 877.02 -2.44575 1.74938 0
M  V30 9685 C 878.568 -2.58347 1.76708 0
M  V30 9686 C 879.043 -3.64078 2.77869 0
M  V30 9687 N 880.534 -3.71558 2.76585 0
M  V30 9688 C 881.269 -4.53016 3.51517 0
M  V30 9689 N 880.765 -5.38309 4.36114 0
M  V30 9690 N 882.558 -4.47512 3.40132 0
M  V30 9691 H 874.709 -0.885228 1.93074 0
M  V30 9692 H 876.972 -0.451075 0.833808 0
M  V30 9693 H 876.678 -2.1699 2.76782 0
M  V30 9694 H 876.552 -3.43503 1.55838 0
M  V30 9695 H 878.939 -2.85265 0.755516 0
M  V30 9696 H 879.02 -1.59628 1.99882 0
M  V30 9697 H 878.664 -3.37905 3.79187 0
M  V30 9698 H 878.594 -4.62412 2.51958 0
M  V30 9699 H 881.085 -3.10629 2.15216 0
M  V30 9700 H 881.398 -5.9754 4.90068 0
M  V30 9701 H 879.743 -5.37824 4.40194 0
M  V30 9702 H 882.934 -3.79912 2.73467 0
M  V30 9703 H 883.107 -5.10759 3.98784 0
M  V30 9704 N 876.513 -0.788492 -1.36457 0
M  V30 9705 C 877.79 -0.284484 -1.9352 0
M  V30 9706 C 878.17 1.2232 -1.7205 0
M  V30 9707 O 877.518 2.01424 -1.07892 0
M  V30 9708 C 877.728 -0.676106 -3.42388 0
M  V30 9709 C 879.076 -0.655327 -4.19512 0
M  V30 9710 O 880.1 -0.616523 -3.50824 0
M  V30 9711 O 878.959 -0.697391 -5.42032 0
M  V30 9712 H 876.053 -0.0701769 -0.824017 0
M  V30 9713 H 878.599 -0.870974 -1.45644 0
M  V30 9714 H 877.371 -1.71596 -3.51668 0
M  V30 9715 H 876.994 -0.0634517 -3.97549 0
M  V30 9716 N 877.991 1.48044 -0.54043 0
M  V30 9717 C 879.402 1.86418 -0.102662 0
M  V30 9718 C 879.753 1.4489 1.32293 0
M  V30 9719 O 878.878 0.844319 1.99249 0
M  V30 9720 C 879.473 3.38324 -0.179533 0
M  V30 9721 C 878.032 3.75852 0.203098 0
M  V30 9722 C 877.179 2.72097 -0.534637 0
M  V30 9723 H 880.13 1.398 -0.751103 0
M  V30 9724 H 880.151 3.75641 0.606147 0
M  V30 9725 H 879.663 3.68518 -1.21721 0
M  V30 9726 H 877.764 3.51272 1.24252 0
M  V30 9727 H 877.877 4.78884 -0.143784 0
M  V30 9728 H 876.241 2.54692 0.0203358 0
M  V30 9729 H 877.024 3.05135 -1.57314 0
M  V30 9730 N 879.47 0.276058 1.55163 0
M  V30 9731 C 880.433 -0.597924 2.21263 0
M  V30 9732 C 881.433 -1.0806 1.19078 0
M  V30 9733 O 882.623 -0.980626 1.43977 0
M  V30 9734 C 879.755 -1.82503 2.87933 0
M  V30 9735 H 880.948 -0.0207769 2.99893 0
M  V30 9736 H 878.501 0.0266823 1.56277 0
M  V30 9737 H 879.236 -2.44266 2.13318 0
M  V30 9738 H 879.021 -1.48683 3.62816 0
M  V30 9739 H 880.511 -2.44651 3.38431 0
M  V30 9740 N 880.948 -1.576 0.00335426 0
M  V30 9741 C 881.895 -2.08632 -0.986975 0
M  V30 9742 C 882.865 -0.982491 -1.33927 0
M  V30 9743 O 884.05 -1.25513 -1.43705 0
M  V30 9744 C 881.19 -2.59705 -2.27261 0
M  V30 9745 C 880.303 -3.84002 -1.97905 0
M  V30 9746 C 879.438 -4.23563 -3.20574 0
M  V30 9747 C 878.477 -5.40688 -2.8692 0
M  V30 9748 N 877.614 -5.75526 -4.02136 0
M  V30 9749 H 882.454 -2.92977 -0.544855 0
M  V30 9750 H 879.991 -1.44831 -0.257376 0
M  V30 9751 H 881.949 -2.87395 -3.02423 0
M  V30 9752 H 880.579 -1.7823 -2.69136 0
M  V30 9753 H 879.631 -3.63199 -1.13096 0
M  V30 9754 H 880.943 -4.69261 -1.69102 0
M  V30 9755 H 880.097 -4.52554 -4.04079 0
M  V30 9756 H 878.836 -3.37019 -3.52518 0
M  V30 9757 H 877.841 -5.11417 -2.01822 0
M  V30 9758 H 879.066 -6.2891 -2.5622 0
M  V30 9759 H 877.012 -4.9194 -4.33971 0
M  V30 9760 H 876.929 -6.55367 -3.76869 0
M  V30 9761 H 878.197 -6.0911 -4.8642 0
M  V30 9762 N 882.426 0.269451 -1.5528 0
M  V30 9763 C 883.389 1.31642 -1.87625 0
M  V30 9764 C 884.389 1.42182 -0.751058 0
M  V30 9765 O 885.579 1.41272 -1.01921 0
M  V30 9766 C 882.711 2.6973 -2.08467 0
M  V30 9767 H 883.904 1.0419 -2.81219 0
M  V30 9768 H 881.457 0.507685 -1.47825 0
M  V30 9769 H 882.192 3.02356 -1.17266 0
M  V30 9770 H 881.977 2.63465 -2.90394 0
M  V30 9771 H 883.467 3.4537 -2.34753 0
M  V30 9772 N 883.904 1.48273 0.534124 0
M  V30 9773 C 885.151 1.56079 1.29017 0
M  V30 9774 C 885.479 0.232912 1.931 0
M  V30 9775 O 884.734 -0.77642 1.79639 0
M  V30 9776 C 885.033 2.64468 2.40398 0
M  V30 9777 C 884.699 4.07034 1.93995 0
M  V30 9778 C 883.361 4.45838 1.81058 0
M  V30 9779 C 885.713 4.96395 1.58877 0
M  V30 9780 C 883.041 5.71812 1.31331 0
M  V30 9781 C 885.393 6.22854 1.10614 0
M  V30 9782 C 884.057 6.60518 0.962895 0
M  V30 9783 H 883.327 0.571135 0.472108 0
M  V30 9784 H 885.974 1.81973 0.5965 0
M  V30 9785 H 884.279 2.32419 3.15418 0
M  V30 9786 H 885.976 2.67725 2.98537 0
M  V30 9787 H 882.566 3.76387 2.05015 0
M  V30 9788 H 886.75 4.67096 1.67734 0
M  V30 9789 H 882.006 5.99722 1.18924 0
M  V30 9790 H 886.18 6.91495 0.825095 0
M  V30 9791 H 883.807 7.58019 0.575369 0
M  V30 9792 N 885.382 -0.782676 1.36792 0
M  V30 9793 C 886.628 -1.54311 1.3159 0
M  V30 9794 C 886.961 -1.93928 -0.102696 0
M  V30 9795 O 886.236 -1.63233 -1.05761 0
M  V30 9796 C 886.519 -2.81561 2.24489 0
M  V30 9797 C 886.372 -2.48268 3.75078 0
M  V30 9798 C 887.691 -3.83428 2.16034 0
M  V30 9799 H 884.81 -0.559828 0.479335 0
M  V30 9800 H 887.452 -0.898717 1.67401 0
M  V30 9801 H 885.602 -3.36549 1.9408 0
M  V30 9802 H 887.274 -1.99279 4.16036 0
M  V30 9803 H 885.517 -1.81116 3.94182 0
M  V30 9804 H 886.188 -3.39183 4.35499 0
M  V30 9805 H 888.664 -3.37905 2.42815 0
M  V30 9806 H 887.54 -4.70204 2.83194 0
M  V30 9807 H 887.801 -4.26887 1.14976 0
M  V30 9808 N 886.86 -1.21182 -1.00761 0
M  V30 9809 C 888.271 -1.02652 -1.55947 0
M  V30 9810 C 888.622 0.414466 -1.91772 0
M  V30 9811 O 887.747 1.29727 -1.73204 0
M  V30 9812 C 888.342 -1.85713 -2.83366 0
M  V30 9813 C 886.901 -1.71523 -3.35048 0
M  V30 9814 C 886.048 -1.83087 -2.08265 0
M  V30 9815 H 888.999 -1.35242 -0.830379 0
M  V30 9816 H 889.02 -1.36583 -3.55141 0
M  V30 9817 H 888.532 -2.90584 -2.5726 0
M  V30 9818 H 886.633 -0.693257 -3.66094 0
M  V30 9819 H 886.746 -2.53333 -4.06644 0
M  V30 9820 H 885.11 -1.26367 -2.21141 0
M  V30 9821 H 885.893 -2.8946 -1.84575 0
M  V30 9822 N 888.338 1.20213 -1.01915 0
M  V30 9823 C 889.754 1.41696 -0.734459 0
M  V30 9824 C 889.954 1.89504 0.684867 0
M  V30 9825 O 889.01 2.06556 1.45227 0
M  V30 9826 C 890.323 2.43644 -1.76233 0
M  V30 9827 C 891.871 2.57406 -1.78076 0
M  V30 9828 C 892.346 3.626 -2.79796 0
M  V30 9829 N 893.837 3.70086 -2.78551 0
M  V30 9830 C 894.572 4.51145 -3.53915 0
M  V30 9831 N 894.068 5.35988 -4.38963 0
M  V30 9832 N 895.861 4.45702 -3.425 0
M  V30 9833 H 888.012 0.874976 -1.93541 0
M  V30 9834 H 890.275 0.446647 -0.836188 0
M  V30 9835 H 889.981 2.15519 -2.77929 0
M  V30 9836 H 889.855 3.42672 -1.57657 0
M  V30 9837 H 892.242 2.8486 -0.770634 0
M  V30 9838 H 892.323 1.58565 -2.00725 0
M  V30 9839 H 891.967 3.35889 -3.80973 0
M  V30 9840 H 891.897 4.61069 -2.54407 0
M  V30 9841 H 894.388 3.09484 -2.1686 0
M  V30 9842 H 894.701 5.94932 -4.9323 0
M  V30 9843 H 893.046 5.35482 -4.4304 0
M  V30 9844 H 896.237 3.78456 -2.75478 0
M  V30 9845 H 896.41 5.08637 -4.01487 0
M  V30 9846 N 889.816 0.795718 1.36037 0
M  V30 9847 C 891.044 0.383153 2.03321 0
M  V30 9848 C 891.459 -1.00246 1.59988 0
M  V30 9849 O 890.816 -1.64406 0.792265 0
M  V30 9850 C 890.867 0.444467 3.58757 0
M  V30 9851 O 890.588 1.77544 4.00512 0
M  V30 9852 C 892.089 0.0233291 4.43294 0
M  V30 9853 H 889.309 0.157061 0.652359 0
M  V30 9854 H 891.853 1.07632 1.73884 0
M  V30 9855 H 890.008 -0.200341 3.86882 0
M  V30 9856 H 890.422 1.73065 4.95125 0
M  V30 9857 H 891.896 0.117361 5.51875 0
M  V30 9858 H 892.373 -1.03007 4.2695 0
M  V30 9859 H 892.979 0.64087 4.20444 0
M  V30 9860 N 891.294 -1.47756 0.548274 0
M  V30 9861 C 892.54 -2.02789 0.0209265 0
M  V30 9862 C 892.873 -1.42268 -1.32187 0
M  V30 9863 O 892.148 -0.575001 -1.85806 0
M  V30 9864 C 892.431 -3.60007 -0.0816674 0
M  V30 9865 C 892.284 -4.30977 1.28759 0
M  V30 9866 C 893.603 -4.32777 -0.799515 0
M  V30 9867 H 890.722 -0.736944 0.00907884 0
M  V30 9868 H 893.364 -1.76282 0.708839 0
M  V30 9869 H 891.514 -3.82722 -0.667537 0
M  V30 9870 H 893.186 -4.19629 1.91597 0
M  V30 9871 H 891.429 -3.9168 1.86466 0
M  V30 9872 H 892.1 -5.39488 1.16861 0
M  V30 9873 H 894.576 -4.15001 -0.30216 0
M  V30 9874 H 893.452 -5.42431 -0.840239 0
M  V30 9875 H 893.713 -4.01358 -1.85375 0
M  V30 9876 N 892.772 -0.284283 -1.55015 0
M  V30 9877 C 893.705 0.640779 -2.19019 0
M  V30 9878 C 894.683 1.14541 -1.15409 0
M  V30 9879 O 895.867 1.21669 -1.43975 0
M  V30 9880 C 892.994 1.87488 -2.82074 0
M  V30 9881 C 892.04 1.50494 -3.99066 0
M  V30 9882 S 892.873 0.575218 -5.32402 0
M  V30 9883 C 894.029 1.81749 -5.98931 0
M  V30 9884 H 894.262 0.0969761 -2.97142 0
M  V30 9885 H 891.795 -0.0684929 -1.54248 0
M  V30 9886 H 893.753 2.58319 -3.19032 0
M  V30 9887 H 892.414 2.38984 -2.03828 0
M  V30 9888 H 891.607 2.42349 -4.41908 0
M  V30 9889 H 891.209 0.876741 -3.63578 0
M  V30 9890 H 893.501 2.76026 -6.18721 0
M  V30 9891 H 894.444 1.43192 -6.93471 0
M  V30 9892 H 894.852 1.98661 -5.28388 0
M  V30 9893 N 894.251 1.57596 -0.0117121 0
M  V30 9894 C 895.5 1.9025 0.669921 0
M  V30 9895 C 895.813 0.887986 1.74282 0
M  V30 9896 O 897.019 1.10516 2.47989 0
M  V30 9897 C 895.475 3.37762 1.24277 0
M  V30 9898 C 895.083 4.47535 0.204076 0
M  V30 9899 C 896.827 3.79509 1.90192 0
M  V30 9900 C 894.734 5.86132 0.787577 0
M  V30 9901 H 893.664 0.709935 0.253984 0
M  V30 9902 H 896.315 1.8335 -0.0741718 0
M  V30 9903 H 894.697 3.39537 2.03791 0
M  V30 9904 H 895.871 4.57294 -0.56733 0
M  V30 9905 H 894.186 4.14881 -0.355305 0
M  V30 9906 H 896.783 4.80402 2.34773 0
M  V30 9907 H 897.126 3.13643 2.7374 0
M  V30 9908 H 897.659 3.80084 1.17394 0
M  V30 9909 H 894.398 6.55499 -0.00938418 0
M  V30 9910 H 893.918 5.80014 1.52787 0
M  V30 9911 H 895.597 6.34158 1.28265 0
M  V30 9912 N 895.729 -0.261212 1.5542 0
M  V30 9913 C 896.977 -0.989272 1.76232 0
M  V30 9914 C 897.298 -1.86389 0.573067 0
M  V30 9915 O 896.568 -1.91526 -0.41166 0
M  V30 9916 H 895.148 -0.368256 0.64992 0
M  V30 9917 H 897.81 -0.282603 1.9284 0
M  V30 9918 H 896.906 -1.61935 2.66802 0
M  V30 9919 N 897.207 -1.48554 -0.526253 0
M  V30 9920 C 898.455 -1.56452 -1.27935 0
M  V30 9921 C 898.776 -0.24184 -1.93495 0
M  V30 9922 O 898.046 0.736917 -1.81511 0
M  V30 9923 H 896.626 -0.576379 -0.47518 0
M  V30 9924 H 899.288 -1.85039 -0.612083 0
M  V30 9925 H 898.384 -2.34751 -2.05666 0
M  V30 9926 N 898.685 0.775411 -1.37205 0
M  V30 9927 C 899.632 1.88857 -1.32671 0
M  V30 9928 C 900.602 1.64976 -0.192899 0
M  V30 9929 O 901.787 1.86944 -0.381673 0
M  V30 9930 C 898.927 3.25871 -1.13588 0
M  V30 9931 C 898.04 3.61731 -2.36167 0
M  V30 9932 C 897.175 4.87934 -2.09985 0
M  V30 9933 C 896.214 5.16514 -3.2845 0
M  V30 9934 N 895.351 6.33905 -3.01842 0
M  V30 9935 H 900.191 1.92068 -2.27846 0
M  V30 9936 H 897.728 0.939066 -1.13225 0
M  V30 9937 H 899.686 4.04903 -1.00546 0
M  V30 9938 H 898.316 3.22045 -0.220613 0
M  V30 9939 H 897.368 2.77712 -2.59962 0
M  V30 9940 H 898.68 3.78792 -3.24528 0
M  V30 9941 H 897.834 5.74863 -1.93953 0
M  V30 9942 H 896.573 4.7297 -1.18956 0
M  V30 9943 H 895.578 4.28063 -3.45025 0
M  V30 9944 H 896.803 5.33389 -4.20325 0
M  V30 9945 H 894.749 6.20306 -2.13439 0
M  V30 9946 H 894.666 6.51364 -3.83746 0
M  V30 9947 H 895.934 7.23779 -2.8942 0
M  V30 9948 N 900.163 1.21714 1.00117 0
M  V30 9949 C 901.126 0.981338 2.07129 0
M  V30 9950 C 902.126 -0.0491116 1.60725 0
M  V30 9951 O 903.316 0.188555 1.73177 0
M  V30 9952 C 900.448 0.480608 3.37495 0
M  V30 9953 H 901.641 1.93075 2.29482 0
M  V30 9954 H 899.194 1.03467 1.17151 0
M  V30 9955 H 899.929 -0.473552 3.20824 0
M  V30 9956 H 899.714 1.22393 3.72508 0
M  V30 9957 H 901.204 0.33561 4.16249 0
M  V30 9958 N 901.641 -1.19671 1.02551 0
M  V30 9959 C 902.604 -2.20987 0.608055 0
M  V30 9960 C 903.604 -1.5745 -0.326534 0
M  V30 9961 O 904.794 -1.73827 -0.114003 0
M  V30 9962 C 901.926 -3.4072 -0.11074 0
M  V30 9963 H 903.119 -2.59434 1.50446 0
M  V30 9964 H 900.672 -1.3329 0.816307 0
M  V30 9965 H 901.407 -3.07787 -1.02165 0
M  V30 9966 H 901.192 -3.88069 0.560772 0
M  V30 9967 H 902.682 -4.15776 -0.389848 0
M  V30 9968 N 903.119 -0.802921 -1.35613 0
M  V30 9969 C 904.53 -0.443004 -1.81368 0
M  V30 9970 C 904.881 1.03459 -1.66706 0
M  V30 9971 O 904.006 1.80372 -1.19561 0
M  V30 9972 C 904.601 -0.797324 -3.29284 0
M  V30 9973 C 903.16 -0.490055 -3.73196 0
M  V30 9974 C 902.307 -1.02487 -2.57666 0
M  V30 9975 H 905.258 -0.994888 -1.23643 0
M  V30 9976 H 905.279 -0.0934638 -3.80385 0
M  V30 9977 H 904.791 -1.87278 -3.39924 0
M  V30 9978 H 902.892 0.576818 -3.68108 0
M  V30 9979 H 903.005 -1.02012 -4.68114 0
M  V30 9980 H 901.369 -0.44738 -2.5074 0
M  V30 9981 H 902.152 -2.10636 -2.71085 0
M  V30 9982 N 904.597 1.47463 -0.556102 0
M  V30 9983 C 905.845 2.02075 -0.0315712 0
M  V30 9984 C 906.166 1.43292 1.32259 0
M  V30 9985 O 905.436 0.60771 1.86236 0
M  V30 9986 H 904.016 0.74695 -0.0086816 0
M  V30 9987 H 906.678 1.80879 -0.725859 0
M  V30 9988 H 905.774 3.12047 0.0573538 0
M  V30 9989 N 906.075 0.2925 1.54862 0
M  V30 9990 C 907.305 -0.321646 2.04081 0
M  V30 9991 C 907.713 -1.48712 1.16967 0
M  V30 9992 O 907.056 -1.82755 0.18609 0
M  V30 9993 C 907.118 -0.848678 3.49339 0
M  V30 9994 C 906.782 0.190416 4.56603 0
M  V30 9995 C 907.779 1.01595 5.09877 0
M  V30 9996 C 905.464 0.329666 5.01217 0
M  V30 9997 C 907.458 1.96676 6.06298 0
M  V30 9998 C 905.145 1.28393 5.9746 0
M  V30 9999 C 906.143 2.10097 6.49883 0
M  V30 10000 O 905.831 3.03907 7.44242 0
M  V30 10001 H 905.563 -0.075098 0.671816 0
M  V30 10002 H 908.117 0.427531 2.00901 0
M  V30 10003 H 906.347 -1.64823 3.49815 0
M  V30 10004 H 908.036 -1.37779 3.81801 0
M  V30 10005 H 908.802 0.919197 4.7621 0
M  V30 10006 H 904.681 -0.296317 4.60047 0
M  V30 10007 H 908.225 2.60488 6.47141 0
M  V30 10008 H 904.122 1.38144 6.30545 0
M  V30 10009 H 904.89 2.98787 7.62016 0
M  V30 10010 N 907.553 -1.57587 0.0200696 0
M  V30 10011 C 908.503 -2.0616 -0.973751 0
M  V30 10012 C 909.487 -0.960282 -1.29102 0
M  V30 10013 O 910.679 -1.22391 -1.27865 0
M  V30 10014 C 907.808 -2.58487 -2.25919 0
M  V30 10015 C 906.894 -3.75533 -1.97068 0
M  V30 10016 N 907.285 -4.86482 -1.38451 0
M  V30 10017 C 905.583 -3.83847 -2.27107 0
M  V30 10018 C 906.284 -5.67773 -1.26527 0
M  V30 10019 N 905.26 -5.14398 -1.75772 0
M  V30 10020 H 909.062 -2.89346 -0.515365 0
M  V30 10021 H 906.576 -1.61341 -0.185163 0
M  V30 10022 H 908.573 -2.91572 -2.97979 0
M  V30 10023 H 907.233 -1.76728 -2.72392 0
M  V30 10024 H 908.244 -5.06922 -1.06069 0
M  V30 10025 H 904.921 -3.12978 -2.76316 0
M  V30 10026 H 906.311 -6.66966 -0.812785 0
M  V30 10027 N 909.032 0.252966 -1.55557 0
M  V30 10028 C 909.965 1.33928 -1.84766 0
M  V30 10029 C 910.943 1.46653 -0.702254 0
M  V30 10030 O 912.127 1.62963 -0.947375 0
M  V30 10031 C 909.254 2.71348 -2.02701 0
M  V30 10032 C 908.3 2.75804 -3.25322 0
M  V30 10033 S 909.133 2.33025 -4.82141 0
M  V30 10034 C 910.289 3.72382 -5.03073 0
M  V30 10035 H 910.522 1.08951 -2.76617 0
M  V30 10036 H 908.055 0.45364 -1.47585 0
M  V30 10037 H 910.013 3.50478 -2.13718 0
M  V30 10038 H 908.674 2.93566 -1.11703 0
M  V30 10039 H 907.867 3.76713 -3.34819 0
M  V30 10040 H 907.469 2.04713 -3.12999 0
M  V30 10041 H 909.761 4.67828 -4.90044 0
M  V30 10042 H 910.704 3.67824 -6.05071 0
M  V30 10043 H 911.112 3.64614 -4.30949 0
M  V30 10044 N 910.51 1.48831 0.518367 0
M  V30 10045 C 911.473 1.63721 1.604 0
M  V30 10046 C 912.473 0.509857 1.52503 0
M  V30 10047 O 913.663 0.775922 1.55965 0
M  V30 10048 C 910.795 1.61831 3.00039 0
M  V30 10049 H 911.988 2.60534 1.48533 0
M  V30 10050 H 909.541 1.37602 0.741309 0
M  V30 10051 H 910.276 0.665387 3.17401 0
M  V30 10052 H 910.061 2.43686 3.0718 0
M  V30 10053 H 911.551 1.75467 3.78947 0
M  V30 10054 N 911.988 -0.768124 1.37614 0
M  V30 10055 C 912.935 -1.88151 1.33671 0
M  V30 10056 C 913.905 -1.64871 0.201645 0
M  V30 10057 O 915.09 -1.86739 0.391582 0
M  V30 10058 C 912.23 -3.25264 1.15314 0
M  V30 10059 C 911.343 -3.60473 2.38082 0
M  V30 10060 C 910.478 -4.86814 2.12569 0
M  V30 10061 C 909.517 -5.14765 3.31184 0
M  V30 10062 N 908.654 -6.32295 3.052 0
M  V30 10063 H 913.494 -1.90857 2.28862 0
M  V30 10064 H 911.031 -0.933048 1.13722 0
M  V30 10065 H 912.989 -4.04364 1.02691 0
M  V30 10066 H 911.619 -3.21924 0.237689 0
M  V30 10067 H 910.671 -2.7633 2.61431 0
M  V30 10068 H 911.983 -3.77065 3.26532 0
M  V30 10069 H 911.137 -5.73826 1.96999 0
M  V30 10070 H 909.876 -4.72333 1.21462 0
M  V30 10071 H 908.881 -4.26227 3.4729 0
M  V30 10072 H 910.106 -5.31153 4.23147 0
M  V30 10073 H 908.052 -6.19166 2.16726 0
M  V30 10074 H 907.969 -6.4932 3.87195 0
M  V30 10075 H 909.237 -7.22234 2.93254 0
M  V30 10076 N 913.466 -1.22244 -0.994698 0
M  V30 10077 C 914.396 -1.01513 -2.10279 0
M  V30 10078 C 915.377 0.0633365 -1.69982 0
M  V30 10079 O 916.562 -0.0985268 -1.9395 0
M  V30 10080 C 913.692 -0.59016 -3.42249 0
M  V30 10081 C 912.646 -1.61436 -3.96387 0
M  V30 10082 C 911.972 -1.04528 -5.24383 0
M  V30 10083 C 913.272 -3.00388 -4.27276 0
M  V30 10084 H 914.966 -1.94194 -2.2788 0
M  V30 10085 H 912.512 -0.935094 -1.09508 0
M  V30 10086 H 914.465 -0.432254 -4.19177 0
M  V30 10087 H 913.189 0.372308 -3.24471 0
M  V30 10088 H 911.848 -1.76001 -3.21589 0
M  V30 10089 H 911.496 -0.0742225 -5.02945 0
M  V30 10090 H 911.196 -1.72949 -5.61571 0
M  V30 10091 H 912.72 -0.898922 -6.03947 0
M  V30 10092 H 914.134 -2.89207 -4.95007 0
M  V30 10093 H 912.531 -3.65916 -4.75631 0
M  V30 10094 H 913.601 -3.50456 -3.35125 0
M  V30 10095 N 914.944 1.19125 -1.03184 0
M  V30 10096 C 916.193 1.8821 -0.725264 0
M  V30 10097 C 916.506 1.80674 0.749411 0
M  V30 10098 O 917.712 2.45037 1.16915 0
M  V30 10099 C 916.168 3.37607 -1.24697 0
M  V30 10100 C 915.776 3.53693 -2.74964 0
M  V30 10101 C 917.52 4.12149 -1.01652 0
M  V30 10102 C 915.427 4.97001 -3.20538 0
M  V30 10103 H 914.357 0.704916 -0.267599 0
M  V30 10104 H 917.008 1.34663 -1.24652 0
M  V30 10105 H 915.39 3.90569 -0.653614 0
M  V30 10106 H 916.564 3.11046 -3.39981 0
M  V30 10107 H 914.879 2.92544 -2.96322 0
M  V30 10108 H 917.476 5.17837 -1.33226 0
M  V30 10109 H 917.819 4.16274 0.0465712 0
M  V30 10110 H 918.352 3.65334 -1.57403 0
M  V30 10111 H 915.091 4.9804 -4.26189 0
M  V30 10112 H 914.611 5.40398 -2.60251 0
M  V30 10113 H 916.29 5.65669 -3.14049 0
M  V30 10114 N 916.422 0.810101 1.35185 0
M  V30 10115 C 917.671 0.388589 1.97921 0
M  V30 10116 C 917.984 -1.05079 1.64978 0
M  V30 10117 O 919.19 -1.57559 2.21105 0
M  V30 10118 C 917.646 0.643864 3.54094 0
M  V30 10119 C 917.254 2.09602 3.95943 0
M  V30 10120 C 918.998 0.287883 4.23523 0
M  V30 10121 C 916.905 2.29686 5.44976 0
M  V30 10122 H 915.835 0.141562 0.740592 0
M  V30 10123 H 918.486 0.994653 1.54204 0
M  V30 10124 H 916.868 -0.0321978 3.95987 0
M  V30 10125 H 918.042 2.81018 3.65192 0
M  V30 10126 H 916.357 2.4122 3.39414 0
M  V30 10127 H 918.954 0.415946 5.3308 0
M  V30 10128 H 919.297 -0.766305 4.09186 0
M  V30 10129 H 919.83 0.918004 3.87063 0
M  V30 10130 H 916.569 3.33563 5.64284 0
M  V30 10131 H 916.089 1.62798 5.77284 0
M  V30 10132 H 917.768 2.11411 6.11485 0
M  V30 10133 N 917.9 -1.47166 0.563914 0
M  V30 10134 C 918.847 -2.30097 -0.180013 0
M  V30 10135 C 919.817 -1.39473 -0.902019 0
M  V30 10136 O 921.002 -1.68432 -0.896396 0
M  V30 10137 C 918.142 -3.23573 -1.19978 0
M  V30 10138 C 917.255 -4.2929 -0.483149 0
M  V30 10139 C 916.39 -5.0991 -1.48879 0
M  V30 10140 C 915.429 -6.07395 -0.757513 0
M  V30 10141 N 914.566 -6.8095 -1.71031 0
M  V30 10142 H 919.406 -2.93189 0.53329 0
M  V30 10143 H 916.943 -1.4451 0.274814 0
M  V30 10144 H 918.901 -3.76196 -1.80368 0
M  V30 10145 H 917.531 -2.6233 -1.88103 0
M  V30 10146 H 916.583 -3.79671 0.235414 0
M  V30 10147 H 917.895 -4.9872 0.0894075 0
M  V30 10148 H 917.049 -5.66717 -2.16603 0
M  V30 10149 H 915.788 -4.40397 -2.09527 0
M  V30 10150 H 914.793 -5.4976 -0.0663841 0
M  V30 10151 H 916.018 -6.78919 -0.156685 0
M  V30 10152 H 913.964 -6.14162 -2.30524 0
M  V30 10153 H 913.881 -7.46574 -1.19007 0
M  V30 10154 H 915.149 -7.42326 -2.37849 0
M  V30 10155 N 919.378 -0.300708 -1.54705 0
M  V30 10156 C 920.308 0.568675 -2.26469 0
M  V30 10157 C 921.289 1.13817 -1.26411 0
M  V30 10158 O 922.474 1.16756 -1.55183 0
M  V30 10159 C 919.604 1.74077 -3.00524 0
M  V30 10160 C 918.558 1.30165 -4.07727 0
M  V30 10161 C 917.884 2.55888 -4.69495 0
M  V30 10162 C 919.184 0.433106 -5.20501 0
M  V30 10163 H 920.878 -0.0298851 -2.99385 0
M  V30 10164 H 918.424 -0.0158135 -1.43991 0
M  V30 10165 H 920.377 2.35506 -3.49449 0
M  V30 10166 H 919.101 2.36556 -2.25186 0
M  V30 10167 H 917.76 0.710414 -3.59651 0
M  V30 10168 H 917.408 3.16681 -3.90797 0
M  V30 10169 H 917.108 2.27207 -5.41895 0
M  V30 10170 H 918.632 3.18121 -5.21183 0
M  V30 10171 H 920.046 0.95307 -5.65322 0
M  V30 10172 H 918.443 0.240085 -5.9962 0
M  V30 10173 H 919.513 -0.541866 -4.81863 0
M  V30 10174 N 920.856 1.57574 -0.0284266 0
M  V30 10175 C 922.102 1.92056 0.651327 0
M  V30 10176 C 922.435 0.905092 1.71819 0
M  V30 10177 O 921.71 -0.0722703 1.94366 0
M  V30 10178 C 921.993 3.37021 1.26841 0
M  V30 10179 C 921.846 4.49304 0.211157 0
M  V30 10180 C 923.165 3.81936 2.18662 0
M  V30 10181 H 920.284 0.698428 0.235304 0
M  V30 10182 H 922.926 1.89807 -0.0855435 0
M  V30 10183 H 921.076 3.39068 1.89644 0
M  V30 10184 H 922.748 4.5939 -0.419379 0
M  V30 10185 H 920.991 4.31317 -0.463445 0
M  V30 10186 H 921.662 5.47764 0.682518 0
M  V30 10187 H 924.138 3.8162 1.65847 0
M  V30 10188 H 923.014 4.84064 2.58792 0
M  V30 10189 H 923.275 3.174 3.07749 0
M  V30 10190 N 922.334 -0.244713 1.55689 0
M  V30 10191 C 923.562 -0.989944 1.8168 0
M  V30 10192 C 923.977 -1.78863 0.604449 0
M  V30 10193 O 923.334 -1.77437 -0.426907 0
M  V30 10194 C 923.385 -1.92607 3.05916 0
M  V30 10195 O 923.106 -1.1597 4.22472 0
M  V30 10196 C 924.607 -2.78711 3.44724 0
M  V30 10197 H 921.827 -0.2912 0.604519 0
M  V30 10198 H 924.371 -0.266938 2.0275 0
M  V30 10199 H 922.526 -2.60333 2.8689 0
M  V30 10200 H 922.94 -1.79311 4.92898 0
M  V30 10201 H 924.414 -3.40141 4.34751 0
M  V30 10202 H 924.891 -3.49935 2.6541 0
M  V30 10203 H 925.497 -2.16435 3.66109 0
M  V30 10204 N 923.813 -1.49104 -0.510467 0
M  V30 10205 C 925.038 -1.62068 -1.29417 0
M  V30 10206 C 925.463 -0.288432 -1.85875 0
M  V30 10207 O 924.821 0.742667 -1.65391 0
M  V30 10208 C 924.869 -2.68506 -2.40701 0
M  V30 10209 O 923.973 -2.27021 -3.4429 0
M  V30 10210 H 923.314 -0.542778 -0.382476 0
M  V30 10211 H 925.844 -1.95228 -0.612154 0
M  V30 10212 H 925.854 -2.90383 -2.86604 0
M  V30 10213 H 924.529 -3.65216 -1.98973 0
M  V30 10214 H 923.106 -2.15436 -3.04371 0
M  V30 10215 N 925.291 0.760815 -1.38019 0
M  V30 10216 C 926.54 1.51506 -1.3315 0
M  V30 10217 C 926.853 1.95444 0.0782124 0
M  V30 10218 O 928.059 2.70352 0.249418 0
M  V30 10219 C 926.515 2.73636 -2.33776 0
M  V30 10220 C 926.123 2.36753 -3.80332 0
M  V30 10221 C 927.867 3.51548 -2.37937 0
M  V30 10222 C 925.774 3.55451 -4.72661 0
M  V30 10223 H 924.704 0.568844 -0.494907 0
M  V30 10224 H 927.355 0.832343 -1.63537 0
M  V30 10225 H 925.737 3.43852 -1.96422 0
M  V30 10226 H 926.911 1.7425 -4.26584 0
M  V30 10227 H 925.226 1.71991 -3.7922 0
M  V30 10228 H 927.823 4.39791 -3.04119 0
M  V30 10229 H 928.166 3.9219 -1.39617 0
M  V30 10230 H 928.699 2.88339 -2.74054 0
M  V30 10231 H 925.438 3.19882 -5.7215 0
M  V30 10232 H 924.958 4.17022 -4.31107 0
M  V30 10233 H 926.637 4.22125 -4.90326 0
M  V30 10234 N 926.769 1.22769 0.988202 0
M  V30 10235 C 928.017 1.05301 1.725 0
M  V30 10236 C 928.338 -0.412103 1.90596 0
M  V30 10237 O 927.608 -1.29606 1.46898 0
M  V30 10238 H 926.188 0.386658 0.639144 0
M  V30 10239 H 928.85 1.54359 1.18993 0
M  V30 10240 H 927.946 1.53465 2.71763 0
M  V30 10241 N 928.247 -1.18576 1.03814 0
M  V30 10242 C 929.524 -1.8433 0.654358 0
M  V30 10243 C 929.904 -1.92504 -0.866338 0
M  V30 10244 O 929.252 -1.44904 -1.76678 0
M  V30 10245 C 929.462 -3.22778 1.32723 0
M  V30 10246 C 930.81 -3.98841 1.45641 0
M  V30 10247 O 931.834 -3.32209 1.28514 0
M  V30 10248 O 930.693 -5.18219 1.73526 0
M  V30 10249 H 927.787 -0.794766 0.228638 0
M  V30 10250 H 930.333 -1.25989 1.13687 0
M  V30 10251 H 929.105 -3.11717 2.36534 0
M  V30 10252 H 928.728 -3.88772 0.833176 0
M  V30 10253 N 929.725 -0.817259 -1.34754 0
M  V30 10254 C 930.971 -0.403244 -1.98751 0
M  V30 10255 C 931.304 1.02963 -1.64658 0
M  V30 10256 O 930.579 1.71617 -0.915314 0
M  V30 10257 C 930.862 -0.599188 -3.5508 0
M  V30 10258 C 930.715 -2.07777 -3.98934 0
M  V30 10259 C 932.034 -0.0315656 -4.40089 0
M  V30 10260 H 929.153 -0.147988 -0.721989 0
M  V30 10261 H 931.795 -1.02877 -1.59738 0
M  V30 10262 H 929.945 -0.0667116 -3.88443 0
M  V30 10263 H 931.617 -2.67345 -3.75931 0
M  V30 10264 H 929.86 -2.57031 -3.49453 0
M  V30 10265 H 930.531 -2.16571 -5.07741 0
M  V30 10266 H 933.007 -0.48644 -4.13247 0
M  V30 10267 H 931.883 -0.198507 -5.48541 0
M  V30 10268 H 932.144 1.06302 -4.2913 0
M  V30 10269 N 931.203 1.46865 -0.571711 0
M  V30 10270 C 932.449 2.0273 -0.0531858 0
M  V30 10271 C 932.782 1.44353 1.29907 0
M  V30 10272 O 932.057 0.604488 1.84868 0
M  V30 10273 C 932.34 3.60092 0.0243831 0
M  V30 10274 C 932.193 4.28874 -1.35599 0
M  V30 10275 C 933.512 4.33994 0.730563 0
M  V30 10276 H 930.631 0.736706 -0.0208018 0
M  V30 10277 H 933.273 1.75132 -0.736794 0
M  V30 10278 H 931.423 3.83736 0.606565 0
M  V30 10279 H 933.095 4.16527 -1.98249 0
M  V30 10280 H 931.338 3.88664 -1.92674 0
M  V30 10281 H 932.009 5.37561 -1.25429 0
M  V30 10282 H 934.485 4.1543 0.236098 0
M  V30 10283 H 933.361 5.43699 0.753836 0
M  V30 10284 H 933.622 4.04257 1.78967 0
M  V30 10285 N 932.681 0.308908 1.54543 0
M  V30 10286 C 933.629 -0.579326 2.2527 0
M  V30 10287 C 934.623 -1.13058 1.26152 0
M  V30 10288 O 935.829 -1.08031 1.43977 0
M  V30 10289 H 932.204 -0.205444 0.723392 0
M  V30 10290 H 934.175 0.0396415 2.98374 0
M  V30 10291 C 932.924 -1.73584 3.01271 0
M  V30 10292 H 932.247 -1.32089 3.77349 0
M  V30 10293 H 933.687 -2.33324 3.54028 0
M  V30 10294 C 932.146 -2.6447 2.08703 0
M  V30 10295 O 932.676 -3.65785 1.66025 0
M  V30 10296 N 930.882 -2.32379 1.74495 0
M  V30 10297 H 930.429 -1.50034 2.09398 0
M  V30 10298 H 930.387 -2.93454 1.12836 0
M  V30 10299 N 934.159 -1.57557 0.0367827 0
M  V30 10300 C 935.109 -2.07182 -0.95183 0
M  V30 10301 C 936.093 -0.973921 -1.28076 0
M  V30 10302 O 937.285 -1.23741 -1.26559 0
M  V30 10303 C 934.414 -2.60869 -2.23164 0
M  V30 10304 C 933.5 -3.77602 -1.93074 0
M  V30 10305 N 933.891 -4.87923 -1.33283 0
M  V30 10306 C 932.189 -3.86234 -2.23023 0
M  V30 10307 C 932.89 -5.69083 -1.20498 0
M  V30 10308 N 931.866 -5.16233 -1.70306 0
M  V30 10309 H 935.668 -2.89876 -0.484647 0
M  V30 10310 H 933.182 -1.61528 -0.16804 0
M  V30 10311 H 935.179 -2.94716 -2.9487 0
M  V30 10312 H 933.839 -1.79607 -2.70502 0
M  V30 10313 H 934.85 -5.08018 -1.00686 0
M  V30 10314 H 931.527 -3.15891 -2.72981 0
M  V30 10315 H 932.917 -6.6779 -0.741999 0
M  V30 10316 N 935.637 0.236453 -1.55816 0
M  V30 10317 C 936.914 0.986463 -1.68903 0
M  V30 10318 C 937.294 2.02984 -0.579722 0
M  V30 10319 O 936.642 2.24693 0.415389 0
M  V30 10320 C 936.852 1.61038 -3.09625 0
M  V30 10321 C 938.2 2.10829 -3.6856 0
M  V30 10322 O 939.224 1.7096 -3.12492 0
M  V30 10323 O 938.083 2.84064 -4.66873 0
M  V30 10324 H 935.177 0.459837 -0.687371 0
M  V30 10325 H 937.723 0.229412 -1.68142 0
M  V30 10326 H 936.495 0.856232 -3.81817 0
M  V30 10327 H 936.118 2.43336 -3.14441 0
M  V30 10328 N 937.115 1.49373 0.502552 0
M  V30 10329 C 938.526 1.52 1.0841 0
M  V30 10330 C 938.877 0.305317 1.9381 0
M  V30 10331 O 938.002 -0.585023 2.08342 0
M  V30 10332 C 938.597 2.75437 1.97281 0
M  V30 10333 C 937.156 2.80848 2.50602 0
M  V30 10334 C 936.303 2.45894 1.28186 0
M  V30 10335 H 939.254 1.56092 0.286533 0
M  V30 10336 H 939.275 2.55511 2.81947 0
M  V30 10337 H 938.787 3.63827 1.35098 0
M  V30 10338 H 936.888 1.96735 3.16427 0
M  V30 10339 H 937.001 3.82979 2.8786 0
M  V30 10340 H 935.365 1.97639 1.60657 0
M  V30 10341 H 936.148 3.36556 0.677139 0
M  V30 10342 N 938.594 -0.753485 1.38421 0
M  V30 10343 C 939.84 -1.51485 1.34834 0
M  V30 10344 C 940.173 -1.94102 -0.0615381 0
M  V30 10345 O 939.448 -1.65439 -1.02274 0
M  V30 10346 C 939.731 -2.76736 2.30411 0
M  V30 10347 C 939.584 -2.40256 3.80259 0
M  V30 10348 C 940.903 -3.7876 2.24119 0
M  V30 10349 H 938.022 -0.549534 0.491102 0
M  V30 10350 H 940.664 -0.863006 1.6927 0
M  V30 10351 H 938.814 -3.32357 2.01175 0
M  V30 10352 H 940.486 -1.90409 4.20169 0
M  V30 10353 H 938.729 -1.72714 3.97935 0
M  V30 10354 H 939.4 -3.29869 4.42595 0
M  V30 10355 H 941.876 -3.32679 2.49928 0
M  V30 10356 H 940.752 -4.64092 2.93104 0
M  V30 10357 H 941.013 -4.24352 1.24006 0
M  V30 10358 N 940.072 -1.23292 -0.981677 0
M  V30 10359 C 941.318 -1.06582 -1.72535 0
M  V30 10360 C 941.651 0.396538 -1.90108 0
M  V30 10361 O 940.926 1.29363 -1.45243 0
M  V30 10362 C 941.209 -1.7904 -3.12437 0
M  V30 10363 C 941.062 -3.32941 -3.02441 0
M  V30 10364 C 942.381 -1.55185 -4.11832 0
M  V30 10365 H 939.5 -0.388585 -0.626236 0
M  V30 10366 H 942.142 -1.51779 -1.14293 0
M  V30 10367 H 940.292 -1.40619 -3.62158 0
M  V30 10368 H 941.964 -3.80875 -2.60254 0
M  V30 10369 H 940.207 -3.62039 -2.38977 0
M  V30 10370 H 940.878 -3.78827 -4.0149 0
M  V30 10371 H 943.354 -1.88581 -3.70913 0
M  V30 10372 H 942.23 -2.08362 -5.07815 0
M  V30 10373 H 942.491 -0.486925 -4.3941 0
M  V30 10374 N 941.55 1.18024 -1.04442 0
M  V30 10375 C 942.798 1.87727 -0.74854 0
M  V30 10376 C 943.119 1.80975 0.726156 0
M  V30 10377 O 942.389 1.23061 1.52423 0
M  V30 10378 H 940.969 0.694974 -0.273897 0
M  V30 10379 H 943.631 1.43213 -1.32197 0
M  V30 10380 H 942.727 2.93665 -1.05674 0
M  V30 10381 N 943.028 0.824394 1.34319 0
M  V30 10382 C 944.305 0.335692 1.92698 0
M  V30 10383 C 944.685 -1.17715 1.75232 0
M  V30 10384 O 944.033 -1.98493 1.13194 0
M  V30 10385 C 944.243 0.766647 3.40475 0
M  V30 10386 C 945.591 0.766323 4.17627 0
M  V30 10387 O 946.615 0.709321 3.49066 0
M  V30 10388 O 945.474 0.840856 5.39992 0
M  V30 10389 H 942.568 0.0919996 0.821867 0
M  V30 10390 H 945.114 0.909282 1.43283 0
M  V30 10391 H 943.886 1.80859 3.46995 0
M  V30 10392 H 943.509 0.168833 3.97241 0
M  V30 10393 N 944.506 -1.46559 0.579492 0
M  V30 10394 C 945.922 -1.57771 0.240921 0
M  V30 10395 C 946.122 -1.57505 -1.25676 0
M  V30 10396 O 945.178 -1.4903 -2.03829 0
M  V30 10397 C 946.491 -2.87311 0.887285 0
M  V30 10398 C 948.039 -3.00937 0.860576 0
M  V30 10399 C 948.514 -4.33208 1.48642 0
M  V30 10400 N 950.005 -4.39899 1.45062 0
M  V30 10401 C 950.74 -5.40856 1.90428 0
M  V30 10402 N 950.236 -6.48503 2.43752 0
M  V30 10403 N 952.029 -5.32037 1.81364 0
M  V30 10404 H 944.18 -1.44976 1.55228 0
M  V30 10405 H 946.443 -0.691354 0.648639 0
M  V30 10406 H 946.149 -2.93307 1.94071 0
M  V30 10407 H 946.023 -3.75141 0.393577 0
M  V30 10408 H 948.41 -2.94524 -0.184223 0
M  V30 10409 H 948.491 -2.14591 1.39227 0
M  V30 10410 H 948.135 -4.40378 2.5304 0
M  V30 10411 H 948.065 -5.18323 0.92998 0
M  V30 10412 H 950.556 -3.62706 1.0608 0
M  V30 10413 H 950.869 -7.21744 2.76234 0
M  V30 10414 H 949.214 -6.49332 2.47776 0
M  V30 10415 H 952.405 -4.46841 1.39465 0
M  V30 10416 H 952.578 -6.10573 2.17035 0
M  V30 10417 N 945.984 -0.3171 -1.54377 0
M  V30 10418 C 946.914 0.544623 -2.2706 0
M  V30 10419 C 947.895 1.12469 -1.27611 0
M  V30 10420 O 949.08 1.15103 -1.56413 0
M  V30 10421 C 946.21 1.70879 -3.02353 0
M  V30 10422 C 945.164 1.25833 -4.09084 0
M  V30 10423 C 944.49 2.50894 -4.72182 0
M  V30 10424 C 945.79 0.377876 -5.20931 0
M  V30 10425 H 947.484 -0.0616372 -2.99337 0
M  V30 10426 H 945.03 -0.0310848 -1.43966 0
M  V30 10427 H 946.983 2.31787 -3.51927 0
M  V30 10428 H 945.707 2.34155 -2.27682 0
M  V30 10429 H 944.366 0.672228 -3.60384 0
M  V30 10430 H 944.014 3.12518 -3.94134 0
M  V30 10431 H 943.714 2.21447 -5.44275 0
M  V30 10432 H 945.238 3.12575 -5.24528 0
M  V30 10433 H 946.652 0.893056 -5.66302 0
M  V30 10434 H 945.049 0.176474 -5.9984 0
M  V30 10435 H 946.119 -0.592943 -4.81261 0
M  V30 10436 N 947.462 1.57535 -0.0451378 0
M  V30 10437 C 948.409 2.11176 0.931313 0
M  V30 10438 C 949.379 1.01765 1.31275 0
M  V30 10439 O 950.564 1.29279 1.40327 0
M  V30 10440 C 947.704 2.65639 2.20295 0
M  V30 10441 C 946.817 3.89114 1.87654 0
M  V30 10442 C 945.952 4.31914 3.09232 0
M  V30 10443 C 944.991 5.48105 2.72484 0
M  V30 10444 N 944.128 5.85986 3.86736 0
M  V30 10445 H 948.968 2.94318 0.466986 0
M  V30 10446 H 946.505 1.45462 0.218886 0
M  V30 10447 H 948.463 2.95312 2.94697 0
M  V30 10448 H 947.093 1.85303 2.64316 0
M  V30 10449 H 946.145 3.6607 1.03427 0
M  V30 10450 H 947.457 4.7358 1.56601 0
M  V30 10451 H 946.611 4.63108 3.91939 0
M  V30 10452 H 945.35 3.46247 3.43459 0
M  V30 10453 H 944.355 5.16589 1.88192 0
M  V30 10454 H 945.58 6.35482 2.39455 0
M  V30 10455 H 943.526 5.03273 4.20775 0
M  V30 10456 H 943.443 6.65129 3.5936 0
M  V30 10457 H 944.711 6.21793 4.701 0
M  V30 10458 N 948.94 -0.228186 1.55939 0
M  V30 10459 C 950.186 -0.954964 1.78909 0
M  V30 10460 C 950.519 -1.8425 0.613648 0
M  V30 10461 O 949.794 -1.90604 -0.38737 0
M  V30 10462 C 950.077 -1.79957 3.1191 0
M  V30 10463 C 949.93 -0.938968 4.3989 0
M  V30 10464 C 951.249 -2.77859 3.41295 0
M  V30 10465 H 948.368 -0.345745 0.650868 0
M  V30 10466 H 951.01 -0.224244 1.88672 0
M  V30 10467 H 949.16 -2.42256 3.03717 0
M  V30 10468 H 950.832 -0.333225 4.60095 0
M  V30 10469 H 949.075 -0.244096 4.33113 0
M  V30 10470 H 949.746 -1.56416 5.29375 0
M  V30 10471 H 952.222 -2.25695 3.49572 0
M  V30 10472 H 951.098 -3.34062 4.35538 0
M  V30 10473 H 951.359 -3.55266 2.63132 0
M  V30 10474 N 950.418 -1.49637 -0.494624 0
M  V30 10475 C 951.667 -1.58691 -1.24499 0
M  V30 10476 C 951.98 -0.281763 -1.9356 0
M  V30 10477 O 953.186 -0.250925 -2.70338 0
M  V30 10478 C 951.642 -2.8002 -2.26091 0
M  V30 10479 C 951.25 -4.17318 -1.6294 0
M  V30 10480 C 952.994 -2.98407 -3.01916 0
M  V30 10481 C 950.901 -5.29862 -2.62679 0
M  V30 10482 H 949.831 -0.590888 -0.468367 0
M  V30 10483 H 952.482 -1.76034 -0.518112 0
M  V30 10484 H 950.864 -2.56185 -3.01969 0
M  V30 10485 H 952.038 -4.51315 -0.930108 0
M  V30 10486 H 950.353 -4.04342 -0.994819 0
M  V30 10487 H 952.95 -3.79658 -3.76516 0
M  V30 10488 H 953.293 -2.09214 -3.5991 0
M  V30 10489 H 953.826 -3.22312 -2.33152 0
M  V30 10490 H 950.565 -6.21134 -2.09458 0
M  V30 10491 H 950.085 -5.00311 -3.3083 0
M  V30 10492 H 951.764 -5.59461 -3.2498 0
M  V30 10493 N 951.896 0.746133 -1.38819 0
M  V30 10494 C 953.143 1.50545 -1.35434 0
M  V30 10495 C 953.471 1.94427 0.0532669 0
M  V30 10496 O 952.726 1.66285 1.03188 0
M  V30 10497 C 953.025 2.76639 -2.26286 0
M  V30 10498 C 952.691 2.51682 -3.74122 0
M  V30 10499 C 951.353 2.44584 -4.14406 0
M  V30 10500 C 953.705 2.30071 -4.67672 0
M  V30 10501 C 951.033 2.13902 -5.46318 0
M  V30 10502 C 953.385 2.00907 -5.99849 0
M  V30 10503 C 952.049 1.92271 -6.39209 0
M  V30 10504 H 951.319 0.550883 -0.49559 0
M  V30 10505 H 953.966 0.857337 -1.71237 0
M  V30 10506 H 952.271 3.46138 -1.83564 0
M  V30 10507 H 953.968 3.34626 -2.20967 0
M  V30 10508 H 950.558 2.5808 -3.42188 0
M  V30 10509 H 954.742 2.34528 -4.3739 0
M  V30 10510 H 949.998 2.0573 -5.75748 0
M  V30 10511 H 954.172 1.83191 -6.71874 0
M  V30 10512 H 951.799 1.68261 -7.41345 0
M  V30 10513 N 953.375 1.23811 0.975125 0
M  V30 10514 C 954.305 1.04846 2.08638 0
M  V30 10515 C 955.286 -0.0362859 1.70061 0
M  V30 10516 O 956.471 0.12937 1.93769 0
M  V30 10517 C 953.601 0.644534 3.41267 0
M  V30 10518 C 952.555 1.67722 3.93768 0
M  V30 10519 C 951.881 1.12857 5.22654 0
M  V30 10520 C 953.181 3.07147 4.22443 0
M  V30 10521 H 954.875 1.97795 2.24761 0
M  V30 10522 H 952.421 0.952397 1.08006 0
M  V30 10523 H 954.374 0.498887 4.18436 0
M  V30 10524 H 953.098 -0.320641 3.25022 0
M  V30 10525 H 951.757 1.81095 3.18748 0
M  V30 10526 H 951.405 0.154227 5.02764 0
M  V30 10527 H 951.105 1.81862 5.58749 0
M  V30 10528 H 952.629 0.994891 6.0244 0
M  V30 10529 H 954.043 2.97045 4.90344 0
M  V30 10530 H 952.44 3.73437 4.6975 0
M  V30 10531 H 953.51 3.55743 3.29507 0
M  V30 10532 N 954.853 -1.17469 1.05066 0
M  V30 10533 C 955.763 -2.25089 0.661222 0
M  V30 10534 C 956.779 -1.71086 -0.31712 0
M  V30 10535 O 957.955 -2.00685 -0.169534 0
M  V30 10536 C 955.02 -3.46676 0.0406415 0
M  V30 10537 C 954.081 -4.15771 1.06927 0
M  V30 10538 C 953.314 -5.31553 0.478208 0
M  V30 10539 O 953.537 -5.6593 -0.712714 0
M  V30 10540 O 952.471 -5.89574 1.21185 0
M  V30 10541 H 956.297 -2.60685 1.5581 0
M  V30 10542 H 953.882 -1.24744 0.822147 0
M  V30 10543 H 955.764 -4.203 -0.304312 0
M  V30 10544 H 954.439 -3.1288 -0.829909 0
M  V30 10545 H 953.346 -3.44171 1.46619 0
M  V30 10546 H 954.679 -4.53591 1.91092 0
M  V30 10547 N 956.331 -0.831506 -1.3388 0
M  V30 10548 C 957.279 -0.247896 -2.31275 0
M  V30 10549 C 958.273 0.616083 -1.578 0
M  V30 10550 O 959.479 0.506465 -1.72728 0
M  V30 10551 H 955.854 -0.0614293 -0.749487 0
M  V30 10552 H 957.825 -1.08401 -2.78014 0
M  V30 10553 C 956.574 0.568434 -3.43022 0
M  V30 10554 H 955.897 -0.0870654 -3.99705 0
M  V30 10555 H 957.337 0.942751 -4.13386 0
M  V30 10556 C 955.796 1.74431 -2.88228 0
M  V30 10557 O 956.326 2.84278 -2.83811 0
M  V30 10558 N 954.532 1.56382 -2.44935 0
M  V30 10559 H 954.079 0.670255 -2.48727 0
M  V30 10560 H 954.037 2.35208 -2.08625 0
M  V30 10561 N 957.809 1.4625 -0.587256 0
M  V30 10562 C 959.039 2.06444 -0.0802135 0
M  V30 10563 C 959.447 1.43585 1.23207 0
M  V30 10564 O 958.79 0.536956 1.75677 0
M  V30 10565 C 958.852 3.59165 0.155129 0
M  V30 10566 C 958.516 4.44243 -1.07225 0
M  V30 10567 C 959.513 4.80497 -1.98542 0
M  V30 10568 C 957.198 4.8531 -1.29537 0
M  V30 10569 C 959.192 5.56649 -3.10516 0
M  V30 10570 C 956.879 5.61221 -2.41815 0
M  V30 10571 C 957.877 5.96805 -3.32134 0
M  V30 10572 O 957.565 6.71181 -4.42461 0
M  V30 10573 H 957.297 0.673626 -0.0566063 0
M  V30 10574 H 959.851 1.88797 -0.809004 0
M  V30 10575 H 958.081 3.75137 0.938583 0
M  V30 10576 H 959.77 4.01271 0.611243 0
M  V30 10577 H 960.536 4.49345 -1.82522 0
M  V30 10578 H 956.415 4.5706 -0.601431 0
M  V30 10579 H 959.959 5.84343 -3.81037 0
M  V30 10580 H 955.856 5.91786 -2.57797 0
M  V30 10581 H 956.624 6.8961 -4.40886 0
M  V30 10582 N 959.287 0.325282 1.54207 0
M  V30 10583 C 960.703 -0.0273036 1.59577 0
M  V30 10584 C 960.903 -1.50329 1.34177 0
M  V30 10585 O 959.959 -2.25951 1.12705 0
M  V30 10586 C 961.272 0.392468 2.98128 0
M  V30 10587 C 962.82 0.343269 3.11112 0
M  V30 10588 C 963.295 0.738229 4.52011 0
M  V30 10589 N 964.786 0.691701 4.58006 0
M  V30 10590 C 965.521 0.969479 5.65145 0
M  V30 10591 N 965.017 1.31448 6.80216 0
M  V30 10592 N 966.81 0.894926 5.5493 0
M  V30 10593 H 958.961 1.28692 1.68974 0
M  V30 10594 H 961.224 0.523399 0.790416 0
M  V30 10595 H 960.93 1.42089 3.2172 0
M  V30 10596 H 960.804 -0.241651 3.76425 0
M  V30 10597 H 963.191 -0.675946 2.87254 0
M  V30 10598 H 963.272 1.01235 2.34915 0
M  V30 10599 H 962.916 1.75537 4.76602 0
M  V30 10600 H 962.846 0.0468226 5.26579 0
M  V30 10601 H 965.337 0.436975 3.75365 0
M  V30 10602 H 965.65 1.51177 7.57869 0
M  V30 10603 H 963.995 1.35276 6.81708 0
M  V30 10604 H 967.186 0.624876 4.6391 0
M  V30 10605 H 967.359 1.11476 6.38339 0
M  V30 10606 N 960.765 -1.57509 0.0534917 0
M  V30 10607 C 962.011 -1.93068 -0.62069 0
M  V30 10608 C 962.344 -0.932313 -1.70357 0
M  V30 10609 O 961.619 0.0413393 -1.94456 0
M  V30 10610 C 961.902 -3.38997 -1.21463 0
M  V30 10611 C 961.755 -4.49583 -0.13965 0
M  V30 10612 C 963.074 -3.85366 -2.12558 0
M  V30 10613 H 960.193 -0.702083 -0.224163 0
M  V30 10614 H 962.835 -1.89647 0.115729 0
M  V30 10615 H 960.985 -3.42043 -1.84226 0
M  V30 10616 H 962.657 -4.58664 0.492411 0
M  V30 10617 H 960.9 -4.30525 0.532006 0
M  V30 10618 H 961.571 -5.48781 -0.595287 0
M  V30 10619 H 964.047 -3.8421 -1.59755 0
M  V30 10620 H 962.923 -4.8812 -2.51058 0
M  V30 10621 H 963.184 -3.22256 -3.02661 0
M  V30 10622 N 962.243 0.219913 -1.56058 0
M  V30 10623 C 963.468 0.965073 -1.83579 0
M  V30 10624 C 963.893 1.77092 -0.634024 0
M  V30 10625 O 963.251 1.76434 0.417205 0
M  V30 10626 C 963.299 1.85705 -3.09105 0
M  V30 10627 O 962.403 2.95261 -2.87914 0
M  V30 10628 H 961.744 0.273173 -0.605204 0
M  V30 10629 H 964.274 0.23273 -2.03272 0
M  V30 10630 H 964.284 2.26655 -3.39252 0
M  V30 10631 H 962.959 1.26476 -3.96203 0
M  V30 10632 H 961.536 2.58246 -2.69005 0
M  V30 10633 N 963.721 1.49897 0.486681 0
M  V30 10634 C 964.651 1.7054 1.59494 0
M  V30 10635 C 965.632 0.554184 1.60819 0
M  V30 10636 O 966.817 0.791617 1.77333 0
M  V30 10637 C 963.947 1.78517 2.97908 0
M  V30 10638 C 962.901 2.93571 3.11449 0
M  V30 10639 C 962.227 2.86674 4.51356 0
M  V30 10640 C 963.527 4.34308 2.90127 0
M  V30 10641 H 965.221 2.63329 1.42472 0
M  V30 10642 H 962.767 1.2672 0.683969 0
M  V30 10643 H 964.72 1.91544 3.75352 0
M  V30 10644 H 963.444 0.823381 3.16051 0
M  V30 10645 H 962.103 2.80169 2.36433 0
M  V30 10646 H 961.751 1.88373 4.66395 0
M  V30 10647 H 961.451 3.63903 4.61355 0
M  V30 10648 H 962.975 3.01728 5.30841 0
M  V30 10649 H 964.389 4.48317 3.57331 0
M  V30 10650 H 962.786 5.12869 3.11585 0
M  V30 10651 H 963.856 4.47759 1.86119 0
M  V30 10652 N 965.199 -0.738761 1.39212 0
M  V30 10653 C 966.162 -1.83441 1.37412 0
M  V30 10654 C 967.162 -1.58484 0.271908 0
M  V30 10655 O 968.352 -1.65954 0.529609 0
M  V30 10656 C 965.484 -3.21167 1.143 0
M  V30 10657 H 966.677 -1.86441 2.34904 0
M  V30 10658 H 964.23 -0.942023 1.24722 0
M  V30 10659 H 964.965 -3.23829 0.174756 0
M  V30 10660 H 964.75 -3.40678 1.94116 0
M  V30 10661 H 966.24 -4.01231 1.15773 0
M  V30 10662 N 966.677 -1.24326 -0.968545 0
M  V30 10663 C 967.587 -1.05194 -2.09694 0
M  V30 10664 C 968.603 0.00701291 -1.73999 0
M  V30 10665 O 969.779 -0.190981 -2.00492 0
M  V30 10666 C 966.844 -0.658075 -3.40397 0
M  V30 10667 C 965.905 -1.79341 -3.90045 0
M  V30 10668 C 965.138 -1.41824 -5.14511 0
M  V30 10669 O 965.361 -0.307693 -5.69569 0
M  V30 10670 O 964.295 -2.24358 -5.58522 0
M  V30 10671 H 968.121 -1.99791 -2.2873 0
M  V30 10672 H 965.706 -1.03138 -1.08088 0
M  V30 10673 H 967.588 -0.449911 -4.18991 0
M  V30 10674 H 966.263 0.258782 -3.22664 0
M  V30 10675 H 965.17 -2.05632 -3.12516 0
M  V30 10676 H 966.503 -2.68901 -4.12254 0
M  V30 10677 N 968.156 1.1691 -1.05688 0
M  V30 10678 C 969.103 2.21095 -0.662246 0
M  V30 10679 C 970.073 1.62623 0.338083 0
M  V30 10680 O 971.258 1.89428 0.228362 0
M  V30 10681 C 968.398 3.45066 -0.0484018 0
M  V30 10682 C 967.511 4.17809 -1.09817 0
M  V30 10683 C 966.646 5.29281 -0.451114 0
M  V30 10684 C 965.685 5.93817 -1.48484 0
M  V30 10685 N 964.822 6.96793 -0.861588 0
M  V30 10686 H 969.662 2.54204 -1.55513 0
M  V30 10687 H 967.199 1.24863 -0.777665 0
M  V30 10688 H 969.157 4.15932 0.324978 0
M  V30 10689 H 967.787 3.12526 0.807918 0
M  V30 10690 H 966.839 3.45608 -1.58932 0
M  V30 10691 H 968.151 4.61907 -1.88265 0
M  V30 10692 H 967.305 6.06695 -0.0244251 0
M  V30 10693 H 966.044 4.8633 0.365306 0
M  V30 10694 H 965.049 5.1513 -1.92149 0
M  V30 10695 H 966.274 6.38848 -2.30325 0
M  V30 10696 H 964.22 6.55967 -0.0657688 0
M  V30 10697 H 964.137 7.39229 -1.58354 0
M  V30 10698 H 965.405 7.78142 -0.45984 0
M  V30 10699 N 969.634 0.838594 1.33437 0
M  V30 10700 C 970.88 0.434813 1.98084 0
M  V30 10701 C 971.213 -1.00331 1.66275 0
M  V30 10702 O 970.488 -1.70139 0.942501 0
M  V30 10703 C 970.771 0.655602 3.54082 0
M  V30 10704 C 970.624 2.14097 3.95578 0
M  V30 10705 C 971.943 0.101576 4.39983 0
M  V30 10706 H 969.062 0.159456 0.719544 0
M  V30 10707 H 971.704 1.05406 1.58081 0
M  V30 10708 H 969.854 0.128501 3.88287 0
M  V30 10709 H 971.526 2.73292 3.71631 0
M  V30 10710 H 969.769 2.62558 3.4532 0
M  V30 10711 H 970.44 2.24621 5.04231 0
M  V30 10712 H 972.916 0.552122 4.12421 0
M  V30 10713 H 971.792 0.28575 5.48156 0
M  V30 10714 H 972.053 -0.994616 4.30767 0
M  V30 10715 N 971.112 -1.45937 0.595003 0
M  V30 10716 C 972.361 -2.01529 0.0829531 0
M  V30 10717 C 972.674 -1.47071 -1.28955 0
M  V30 10718 O 973.88 -1.94561 -1.89363 0
M  V30 10719 C 972.336 -3.59767 0.0976597 0
M  V30 10720 C 971.944 -4.23223 1.46924 0
M  V30 10721 C 973.688 -4.22972 -0.359805 0
M  V30 10722 C 971.595 -5.73576 1.44101 0
M  V30 10723 H 970.525 -0.753508 0.0272425 0
M  V30 10724 H 973.176 -1.67541 0.748473 0
M  V30 10725 H 971.558 -3.90888 -0.634268 0
M  V30 10726 H 972.732 -4.03695 2.22187 0
M  V30 10727 H 971.047 -3.72161 1.86775 0
M  V30 10728 H 973.644 -5.33202 -0.39991 0
M  V30 10729 H 973.987 -3.92765 -1.37991 0
M  V30 10730 H 974.52 -3.96523 0.31845 0
M  V30 10731 H 971.259 -6.08462 2.43831 0
M  V30 10732 H 970.779 -5.95332 0.730767 0
M  V30 10733 H 972.458 -6.36531 1.1592 0
M  V30 10734 N 972.59 -0.333456 -1.54032 0
M  V30 10735 C 974.001 0.15256 -1.86076 0
M  V30 10736 C 974.352 1.50819 -1.25492 0
M  V30 10737 O 973.477 2.08903 -0.564665 0
M  V30 10738 C 974.072 0.283599 -3.37611 0
M  V30 10739 C 972.631 0.713841 -3.69569 0
M  V30 10740 C 971.778 -0.158515 -2.76847 0
M  V30 10741 H 974.729 -0.553404 -1.48738 0
M  V30 10742 H 974.75 1.11284 -3.63863 0
M  V30 10743 H 974.262 -0.703193 -3.81676 0
M  V30 10744 H 972.363 1.71002 -3.31042 0
M  V30 10745 H 972.476 0.510731 -4.7637 0
M  V30 10746 H 970.84 0.367531 -2.52034 0
M  V30 10747 H 971.623 -1.14226 -3.2374 0
M  V30 10748 N 974.068 1.57479 -0.061844 0
M  V30 10749 C 975.031 2.1104 0.894127 0
M  V30 10750 C 976.031 1.03227 1.23292 0
M  V30 10751 O 977.221 1.29256 1.16784 0
M  V30 10752 C 974.353 2.6035 2.20069 0
M  V30 10753 H 975.546 2.96807 0.429619 0
M  V30 10754 H 973.099 1.55181 0.18672 0
M  V30 10755 H 973.834 1.78008 2.71079 0
M  V30 10756 H 973.619 3.39146 1.9678 0
M  V30 10757 H 975.109 3.019 2.88525 0
M  V30 10758 N 975.546 -0.211634 1.56173 0
M  V30 10759 C 976.509 -1.24588 1.92381 0
M  V30 10760 C 977.509 -1.39297 0.803311 0
M  V30 10761 O 978.699 -1.37392 1.07094 0
M  V30 10762 C 975.831 -2.61807 2.18335 0
M  V30 10763 H 977.024 -0.936814 2.84893 0
M  V30 10764 H 974.577 -0.452471 1.49607 0
M  V30 10765 H 975.312 -2.97795 1.28407 0
M  V30 10766 H 975.097 -2.52506 2.99972 0
M  V30 10767 H 976.587 -3.3642 2.4741 0
M  V30 10768 N 977.024 -1.50153 -0.478725 0
M  V30 10769 C 978.301 -1.51274 -1.23999 0
M  V30 10770 C 978.681 -0.253048 -2.09578 0
M  V30 10771 O 978.029 0.763827 -2.15355 0
M  V30 10772 C 978.239 -2.80423 -2.07759 0
M  V30 10773 C 979.587 -3.30788 -2.66204 0
M  V30 10774 O 980.611 -2.81693 -2.18008 0
M  V30 10775 O 979.47 -4.1635 -3.53999 0
M  V30 10776 H 976.564 -0.606438 -0.562283 0
M  V30 10777 H 979.11 -1.62436 -0.491171 0
M  V30 10778 H 977.882 -3.63584 -1.44645 0
M  V30 10779 H 977.505 -2.72228 -2.89789 0
M  V30 10780 N 978.502 0.731368 -1.39602 0
M  V30 10781 C 979.432 1.85855 -1.41351 0
M  V30 10782 C 980.413 1.67839 -0.2764 0
M  V30 10783 O 981.598 1.88104 -0.482747 0
M  V30 10784 C 978.728 3.23644 -1.25983 0
M  V30 10785 C 977.682 3.56304 -2.37132 0
M  V30 10786 C 977.008 4.93069 -2.0685 0
M  V30 10787 C 978.308 3.58906 -3.79452 0
M  V30 10788 H 980.002 1.84648 -2.3568 0
M  V30 10789 H 977.548 0.886955 -1.13442 0
M  V30 10790 H 979.501 4.02176 -1.25826 0
M  V30 10791 H 978.225 3.25387 -0.281234 0
M  V30 10792 H 976.884 2.80104 -2.36511 0
M  V30 10793 H 976.532 4.91396 -1.0742 0
M  V30 10794 H 976.232 5.15888 -2.81306 0
M  V30 10795 H 977.756 5.73953 -2.0835 0
M  V30 10796 H 979.17 4.27508 -3.81982 0
M  V30 10797 H 977.567 3.93246 -4.53297 0
M  V30 10798 H 978.637 2.58631 -4.10168 0
M  V30 10799 N 979.98 1.24838 0.961938 0
M  V30 10800 C 981.205 1.11967 1.7458 0
M  V30 10801 C 981.63 -0.323287 1.85301 0
M  V30 10802 O 980.988 -1.23412 1.32812 0
M  V30 10803 C 981.036 1.77066 3.14134 0
M  V30 10804 O 980.14 1.04534 3.98932 0
M  V30 10805 H 979.481 0.391338 0.536424 0
M  V30 10806 H 982.011 1.65259 1.20626 0
M  V30 10807 H 982.021 1.83056 3.64629 0
M  V30 10808 H 980.696 2.82052 3.05646 0
M  V30 10809 H 979.273 1.06372 3.57407 0
M  V30 10810 N 981.458 -1.16348 1.06306 0
M  V30 10811 C 982.39 -2.20316 0.631929 0
M  V30 10812 C 983.403 -1.59819 -0.310133 0
M  V30 10813 O 984.592 -1.78213 -0.101103 0
M  V30 10814 C 981.692 -3.3877 -0.0937645 0
M  V30 10815 C 980.865 -4.28826 0.861816 0
M  V30 10816 C 979.924 -5.25908 0.175346 0
M  V30 10817 O 978.95 -5.63363 0.813039 0
M  V30 10818 N 980.152 -5.70307 -1.08305 0
M  V30 10819 H 982.917 -2.57925 1.52626 0
M  V30 10820 H 980.478 -1.31358 0.946392 0
M  V30 10821 H 982.47 -4.00759 -0.563412 0
M  V30 10822 H 981.04 -2.99666 -0.889904 0
M  V30 10823 H 980.26 -3.64098 1.51083 0
M  V30 10824 H 981.548 -4.85875 1.51007 0
M  V30 10825 H 980.946 -5.4197 -1.62127 0
M  V30 10826 H 979.503 -6.34387 -1.49656 0
M  V30 10827 N 982.937 -0.845659 -1.3299 0
M  V30 10828 C 983.869 -0.241097 -2.27928 0
M  V30 10829 C 984.882 0.582048 -1.5204 0
M  V30 10830 O 986.071 0.408008 -1.73774 0
M  V30 10831 C 983.171 0.678652 -3.32035 0
M  V30 10832 C 982.344 -0.106652 -4.3727 0
M  V30 10833 C 981.403 0.737478 -5.21006 0
M  V30 10834 O 980.429 0.174231 -5.68933 0
M  V30 10835 N 981.631 2.05372 -5.42957 0
M  V30 10836 H 984.396 -1.05685 -2.80448 0
M  V30 10837 H 981.957 -0.704771 -1.45755 0
M  V30 10838 H 983.949 1.24849 -3.84961 0
M  V30 10839 H 982.519 1.3951 -2.79742 0
M  V30 10840 H 981.739 -0.857897 -3.84752 0
M  V30 10841 H 983.027 -0.646386 -5.04677 0
M  V30 10842 H 982.425 2.53478 -5.05733 0
M  V30 10843 H 980.982 2.5719 -5.98913 0
M  V30 10844 N 984.415 1.45619 -0.602734 0
M  V30 10845 C 985.664 2.01483 -0.0936395 0
M  V30 10846 C 985.977 1.47753 1.28173 0
M  V30 10847 O 987.183 1.95562 1.88329 0
M  V30 10848 C 985.639 3.59711 -0.116738 0
M  V30 10849 C 985.247 4.22437 -1.49166 0
M  V30 10850 C 986.991 4.23157 0.337368 0
M  V30 10851 C 984.898 5.72803 -1.47141 0
M  V30 10852 H 983.828 0.753353 -0.0312382 0
M  V30 10853 H 986.479 1.67142 -0.757347 0
M  V30 10854 H 984.861 3.91218 0.613529 0
M  V30 10855 H 986.035 4.02511 -2.24325 0
M  V30 10856 H 984.35 3.71166 -1.88746 0
M  V30 10857 H 986.947 5.33407 0.371628 0
M  V30 10858 H 987.29 3.93491 1.35906 0
M  V30 10859 H 987.823 3.96349 -0.339474 0
M  V30 10860 H 984.562 6.07161 -2.47055 0
M  V30 10861 H 984.082 5.94936 -0.762329 0
M  V30 10862 H 985.761 6.35907 -1.19294 0
M  V30 10863 N 985.893 0.34162 1.53853 0
M  V30 10864 C 987.118 -0.259608 2.05769 0
M  V30 10865 C 987.543 -1.43588 1.21507 0
M  V30 10866 O 986.901 -1.79856 0.228364 0
M  V30 10867 C 986.949 -0.654455 3.54611 0
M  V30 10868 O 986.053 -1.75472 3.73207 0
M  V30 10869 H 985.394 -0.0434621 0.662576 0
M  V30 10870 H 987.924 0.495274 1.98515 0
M  V30 10871 H 987.934 -0.932142 3.97209 0
M  V30 10872 H 986.609 0.205779 4.15391 0
M  V30 10873 H 985.186 -1.47444 3.42512 0
M  V30 10874 N 987.371 -1.57444 0.0701946 0
M  V30 10875 C 988.599 -1.97754 -0.608358 0
M  V30 10876 C 989.014 -0.948496 -1.63245 0
M  V30 10877 O 988.371 0.065046 -1.82384 0
M  V30 10878 C 988.422 -3.38142 -1.27836 0
M  V30 10879 O 988.143 -4.37104 -0.295255 0
M  V30 10880 C 989.644 -3.93318 -2.04489 0
M  V30 10881 H 986.864 -0.650398 -0.164997 0
M  V30 10882 H 989.408 -2.04006 0.142124 0
M  V30 10883 H 987.563 -3.32982 -1.97994 0
M  V30 10884 H 987.977 -5.18732 -0.77574 0
M  V30 10885 H 989.451 -4.93774 -2.46762 0
M  V30 10886 H 989.928 -3.29774 -2.90079 0
M  V30 10887 H 990.534 -4.01875 -1.39201 0
M  V30 10888 N 988.849 0.203349 -1.56283 0
M  V30 10889 C 989.812 1.23566 -1.93039 0
M  V30 10890 C 990.812 1.38869 -0.810687 0
M  V30 10891 O 992.002 1.36822 -1.07821 0
M  V30 10892 C 989.134 2.60645 -2.1972 0
M  V30 10893 H 990.327 0.921692 -2.85385 0
M  V30 10894 H 987.88 0.44453 -1.49845 0
M  V30 10895 H 988.615 2.9711 -1.29985 0
M  V30 10896 H 988.4 2.50911 -3.01307 0
M  V30 10897 H 989.89 3.35103 -2.4919 0
M  V30 10898 N 990.327 1.50405 0.470755 0
M  V30 10899 C 991.575 1.61092 1.2204 0
M  V30 10900 C 991.896 0.313487 1.92464 0
M  V30 10901 O 991.166 -0.669043 1.84121 0
M  V30 10902 H 989.746 0.593618 0.45346 0
M  V30 10903 H 992.408 1.87184 0.542985 0
M  V30 10904 H 991.504 2.42222 1.96812 0
M  V30 10905 N 991.805 -0.723954 1.39988 0
M  V30 10906 C 993.033 -1.51313 1.4111 0
M  V30 10907 C 993.448 -1.88798 0.00853333 0
M  V30 10908 O 992.805 -1.54868 -0.965516 0
M  V30 10909 C 992.856 -2.79375 2.29416 0
M  V30 10910 O 992.577 -2.43478 3.64211 0
M  V30 10911 C 994.078 -3.7333 2.3904 0
M  V30 10912 H 991.298 -0.46724 0.481589 0
M  V30 10913 H 993.842 -0.893694 1.83938 0
M  V30 10914 H 991.997 -3.37624 1.89971 0
M  V30 10915 H 992.411 -3.25821 4.11024 0
M  V30 10916 H 993.885 -4.60051 3.05053 0
M  V30 10917 H 994.362 -4.15854 1.41289 0
M  V30 10918 H 994.968 -3.20996 2.79001 0
M  V30 10919 N 993.283 -1.25346 -0.955304 0
M  V30 10920 C 994.193 -1.07412 -2.08566 0
M  V30 10921 C 995.209 -0.0114424 -1.73996 0
M  V30 10922 O 996.385 -0.212236 -2.00279 0
M  V30 10923 C 993.45 -0.694141 -3.3968 0
M  V30 10924 C 992.511 -1.83468 -3.88121 0
M  V30 10925 C 991.744 -1.47274 -5.12978 0
M  V30 10926 O 991.967 -0.368086 -5.69211 0
M  V30 10927 O 990.901 -2.30269 -5.56111 0
M  V30 10928 H 994.727 -2.02206 -2.26598 0
M  V30 10929 H 992.312 -1.04279 -1.06988 0
M  V30 10930 H 994.194 -0.494325 -4.18491 0
M  V30 10931 H 992.869 0.224545 -3.2292 0
M  V30 10932 H 991.776 -2.08935 -3.10318 0
M  V30 10933 H 993.109 -2.73258 -4.09379 0
M  V30 10934 N 994.761 1.15782 -1.06922 0
M  V30 10935 C 995.724 2.18578 -0.689654 0
M  V30 10936 C 996.724 1.58553 0.267872 0
M  V30 10937 O 997.914 1.7413 0.0494097 0
M  V30 10938 C 995.046 3.40896 -0.0157919 0
M  V30 10939 H 996.239 2.53672 -1.59971 0
M  V30 10940 H 993.792 1.30168 -0.865214 0
M  V30 10941 H 994.527 3.11367 0.906712 0
M  V30 10942 H 994.312 3.85721 -0.704415 0
M  V30 10943 H 995.802 4.16937 0.235266 0
M  V30 10944 N 996.239 0.8527 1.3254 0
M  V30 10945 C 997.464 0.468157 2.02047 0
M  V30 10946 C 997.889 -0.926967 1.63673 0
M  V30 10947 O 997.247 -1.60855 0.836378 0
M  V30 10948 C 997.295 0.612519 3.5536 0
M  V30 10949 O 996.399 -0.355506 4.10865 0
M  V30 10950 H 995.74 0.188401 0.636711 0
M  V30 10951 H 998.27 1.15135 1.6913 0
M  V30 10952 H 998.28 0.499315 4.04933 0
M  V30 10953 H 996.955 1.62988 3.82632 0
M  V30 10954 H 995.532 -0.198703 3.7237 0
M  V30 10955 N 997.718 -1.45297 0.610449 0
M  V30 10956 C 998.966 -2.01819 0.106548 0
M  V30 10957 C 999.287 -1.48102 -1.26849 0
M  V30 10958 O 998.557 -0.676411 -1.83852 0
M  V30 10959 H 997.137 -0.746113 0.0363982 0
M  V30 10960 H 999.799 -1.78061 0.792491 0
M  V30 10961 H 998.895 -3.12045 0.0585 0
M  V30 10962 N 999.196 -0.349774 -1.5367 0
M  V30 10963 C 1000.42 0.246038 -2.05432 0
M  V30 10964 C 1000.84 1.43719 -1.22435 0
M  V30 10965 O 1000.2 1.80622 -0.261166 0
M  V30 10966 C 1000.25 0.65501 -3.55516 0
M  V30 10967 O 999.968 -0.488782 -4.35365 0
M  V30 10968 C 1001.47 1.31088 -4.23475 0
M  V30 10969 H 998.689 0.0463952 -0.669394 0
M  V30 10970 H 1001.23 -0.503566 -1.98203 0
M  V30 10971 H 999.388 1.35455 -3.62947 0
M  V30 10972 H 999.802 -0.161528 -5.24251 0
M  V30 10973 H 1001.28 1.54774 -5.29857 0
M  V30 10974 H 1001.75 2.26636 -3.76208 0
M  V30 10975 H 1002.36 0.653211 -4.20254 0
M  V30 10976 N 1000.67 1.57404 -0.0785433 0
M  V30 10977 C 1001.92 1.93361 0.58786 0
M  V30 10978 C 1002.24 0.959856 1.6974 0
M  V30 10979 O 1001.51 0.0091173 1.95898 0
M  V30 10980 H 1000.09 0.713825 0.220141 0
M  V30 10981 H 1002.75 1.94411 -0.137986 0
M  V30 10982 H 1001.85 2.95346 1.00881 0
M  V30 10983 N 1002.15 -0.195058 1.56388 0
M  V30 10984 C 1003.1 -1.26122 1.95438 0
M  V30 10985 C 1004.09 -1.47117 0.839818 0
M  V30 10986 O 1005.3 -1.47978 1.02482 0
M  V30 10987 H 1001.67 -0.423422 0.621464 0
M  V30 10988 H 1003.65 -0.904854 2.8435 0
M  V30 10989 C 1002.39 -2.59858 2.31017 0
M  V30 10990 H 1001.72 -2.44519 3.16308 0
M  V30 10991 H 1003.16 -3.33205 2.62203 0
M  V30 10992 C 1001.62 -3.16853 1.14481 0
M  V30 10993 O 1002.15 -3.995 0.419853 0
M  V30 10994 N 1000.35 -2.75599 0.921604 0
M  V30 10995 H 999.9 -2.08495 1.51287 0
M  V30 10996 H 999.858 -3.14072 0.143663 0
M  V30 10997 N 1003.63 -1.50653 -0.462772 0
M  V30 10998 C 1004.56 -1.64773 -1.57877 0
M  V30 10999 C 1005.54 -0.495664 -1.54861 0
M  V30 11000 O 1006.72 -0.716248 -1.74362 0
M  V30 11001 C 1003.85 -1.63796 -2.9646 0
M  V30 11002 C 1002.9 -2.84663 -3.17599 0
M  V30 11003 S 1003.73 -4.45852 -2.96608 0
M  V30 11004 C 1004.89 -4.47581 -4.37518 0
M  V30 11005 H 1005.12 -2.59172 -1.45661 0
M  V30 11006 H 1002.65 -1.40019 -0.650699 0
M  V30 11007 H 1004.61 -1.63918 -3.76353 0
M  V30 11008 H 1003.27 -0.706185 -3.06059 0
M  V30 11009 H 1002.46 -2.80308 -4.1886 0
M  V30 11010 H 1002.07 -2.82152 -2.45492 0
M  V30 11011 H 1004.36 -4.21656 -5.30295 0
M  V30 11012 H 1005.3 -5.49248 -4.46914 0
M  V30 11013 H 1005.71 -3.7719 -4.19985 0
M  V30 11014 N 1005.11 0.71652 -1.4037 0
M  V30 11015 C 1006.06 1.8306 -1.40562 0
M  V30 11016 C 1007.03 1.64009 -0.262697 0
M  V30 11017 O 1008.21 1.85157 -0.460619 0
M  V30 11018 C 1005.35 3.2076 -1.27307 0
M  V30 11019 C 1004.46 3.51389 -2.51296 0
M  V30 11020 C 1003.6 4.78589 -2.30491 0
M  V30 11021 C 1002.64 5.02119 -3.50061 0
M  V30 11022 N 1001.77 6.20533 -3.28457 0
M  V30 11023 H 1006.61 1.82231 -2.35788 0
M  V30 11024 H 1004.15 0.890198 -1.17106 0
M  V30 11025 H 1006.11 4.00274 -1.17628 0
M  V30 11026 H 1004.74 3.2082 -0.357005 0
M  V30 11027 H 1003.79 2.66436 -2.71507 0
M  V30 11028 H 1005.1 3.64686 -3.40302 0
M  V30 11029 H 1004.26 5.66119 -2.1816 0
M  V30 11030 H 1003 4.67499 -1.38909 0
M  V30 11031 H 1002 4.13044 -3.6287 0
M  V30 11032 H 1003.23 5.15082 -4.42569 0
M  V30 11033 H 1001.17 6.10695 -2.39556 0
M  V30 11034 H 1001.09 6.34502 -4.11027 0
M  V30 11035 H 1002.36 7.10853 -3.19857 0
M  V30 11036 N 1006.59 1.25851 0.948643 0
M  V30 11037 C 1007.83 1.10954 1.69397 0
M  V30 11038 C 1008.16 -0.348443 1.91353 0
M  V30 11039 O 1007.42 -1.27285 1.48651 0
M  V30 11040 C 1007.72 1.81565 3.07846 0
M  V30 11041 C 1007.38 3.31477 3.0567 0
M  V30 11042 C 1006.04 3.72371 3.04784 0
M  V30 11043 C 1008.4 4.27225 2.98543 0
M  V30 11044 C 1005.72 5.07416 2.94527 0
M  V30 11045 C 1008.08 5.62301 2.89828 0
M  V30 11046 C 1006.74 6.02516 2.87281 0
M  V30 11047 H 1006.01 0.406011 0.619868 0
M  V30 11048 H 1008.66 1.562 1.10787 0
M  V30 11049 H 1006.96 1.28767 3.70035 0
M  V30 11050 H 1008.66 1.67486 3.64348 0
M  V30 11051 H 1005.25 2.98941 3.07135 0
M  V30 11052 H 1009.43 3.96618 2.98342 0
M  V30 11053 H 1004.69 5.37746 2.90928 0
M  V30 11054 H 1008.86 6.36182 2.83276 0
M  V30 11055 H 1006.49 7.07116 2.79089 0
M  V30 11056 N 1008.06 -1.15214 1.07534 0
M  V30 11057 C 1009 -2.18999 0.641461 0
M  V30 11058 C 1009.98 -1.58958 -0.342238 0
M  V30 11059 O 1011.16 -1.86859 -0.248218 0
M  V30 11060 C 1008.29 -3.38651 -0.0577939 0
M  V30 11061 C 1007.33 -4.17225 0.884641 0
M  V30 11062 S 1008.17 -4.79375 2.38663 0
M  V30 11063 C 1009.32 -6.02393 1.69923 0
M  V30 11064 H 1009.55 -2.55464 1.52071 0
M  V30 11065 H 1007.09 -1.26205 0.889481 0
M  V30 11066 H 1009.05 -4.07971 -0.454982 0
M  V30 11067 H 1007.71 -3.00526 -0.913407 0
M  V30 11068 H 1006.9 -5.02837 0.342133 0
M  V30 11069 H 1006.5 -3.53463 1.2223 0
M  V30 11070 H 1008.79 -6.69899 1.01201 0
M  V30 11071 H 1009.74 -6.61216 2.53375 0
M  V30 11072 H 1010.14 -5.52106 1.1764 0
M  V30 11073 N 1009.54 -0.859717 -1.32086 0
M  V30 11074 C 1010.47 -0.323502 -2.31248 0
M  V30 11075 C 1011.45 0.580085 -1.59903 0
M  V30 11076 O 1012.64 0.499265 -1.87673 0
M  V30 11077 C 1009.77 0.484661 -3.43902 0
M  V30 11078 C 1008.72 -0.324933 -4.26765 0
M  V30 11079 C 1008.05 0.608281 -5.31229 0
M  V30 11080 C 1009.35 -1.55344 -4.98664 0
M  V30 11081 H 1011.04 -1.15209 -2.76346 0
M  V30 11082 H 1008.59 -0.555442 -1.32856 0
M  V30 11083 H 1010.54 0.870238 -4.12316 0
M  V30 11084 H 1009.27 1.34666 -2.97544 0
M  V30 11085 H 1007.92 -0.692328 -3.60003 0
M  V30 11086 H 1007.57 1.46727 -4.81124 0
M  V30 11087 H 1007.27 0.0705571 -5.87558 0
M  V30 11088 H 1008.8 0.990925 -6.02506 0
M  V30 11089 H 1010.21 -1.23987 -5.59732 0
M  V30 11090 H 1008.61 -2.02947 -5.64741 0
M  V30 11091 H 1009.68 -2.31192 -4.26237 0
M  V30 11092 N 1011.02 1.44971 -0.618145 0
M  V30 11093 C 1011.97 2.32354 0.106846 0
M  V30 11094 C 1012.96 1.4659 0.848984 0
M  V30 11095 O 1014.17 1.63012 0.763354 0
M  V30 11096 H 1010.54 0.750108 0.0533109 0
M  V30 11097 H 1012.51 2.9127 -0.648426 0
M  V30 11098 C 1011.26 3.30381 1.08368 0
M  V30 11099 H 1010.59 3.96377 0.52205 0
M  V30 11100 H 1012.03 3.94231 1.56069 0
M  V30 11101 C 1010.49 2.58336 2.1625 0
M  V30 11102 O 1011.02 2.37258 3.24148 0
M  V30 11103 N 1009.22 2.18292 1.91825 0
M  V30 11104 H 1008.77 2.35635 1.04086 0
M  V30 11105 H 1008.73 1.70413 2.6421 0
M  V30 11106 N 1012.5 0.357919 1.53482 0
M  V30 11107 C 1013.75 -0.2337 2.00744 0
M  V30 11108 C 1014.07 -1.49908 1.2471 0
M  V30 11109 O 1013.34 -1.92597 0.358235 0
M  V30 11110 H 1011.92 -0.0893474 0.741637 0
M  V30 11111 H 1014.58 0.482388 1.88836 0
M  V30 11112 H 1013.68 -0.466073 3.086 0
M  V30 11113 N 1013.98 -1.5736 0.0868897 0
M  V30 11114 C 1014.94 -2.12436 -0.860439 0
M  V30 11115 C 1015.94 -1.05175 -1.21634 0
M  V30 11116 O 1017.13 -1.31098 -1.14713 0
M  V30 11117 C 1014.26 -2.63818 -2.159 0
M  V30 11118 H 1015.45 -2.97453 -0.382346 0
M  V30 11119 H 1013.01 -1.55458 -0.162009 0
M  V30 11120 H 1013.74 -1.82298 -2.68212 0
M  V30 11121 H 1013.53 -3.42234 -1.91359 0
M  V30 11122 H 1015.02 -3.06452 -2.83685 0
M  V30 11123 N 1015.45 0.186762 -1.56489 0
M  V30 11124 C 1016.38 1.23395 -1.98232 0
M  V30 11125 C 1017.37 1.4702 -0.855526 0
M  V30 11126 O 1018.55 1.58616 -1.12048 0
M  V30 11127 C 1015.68 2.57635 -2.32898 0
M  V30 11128 C 1014.63 2.48607 -3.48394 0
M  V30 11129 C 1013.96 3.87196 -3.68759 0
M  V30 11130 C 1015.26 2.00398 -4.82325 0
M  V30 11131 H 1016.95 0.887026 -2.85958 0
M  V30 11132 H 1014.5 0.42525 -1.37578 0
M  V30 11133 H 1016.45 3.31082 -2.60696 0
M  V30 11134 H 1015.18 2.94084 -1.42064 0
M  V30 11135 H 1013.84 1.77615 -3.207 0
M  V30 11136 H 1013.48 4.21012 -2.75241 0
M  V30 11137 H 1013.18 3.82029 -4.46462 0
M  V30 11138 H 1014.71 4.62253 -3.98941 0
M  V30 11139 H 1016.12 2.6361 -5.091 0
M  V30 11140 H 1014.52 2.06214 -5.63556 0
M  V30 11141 H 1015.59 0.957562 -4.75351 0
M  V30 11142 N 1016.93 1.50896 0.454776 0
M  V30 11143 C 1018.16 1.6648 1.22849 0
M  V30 11144 C 1018.58 0.354841 1.85435 0
M  V30 11145 O 1017.93 -0.664931 1.69956 0
M  V30 11146 C 1017.98 2.76787 2.32532 0
M  V30 11147 O 1017.7 4.02706 1.72509 0
M  V30 11148 C 1019.21 3.03488 3.23125 0
M  V30 11149 H 1016.43 0.559152 0.370932 0
M  V30 11150 H 1018.97 1.97215 0.540983 0
M  V30 11151 H 1017.12 2.48701 2.9703 0
M  V30 11152 H 1017.54 4.63834 2.44863 0
M  V30 11153 H 1019.01 3.84294 3.9626 0
M  V30 11154 H 1019.49 2.152 3.82865 0
M  V30 11155 H 1020.1 3.33167 2.64347 0
M  V30 11156 N 1018.41 -0.709066 1.40748 0
M  V30 11157 C 1019.66 -1.4646 1.38681 0
M  V30 11158 C 1019.97 -1.95599 -0.0056209 0
M  V30 11159 O 1021.18 -2.71091 -0.148907 0
M  V30 11160 C 1019.63 -2.64771 2.43771 0
M  V30 11161 C 1019.24 -2.22474 3.88856 0
M  V30 11162 C 1020.99 -3.42475 2.50821 0
M  V30 11163 C 1018.89 -3.37663 4.85528 0
M  V30 11164 H 1017.82 -0.550084 0.515678 0
M  V30 11165 H 1020.47 -0.771074 1.66513 0
M  V30 11166 H 1018.86 -3.36325 2.09048 0
M  V30 11167 H 1020.03 -1.58297 4.32757 0
M  V30 11168 H 1018.35 -1.57798 3.85342 0
M  V30 11169 H 1020.94 -4.28201 3.20232 0
M  V30 11170 H 1021.29 -3.86738 1.54076 0
M  V30 11171 H 1021.82 -2.77969 2.84567 0
M  V30 11172 H 1018.56 -2.98426 5.83628 0
M  V30 11173 H 1018.08 -4.00734 4.46287 0
M  V30 11174 H 1019.76 -4.03636 5.05655 0
M  V30 11175 N 1019.89 -1.26353 -0.941956 0
M  V30 11176 C 1021.14 -1.1163 -1.68473 0
M  V30 11177 C 1021.46 0.34108 -1.91994 0
M  V30 11178 O 1020.73 1.24065 -1.51607 0
M  V30 11179 H 1019.31 -0.410113 -0.624353 0
M  V30 11180 H 1021.97 -1.58669 -1.13182 0
M  V30 11181 H 1021.07 -1.63445 -2.6588 0
M  V30 11182 N 1021.37 1.14642 -1.08144 0
M  V30 11183 C 1022.6 1.89484 -0.830864 0
M  V30 11184 C 1023.01 1.78443 0.616722 0
M  V30 11185 O 1022.37 1.14191 1.42361 0
M  V30 11186 C 1022.42 3.39554 -1.24039 0
M  V30 11187 O 1022.14 3.50286 -2.63119 0
M  V30 11188 C 1023.64 4.31399 -1.02029 0
M  V30 11189 H 1020.86 0.600283 -0.299835 0
M  V30 11190 H 1023.4 1.45204 -1.44001 0
M  V30 11191 H 1021.56 3.81467 -0.675407 0
M  V30 11192 H 1021.97 4.43481 -2.80045 0
M  V30 11193 H 1023.45 5.35079 -1.35625 0
M  V30 11194 H 1023.92 4.39179 0.0428697 0
M  V30 11195 H 1024.53 3.95238 -1.57057 0
M  V30 11196 N 1022.85 0.866709 1.31628 0
M  V30 11197 C 1023.78 0.264788 2.26659 0
M  V30 11198 C 1024.76 -0.604181 1.50958 0
M  V30 11199 O 1025.94 -0.558324 1.80042 0
M  V30 11200 C 1023.07 -0.625373 3.32877 0
M  V30 11201 C 1022.11 0.171813 4.26154 0
M  V30 11202 S 1022.95 1.54818 5.12632 0
M  V30 11203 C 1024.1 0.66405 6.22367 0
M  V30 11204 H 1024.34 1.07036 2.77364 0
M  V30 11205 H 1021.87 0.665038 1.39343 0
M  V30 11206 H 1023.83 -1.13327 3.94547 0
M  V30 11207 H 1022.49 -1.40486 2.80932 0
M  V30 11208 H 1021.68 -0.506694 5.01447 0
M  V30 11209 H 1021.28 0.611704 3.68964 0
M  V30 11210 H 1023.57 -0.126717 6.77381 0
M  V30 11211 H 1024.52 1.388 6.94363 0
M  V30 11212 H 1024.93 0.233046 5.64019 0
M  V30 11213 N 1024.32 -1.44642 0.625825 0
M  V30 11214 C 1025.6 -1.9551 0.0593587 0
M  V30 11215 C 1025.98 -1.56792 -1.41349 0
M  V30 11216 O 1025.33 -0.839373 -2.12525 0
M  V30 11217 C 1025.54 -3.47902 0.276647 0
M  V30 11218 C 1026.89 -4.24271 0.167044 0
M  V30 11219 O 1027.91 -3.55594 0.207731 0
M  V30 11220 O 1026.77 -5.46458 0.0675 0
M  V30 11221 H 1023.86 -0.826612 -0.0253422 0
M  V30 11222 H 1026.41 -1.54718 0.697159 0
M  V30 11223 H 1025.18 -3.69115 1.29885 0
M  V30 11224 H 1024.8 -3.95628 -0.395547 0
M  V30 11225 N 1025.8 -0.366053 -1.5329 0
M  V30 11226 C 1027.05 0.223051 -2.00865 0
M  V30 11227 C 1027.37 1.49244 -1.25504 0
M  V30 11228 O 1026.64 1.92404 -0.368444 0
M  V30 11229 H 1025.22 0.085413 -0.742101 0
M  V30 11230 H 1027.88 -0.492396 -1.88578 0
M  V30 11231 H 1026.98 0.449701 -3.08843 0
M  V30 11232 N 1027.28 1.57312 -0.0952337 0
M  V30 11233 C 1028.24 2.12889 0.849161 0
M  V30 11234 C 1029.24 1.05819 1.21075 0
M  V30 11235 O 1030.43 1.31704 1.14016 0
M  V30 11236 C 1027.56 2.6496 2.14498 0
M  V30 11237 H 1028.76 2.97651 0.366566 0
M  V30 11238 H 1026.31 1.55542 0.153762 0
M  V30 11239 H 1027.05 1.83718 2.67242 0
M  V30 11240 H 1026.83 3.43244 1.89542 0
M  V30 11241 H 1028.32 3.07952 2.82056 0
M  V30 11242 N 1028.76 -0.17846 1.56586 0
M  V30 11243 C 1029.71 -1.24042 1.96765 0
M  V30 11244 C 1030.7 -1.46218 0.855375 0
M  V30 11245 O 1031.91 -1.46882 1.04046 0
M  V30 11246 H 1028.28 -0.416807 0.62592 0
M  V30 11247 H 1030.25 -0.874644 2.85294 0
M  V30 11248 C 1029 -2.57394 2.3376 0
M  V30 11249 H 1028.32 -2.41151 3.18883 0
M  V30 11250 H 1029.76 -3.30405 2.65723 0
M  V30 11251 C 1028.22 -3.15621 1.17835 0
M  V30 11252 O 1028.75 -3.99032 0.462202 0
M  V30 11253 N 1026.96 -2.74606 0.950783 0
M  V30 11254 H 1026.51 -2.06878 1.5349 0
M  V30 11255 H 1026.46 -3.13902 0.176967 0
M  V30 11256 N 1030.24 -1.51135 -0.446768 0
M  V30 11257 C 1031.48 -1.63578 -1.19875 0
M  V30 11258 C 1031.81 -0.346478 -1.91084 0
M  V30 11259 O 1031.09 0.653447 -1.83195 0
M  V30 11260 C 1031.37 -2.83275 -2.22323 0
M  V30 11261 C 1031.23 -4.22155 -1.55259 0
M  V30 11262 C 1032.54 -2.98496 -3.23401 0
M  V30 11263 H 1029.66 -0.595333 -0.434452 0
M  V30 11264 H 1032.31 -1.83593 -0.48923 0
M  V30 11265 H 1030.46 -2.6634 -2.82834 0
M  V30 11266 H 1032.13 -4.50736 -0.981571 0
M  V30 11267 H 1030.37 -4.25288 -0.855122 0
M  V30 11268 H 1031.04 -5.01882 -2.29823 0
M  V30 11269 H 1033.52 -3.14079 -2.72935 0
M  V30 11270 H 1032.39 -3.83828 -3.92386 0
M  V30 11271 H 1032.65 -2.10157 -3.88956 0
M  V30 11272 N 1031.71 0.701592 -1.41122 0
M  V30 11273 C 1032.62 1.84548 -1.44841 0
M  V30 11274 C 1033.64 1.70654 -0.339594 0
M  V30 11275 O 1034.82 1.92675 -0.586378 0
M  V30 11276 C 1031.88 3.20477 -1.3227 0
M  V30 11277 C 1030.94 3.46524 -2.53415 0
M  V30 11278 C 1030.17 4.75968 -2.41434 0
M  V30 11279 O 1030.4 5.52037 -1.43566 0
M  V30 11280 O 1029.33 5.02664 -3.31078 0
M  V30 11281 H 1033.16 1.84367 -2.41335 0
M  V30 11282 H 1030.74 0.853863 -1.22595 0
M  V30 11283 H 1032.62 4.01642 -1.2752 0
M  V30 11284 H 1031.3 3.21355 -0.388889 0
M  V30 11285 H 1030.21 2.65313 -2.63742 0
M  V30 11286 H 1031.54 3.50455 -3.45604 0
M  V30 11287 N 1033.19 1.2685 0.935242 0
M  V30 11288 C 1034.12 1.03244 2.03509 0
M  V30 11289 C 1035.1 -0.0447323 1.62538 0
M  V30 11290 O 1036.29 0.0988905 1.8824 0
M  V30 11291 C 1033.41 0.564626 3.33961 0
M  V30 11292 C 1032.46 1.63524 3.93906 0
M  V30 11293 S 1033.29 3.22577 4.27439 0
M  V30 11294 C 1034.45 2.77579 5.60982 0
M  V30 11295 H 1034.68 1.96367 2.2322 0
M  V30 11296 H 1032.21 1.10597 1.07739 0
M  V30 11297 H 1034.17 0.301388 4.09392 0
M  V30 11298 H 1032.83 -0.346419 3.12184 0
M  V30 11299 H 1032.03 1.25905 4.8802 0
M  V30 11300 H 1031.63 1.85017 3.25031 0
M  V30 11301 H 1033.92 2.22412 6.39952 0
M  V30 11302 H 1034.86 3.70408 6.03493 0
M  V30 11303 H 1035.27 2.16956 5.21143 0
M  V30 11304 N 1034.67 -1.14067 1.0875 0
M  V30 11305 C 1035.63 -2.17453 0.724341 0
M  V30 11306 C 1036.63 -1.58959 -0.242614 0
M  V30 11307 O 1037.82 -1.74186 -0.0217008 0
M  V30 11308 C 1034.96 -3.40828 0.0700236 0
M  V30 11309 H 1036.15 -2.51094 1.63987 0
M  V30 11310 H 1033.7 -1.28775 0.885813 0
M  V30 11311 H 1034.44 -3.1277 -0.857061 0
M  V30 11312 H 1034.22 -3.84551 0.76569 0
M  V30 11313 H 1035.71 -4.17258 -0.168905 0
M  V30 11314 N 1036.15 -0.873678 -1.31166 0
M  V30 11315 C 1037.06 -0.335726 -2.32185 0
M  V30 11316 C 1038.07 0.556259 -1.64869 0
M  V30 11317 O 1039.25 0.452087 -1.9626 0
M  V30 11318 C 1036.32 0.450822 -3.43756 0
M  V30 11319 C 1035.38 -0.469565 -4.26724 0
M  V30 11320 C 1034.61 0.279538 -5.32967 0
M  V30 11321 O 1034.83 1.50715 -5.50128 0
M  V30 11322 O 1033.77 -0.36452 -6.00795 0
M  V30 11323 H 1037.59 -1.17314 -2.80127 0
M  V30 11324 H 1035.18 -0.637163 -1.35132 0
M  V30 11325 H 1037.06 0.896582 -4.11752 0
M  V30 11326 H 1035.73 1.26472 -2.9797 0
M  V30 11327 H 1034.64 -0.963902 -3.61469 0
M  V30 11328 H 1035.97 -1.24916 -4.76085 0
M  V30 11329 N 1037.63 1.44308 -0.633487 0
M  V30 11330 C 1038.54 2.34492 0.0711787 0
M  V30 11331 C 1039.55 1.52754 0.8332 0
M  V30 11332 O 1040.73 1.85475 0.784929 0
M  V30 11333 C 1037.79 3.30767 1.03895 0
M  V30 11334 C 1036.85 4.28412 0.276043 0
M  V30 11335 C 1036.09 5.20087 1.19772 0
M  V30 11336 O 1036.31 5.15743 2.4365 0
M  V30 11337 O 1035.24 5.98038 0.680764 0
M  V30 11338 H 1039.07 2.96203 -0.67063 0
M  V30 11339 H 1036.66 1.4412 -0.393678 0
M  V30 11340 H 1038.54 3.90021 1.59566 0
M  V30 11341 H 1037.21 2.71586 1.76133 0
M  V30 11342 H 1036.12 3.72696 -0.32377 0
M  V30 11343 H 1037.45 4.9052 -0.406364 0
M  V30 11344 N 1039.1 0.374177 1.53094 0
M  V30 11345 C 1040.07 -0.455999 2.24618 0
M  V30 11346 C 1041.07 -1.00269 1.25709 0
M  V30 11347 O 1042.26 -0.887077 1.49922 0
M  V30 11348 C 1039.39 -1.63822 2.98957 0
M  V30 11349 H 1040.58 0.169986 2.99418 0
M  V30 11350 H 1038.14 0.126015 1.55791 0
M  V30 11351 H 1038.87 -2.30205 2.28421 0
M  V30 11352 H 1038.66 -1.25308 3.71538 0
M  V30 11353 H 1040.15 -2.22633 3.53305 0
M  V30 11354 N 1040.58 -1.57259 0.103575 0
M  V30 11355 C 1041.83 -1.94272 -0.557024 0
M  V30 11356 C 1042.15 -0.986739 -1.68192 0
M  V30 11357 O 1041.42 -0.0402818 -1.95859 0
M  V30 11358 H 1040 -0.717237 -0.208757 0
M  V30 11359 H 1042.66 -1.94167 0.168898 0
M  V30 11360 H 1041.76 -2.96914 -0.961691 0
M  V30 11361 N 1042.06 0.170153 -1.56679 0
M  V30 11362 C 1043.02 1.19443 -1.95617 0
M  V30 11363 C 1044.02 1.37118 -0.83996 0
M  V30 11364 O 1045.21 1.34504 -1.10699 0
M  V30 11365 C 1042.35 2.55926 -2.25199 0
M  V30 11366 H 1043.54 0.86095 -2.87276 0
M  V30 11367 H 1041.09 0.412646 -1.50755 0
M  V30 11368 H 1041.83 2.94286 -1.36257 0
M  V30 11369 H 1041.61 2.44464 -3.06562 0
M  V30 11370 H 1043.1 3.29742 -2.56242 0
M  V30 11371 N 1043.54 1.5137 0.438746 0
M  V30 11372 C 1044.45 1.75424 1.55768 0
M  V30 11373 C 1045.46 0.638409 1.61865 0
M  V30 11374 O 1046.64 0.9205 1.79133 0
M  V30 11375 C 1043.71 1.87288 2.9176 0
M  V30 11376 C 1042.77 3.11137 2.95791 0
M  V30 11377 C 1042 3.22425 4.25297 0
M  V30 11378 O 1042.22 2.39688 5.17596 0
M  V30 11379 O 1041.16 4.15393 4.35583 0
M  V30 11380 H 1044.98 2.70339 1.38386 0
M  V30 11381 H 1042.57 1.35854 0.621609 0
M  V30 11382 H 1044.45 1.97085 3.72472 0
M  V30 11383 H 1043.12 0.955599 3.09273 0
M  V30 11384 H 1042.03 3.06819 2.1404 0
M  V30 11385 H 1043.36 4.02549 2.83223 0
M  V30 11386 N 1045.02 -0.694098 1.41492 0
M  V30 11387 C 1045.96 -1.82932 1.43662 0
M  V30 11388 C 1046.96 -1.66455 0.31449 0
M  V30 11389 O 1048.16 -1.73298 0.486589 0
M  V30 11390 H 1044.54 -0.602847 0.449533 0
M  V30 11391 H 1046.51 -1.78218 2.39334 0
M  V30 11392 C 1045.26 -3.20962 1.33712 0
M  V30 11393 H 1044.58 -3.34257 2.19345 0
M  V30 11394 H 1046.02 -4.00467 1.39291 0
M  V30 11395 C 1044.48 -3.36863 0.0496332 0
M  V30 11396 O 1045.01 -3.91371 -0.905093 0
M  V30 11397 N 1043.22 -2.90588 -0.0269299 0
M  V30 11398 H 1042.76 -2.46417 0.750752 0
M  V30 11399 H 1042.72 -3.01605 -0.887781 0
M  V30 11400 N 1046.49 -1.27344 -0.928501 0
M  V30 11401 C 1047.42 -1.12517 -2.04602 0
M  V30 11402 C 1048.41 -0.0268563 -1.70079 0
M  V30 11403 O 1049.59 -0.201197 -1.93155 0
M  V30 11404 C 1046.72 -0.770749 -3.3864 0
M  V30 11405 C 1045.67 -1.8222 -3.87272 0
M  V30 11406 C 1045 -1.32178 -5.18105 0
M  V30 11407 C 1046.3 -3.22614 -4.10752 0
M  V30 11408 H 1047.99 -2.06 -2.17265 0
M  V30 11409 H 1045.54 -0.991827 -1.04397 0
M  V30 11410 H 1047.49 -0.653843 -4.16297 0
M  V30 11411 H 1046.22 0.19979 -3.25988 0
M  V30 11412 H 1044.88 -1.928 -3.11807 0
M  V30 11413 H 1044.52 -0.340719 -5.01845 0
M  V30 11414 H 1044.22 -2.02474 -5.51614 0
M  V30 11415 H 1045.75 -1.2178 -5.98333 0
M  V30 11416 H 1047.16 -3.1504 -4.78981 0
M  V30 11417 H 1045.56 -3.90614 -4.55566 0
M  V30 11418 H 1046.63 -3.67727 -3.16077 0
M  V30 11419 N 1047.97 1.13488 -1.09353 0
M  V30 11420 C 1049.22 1.84748 -0.829126 0
M  V30 11421 C 1049.55 1.83485 0.645247 0
M  V30 11422 O 1048.8 1.26767 1.49093 0
M  V30 11423 C 1049.1 3.32584 -1.30854 0
M  V30 11424 C 1048.77 3.54028 -2.7924 0
M  V30 11425 C 1047.43 3.59588 -3.19765 0
M  V30 11426 C 1049.78 3.62058 -3.74918 0
M  V30 11427 C 1047.11 3.70712 -4.54741 0
M  V30 11428 C 1049.46 3.7471 -5.09682 0
M  V30 11429 C 1048.13 3.78523 -5.49797 0
M  V30 11430 H 1047.4 0.67604 -0.303399 0
M  V30 11431 H 1050.04 1.33989 -1.36818 0
M  V30 11432 H 1048.35 3.85689 -0.689275 0
M  V30 11433 H 1050.04 3.86166 -1.08059 0
M  V30 11434 H 1046.63 3.50354 -2.4688 0
M  V30 11435 H 1050.82 3.57043 -3.44723 0
M  V30 11436 H 1046.07 3.71931 -4.8526 0
M  V30 11437 H 1050.25 3.79866 -5.83674 0
M  V30 11438 H 1047.88 3.86895 -6.54382 0
M  V30 11439 N 1049.45 0.880621 1.30701 0
M  V30 11440 C 1050.7 0.492957 1.95583 0
M  V30 11441 C 1051.01 -0.961863 1.70316 0
M  V30 11442 O 1052.22 -1.45617 2.29146 0
M  V30 11443 C 1050.68 0.830656 3.50183 0
M  V30 11444 C 1050.28 2.30295 3.84276 0
M  V30 11445 C 1052.03 0.511979 4.21401 0
M  V30 11446 C 1049.93 2.58251 5.32034 0
M  V30 11447 H 1048.86 0.18062 0.732047 0
M  V30 11448 H 1051.52 1.075 1.48715 0
M  V30 11449 H 1049.9 0.177752 3.95601 0
M  V30 11450 H 1051.07 2.99981 3.49783 0
M  V30 11451 H 1049.39 2.58873 3.2615 0
M  V30 11452 H 1051.98 0.697935 5.30125 0
M  V30 11453 H 1052.33 -0.548327 4.12673 0
M  V30 11454 H 1052.86 1.12189 3.81652 0
M  V30 11455 H 1049.6 3.63005 5.45809 0
M  V30 11456 H 1049.12 1.9317 5.67843 0
M  V30 11457 H 1050.8 2.43527 5.99419 0
M  V30 11458 N 1050.93 -1.4397 0.641131 0
M  V30 11459 C 1052.18 -2.01946 0.149629 0
M  V30 11460 C 1052.5 -1.50496 -1.23212 0
M  V30 11461 O 1051.76 -0.683453 -1.83378 0
M  V30 11462 C 1052.06 -3.5727 0.0963368 0
M  V30 11463 C 1051.72 -4.28016 1.4182 0
M  V30 11464 C 1050.39 -4.47059 1.78021 0
M  V30 11465 C 1052.74 -4.68183 2.29028 0
M  V30 11466 C 1050.07 -5.03532 3.01119 0
M  V30 11467 C 1052.42 -5.26019 3.51406 0
M  V30 11468 C 1051.08 -5.4328 3.87818 0
M  V30 11469 H 1050.35 -0.738974 0.0547531 0
M  V30 11470 H 1053 -1.72605 0.829436 0
M  V30 11471 H 1051.3 -3.86083 -0.666879 0
M  V30 11472 H 1053 -3.99871 -0.300635 0
M  V30 11473 H 1049.59 -4.13531 1.12651 0
M  V30 11474 H 1053.78 -4.53175 2.02353 0
M  V30 11475 H 1049.03 -5.15082 3.29395 0
M  V30 11476 H 1053.21 -5.56092 4.19208 0
M  V30 11477 H 1050.83 -5.86805 4.83284 0
M  V30 11478 N 1052.41 -0.382291 -1.52893 0
M  V30 11479 C 1053.66 0.201734 -2.01091 0
M  V30 11480 C 1053.98 1.47905 -1.2708 0
M  V30 11481 O 1053.25 1.92002 -0.38883 0
M  V30 11482 H 1051.83 0.0775373 -0.742965 0
M  V30 11483 H 1054.49 -0.512369 -1.88045 0
M  V30 11484 H 1053.58 0.416919 -3.09303 0
M  V30 11485 N 1053.89 1.57202 -0.111913 0
M  V30 11486 C 1054.82 2.17957 0.837683 0
M  V30 11487 C 1055.8 1.1176 1.28233 0
M  V30 11488 O 1056.98 1.39967 1.34621 0
M  V30 11489 C 1054.11 2.77333 2.09054 0
M  V30 11490 C 1053.07 3.8905 1.78393 0
M  V30 11491 C 1052.39 4.35203 3.10649 0
M  V30 11492 C 1053.69 5.11477 1.05775 0
M  V30 11493 H 1055.39 2.9756 0.331441 0
M  V30 11494 H 1052.93 1.43131 0.157979 0
M  V30 11495 H 1054.88 3.18492 2.75936 0
M  V30 11496 H 1053.61 1.95009 2.6199 0
M  V30 11497 H 1052.27 3.48456 1.13903 0
M  V30 11498 H 1051.92 3.49747 3.61506 0
M  V30 11499 H 1051.62 5.10534 2.9091 0
M  V30 11500 H 1053.14 4.79007 3.78661 0
M  V30 11501 H 1054.55 5.497 1.62798 0
M  V30 11502 H 1052.95 5.92346 0.961573 0
M  V30 11503 H 1054.02 4.84881 0.043297 0
M  V30 11504 N 1055.36 -0.161842 1.56767 0
M  V30 11505 C 1056.78 -0.51396 1.51098 0
M  V30 11506 C 1056.98 -1.84158 0.817815 0
M  V30 11507 O 1056.04 -2.49592 0.382133 0
M  V30 11508 C 1057.35 -0.537966 2.95849 0
M  V30 11509 C 1058.9 -0.624512 3.06706 0
M  V30 11510 C 1059.37 -0.679322 4.52934 0
M  V30 11511 N 1060.86 -0.741953 4.57219 0
M  V30 11512 C 1061.6 -0.805096 5.6772 0
M  V30 11513 N 1061.09 -0.828492 6.87828 0
M  V30 11514 N 1062.89 -0.844843 5.55715 0
M  V30 11515 H 1055.04 0.708581 2.00232 0
M  V30 11516 H 1057.3 0.25663 0.912603 0
M  V30 11517 H 1057.01 0.369052 3.49758 0
M  V30 11518 H 1056.88 -1.38113 3.51005 0
M  V30 11519 H 1059.27 -1.52195 2.52825 0
M  V30 11520 H 1059.35 0.245515 2.54619 0
M  V30 11521 H 1058.99 0.213901 5.07449 0
M  V30 11522 H 1058.92 -1.56563 5.02788 0
M  V30 11523 H 1061.41 -0.731772 3.70747 0
M  V30 11524 H 1061.73 -0.878109 7.67795 0
M  V30 11525 H 1060.07 -0.796612 6.9042 0
M  V30 11526 H 1063.26 -0.823632 4.60797 0
M  V30 11527 H 1063.44 -0.890588 6.41851 0
M  V30 11528 N 1056.84 -1.516 -0.430713 0
M  V30 11529 C 1058.09 -1.6484 -1.18134 0
M  V30 11530 C 1058.42 -0.366725 -1.90706 0
M  V30 11531 O 1057.7 0.63398 -1.83878 0
M  V30 11532 C 1057.98 -2.85617 -2.19306 0
M  V30 11533 C 1057.83 -4.23778 -1.50773 0
M  V30 11534 C 1059.15 -3.01909 -3.20217 0
M  V30 11535 H 1056.27 -0.599907 -0.428113 0
M  V30 11536 H 1058.91 -1.84102 -0.46973 0
M  V30 11537 H 1057.06 -2.69325 -2.79993 0
M  V30 11538 H 1058.73 -4.51752 -0.93371 0
M  V30 11539 H 1056.98 -4.26171 -0.809966 0
M  V30 11540 H 1057.65 -5.04291 -2.24487 0
M  V30 11541 H 1060.12 -3.16956 -2.69589 0
M  V30 11542 H 1059 -3.87968 -3.88293 0
M  V30 11543 H 1059.26 -2.1427 -3.86705 0
M  V30 11544 N 1058.32 0.686584 -1.41858 0
M  V30 11545 C 1059.23 1.83002 -1.46791 0
M  V30 11546 C 1060.25 1.70284 -0.357675 0
M  V30 11547 O 1061.42 1.92042 -0.606781 0
M  V30 11548 C 1058.49 3.19056 -1.35661 0
M  V30 11549 C 1057.55 3.43817 -2.57077 0
M  V30 11550 C 1056.78 4.7338 -2.46469 0
M  V30 11551 O 1057 5.50483 -1.49413 0
M  V30 11552 O 1055.94 4.99124 -3.36391 0
M  V30 11553 H 1059.76 1.81797 -2.43277 0
M  V30 11554 H 1057.35 0.840812 -1.23494 0
M  V30 11555 H 1059.23 4.00267 -1.31773 0
M  V30 11556 H 1057.91 3.20925 -0.422951 0
M  V30 11557 H 1056.81 2.625 -2.66541 0
M  V30 11558 H 1058.15 3.4677 -3.49302 0
M  V30 11559 N 1059.8 1.27835 0.921735 0
M  V30 11560 C 1061.07 1.05238 1.64877 0
M  V30 11561 C 1061.45 -0.410921 2.07062 0
M  V30 11562 O 1060.8 -1.39538 1.80946 0
M  V30 11563 C 1061.01 2.01955 2.84632 0
M  V30 11564 C 1062.36 2.31657 3.55837 0
M  V30 11565 O 1063.38 1.99975 2.94768 0
M  V30 11566 O 1062.24 2.85692 4.65878 0
M  V30 11567 H 1059.34 0.401622 0.72293 0
M  V30 11568 H 1061.88 1.39123 0.971744 0
M  V30 11569 H 1060.66 3.00614 2.50494 0
M  V30 11570 H 1060.28 1.68667 3.60052 0
M  V30 11571 N 1061.28 -1.12907 1.09954 0
M  V30 11572 C 1062.52 -1.84579 0.840155 0
M  V30 11573 C 1062.85 -1.83605 -0.632692 0
M  V30 11574 O 1062.13 -1.27803 -1.46617 0
M  V30 11575 C 1062.41 -3.32489 1.38286 0
M  V30 11576 C 1062.27 -3.41946 2.92221 0
M  V30 11577 C 1063.58 -4.28091 1.0211 0
M  V30 11578 H 1060.7 -0.670169 0.306663 0
M  V30 11579 H 1063.35 -1.3249 1.36185 0
M  V30 11580 H 1061.5 -3.76978 0.939123 0
M  V30 11581 H 1063.17 -3.06128 3.45085 0
M  V30 11582 H 1061.41 -2.8265 3.29077 0
M  V30 11583 H 1062.08 -4.45983 3.25274 0
M  V30 11584 H 1064.56 -3.91701 1.4039 0
M  V30 11585 H 1063.43 -5.30005 1.42781 0
M  V30 11586 H 1063.69 -4.42044 -0.0700753 0
M  V30 11587 N 1062.75 -0.88754 -1.30232 0
M  V30 11588 C 1063.66 -0.360333 -2.31816 0
M  V30 11589 C 1064.68 0.538741 -1.6545 0
M  V30 11590 O 1065.86 0.431246 -1.96729 0
M  V30 11591 C 1062.92 0.414336 -3.44215 0
M  V30 11592 C 1061.98 -0.514799 -4.26202 0
M  V30 11593 C 1061.21 0.222994 -5.33234 0
M  V30 11594 O 1061.44 1.44871 -5.51696 0
M  V30 11595 O 1060.37 -0.428221 -6.00375 0
M  V30 11596 H 1064.2 -1.20279 -2.78867 0
M  V30 11597 H 1061.78 -0.651459 -1.34448 0
M  V30 11598 H 1063.66 0.852859 -4.12679 0
M  V30 11599 H 1062.34 1.23305 -2.99295 0
M  V30 11600 H 1061.25 -1.00219 -3.60426 0
M  V30 11601 H 1062.58 -1.29959 -4.74733 0
M  V30 11602 N 1064.23 1.43628 -0.648757 0
M  V30 11603 C 1065.2 2.29172 0.0360713 0
M  V30 11604 C 1066.2 1.41974 0.754976 0
M  V30 11605 O 1067.39 1.63654 0.5969 0
M  V30 11606 C 1064.52 3.23942 1.0618 0
M  V30 11607 H 1065.71 2.91214 -0.716544 0
M  V30 11608 H 1063.26 1.50833 -0.409759 0
M  V30 11609 H 1064 2.66786 1.8438 0
M  V30 11610 H 1063.78 3.88223 0.550016 0
M  V30 11611 H 1065.27 3.8816 1.54019 0
M  V30 11612 N 1065.71 0.390394 1.52688 0
M  V30 11613 C 1066.64 -0.43567 2.294 0
M  V30 11614 C 1067.62 -1.06253 1.32832 0
M  V30 11615 O 1068.81 -1.07509 1.61726 0
M  V30 11616 C 1065.94 -1.56259 3.10162 0
M  V30 11617 C 1064.89 -1.06172 4.14622 0
M  V30 11618 C 1064.22 -2.2808 4.83615 0
M  V30 11619 C 1065.52 -0.128902 5.22141 0
M  V30 11620 H 1067.21 0.204384 2.98702 0
M  V30 11621 H 1064.76 0.0997377 1.43654 0
M  V30 11622 H 1066.71 -2.14732 3.62585 0
M  V30 11623 H 1065.43 -2.23025 2.38595 0
M  V30 11624 H 1064.09 -0.499518 3.63181 0
M  V30 11625 H 1063.74 -2.93358 4.08595 0
M  V30 11626 H 1063.44 -1.95227 5.5422 0
M  V30 11627 H 1064.96 -2.87193 5.38844 0
M  V30 11628 H 1066.38 -0.621849 5.69917 0
M  V30 11629 H 1064.78 0.109919 5.99999 0
M  V30 11630 H 1065.85 0.821884 4.77884 0
M  V30 11631 N 1067.19 -1.57141 0.120249 0
M  V30 11632 C 1068.47 -1.8677 -0.581075 0
M  V30 11633 C 1068.85 -1.02163 -1.84732 0
M  V30 11634 O 1068.19 -0.100897 -2.28277 0
M  V30 11635 C 1068.4 -3.37923 -0.872316 0
M  V30 11636 C 1069.75 -4.0655 -1.22483 0
M  V30 11637 O 1070.78 -3.42948 -0.962539 0
M  V30 11638 O 1069.63 -5.18821 -1.71717 0
M  V30 11639 H 1066.73 -0.773219 -0.293362 0
M  V30 11640 H 1069.27 -1.68992 0.154846 0
M  V30 11641 H 1068.05 -3.91292 0.0249416 0
M  V30 11642 H 1067.67 -3.61135 -1.66335 0
M  V30 11643 N 1068.67 0.153526 -1.5685 0
M  V30 11644 C 1070.08 0.505939 -1.51368 0
M  V30 11645 C 1070.28 1.83721 -0.82757 0
M  V30 11646 O 1069.34 2.49385 -0.395364 0
M  V30 11647 C 1070.65 0.522269 -2.9613 0
M  V30 11648 C 1072.2 0.608238 -3.07033 0
M  V30 11649 C 1072.67 0.655292 -4.53288 0
M  V30 11650 N 1074.17 0.717695 -4.57606 0
M  V30 11651 C 1074.9 0.774977 -5.68139 0
M  V30 11652 N 1074.4 0.792003 -6.88258 0
M  V30 11653 N 1076.19 0.81536 -5.56155 0
M  V30 11654 H 1068.34 -0.71919 -1.99853 0
M  V30 11655 H 1070.6 -0.261466 -0.91123 0
M  V30 11656 H 1070.31 -0.387595 -3.49558 0
M  V30 11657 H 1070.18 1.3625 -3.51733 0
M  V30 11658 H 1072.57 1.50852 -2.53629 0
M  V30 11659 H 1072.65 -0.259014 -2.54485 0
M  V30 11660 H 1072.3 -0.240809 -5.07329 0
M  V30 11661 H 1072.23 1.53894 -5.03611 0
M  V30 11662 H 1074.72 0.7121 -3.7113 0
M  V30 11663 H 1075.03 0.837378 -7.6825 0
M  V30 11664 H 1073.37 0.759986 -6.90832 0
M  V30 11665 H 1076.57 0.799183 -4.61227 0
M  V30 11666 H 1076.74 0.856537 -6.42314 0
M  V30 11667 N 1070.14 1.51827 0.422667 0
M  V30 11668 C 1071.09 1.74198 1.51406 0
M  V30 11669 C 1072.06 0.584013 1.55494 0
M  V30 11670 O 1073.25 0.820079 1.72277 0
M  V30 11671 C 1070.39 1.88627 2.88988 0
M  V30 11672 C 1069.5 3.16233 2.94314 0
M  V30 11673 C 1068.63 3.21172 4.2311 0
M  V30 11674 C 1067.67 4.43033 4.2236 0
M  V30 11675 N 1066.81 4.4544 5.42704 0
M  V30 11676 H 1071.65 2.67352 1.31632 0
M  V30 11677 H 1069.19 1.32487 0.63919 0
M  V30 11678 H 1071.15 1.94976 3.68837 0
M  V30 11679 H 1069.78 0.988673 3.07287 0
M  V30 11680 H 1068.83 3.19123 2.07039 0
M  V30 11681 H 1070.14 4.06104 2.89623 0
M  V30 11682 H 1069.29 3.26517 5.11343 0
M  V30 11683 H 1068.03 2.29216 4.30478 0
M  V30 11684 H 1067.04 4.37849 3.32518 0
M  V30 11685 H 1068.26 5.3627 4.16643 0
M  V30 11686 H 1066.21 3.56361 5.50766 0
M  V30 11687 H 1066.13 5.29138 5.39953 0
M  V30 11688 H 1067.39 4.54997 6.32928 0
M  V30 11689 N 1071.62 -0.679052 1.4222 0
M  V30 11690 C 1072.87 -1.43627 1.42182 0
M  V30 11691 C 1073.19 -1.94964 0.0377095 0
M  V30 11692 O 1072.46 -1.72788 -0.923098 0
M  V30 11693 H 1071.04 -0.532972 0.523402 0
M  V30 11694 H 1073.7 -0.802649 1.77605 0
M  V30 11695 H 1072.8 -2.29137 2.11902 0
M  V30 11696 N 1073.1 -1.28322 -0.914942 0
M  V30 11697 C 1074.33 -1.18083 -1.69529 0
M  V30 11698 C 1074.74 0.263274 -1.87359 0
M  V30 11699 O 1074.08 1.18988 -1.39955 0
M  V30 11700 C 1074.14 -1.8062 -3.10832 0
M  V30 11701 C 1073.81 -3.29861 -3.16292 0
M  V30 11702 C 1074.8 -4.26313 -2.97578 0
M  V30 11703 C 1072.49 -3.70797 -3.38843 0
M  V30 11704 C 1074.48 -5.61677 -3.01326 0
M  V30 11705 C 1072.17 -5.06287 -3.42223 0
M  V30 11706 C 1073.17 -6.01537 -3.23485 0
M  V30 11707 O 1072.86 -7.34556 -3.26624 0
M  V30 11708 H 1072.59 -0.410931 -0.53676 0
M  V30 11709 H 1075.14 -1.6994 -1.15367 0
M  V30 11710 H 1073.37 -1.23255 -3.66531 0
M  V30 11711 H 1075.06 -1.64915 -3.70888 0
M  V30 11712 H 1075.83 -3.96023 -2.79984 0
M  V30 11713 H 1071.71 -2.97124 -3.52475 0
M  V30 11714 H 1075.25 -6.36 -2.86618 0
M  V30 11715 H 1071.15 -5.36228 -3.59346 0
M  V30 11716 H 1071.92 -7.43167 -3.42994 0
M  V30 11717 N 1074.58 1.12322 -1.10551 0
M  V30 11718 C 1075.53 2.20166 -0.750317 0
M  V30 11719 C 1076.52 1.67484 0.254066 0
M  V30 11720 O 1077.73 1.79637 0.114309 0
M  V30 11721 H 1074.1 0.717642 -0.22471 0
M  V30 11722 H 1076.07 2.47378 -1.66873 0
M  V30 11723 C 1074.82 3.47126 -0.199651 0
M  V30 11724 H 1074.14 3.88011 -0.963735 0
M  V30 11725 H 1075.58 4.23999 0.0108033 0
M  V30 11726 C 1074.04 3.19526 1.06792 0
M  V30 11727 O 1074.57 3.39368 2.14923 0
M  V30 11728 N 1072.78 2.73324 0.987032 0
M  V30 11729 H 1072.33 2.57378 0.106997 0
M  V30 11730 H 1072.28 2.55234 1.83584 0
M  V30 11731 N 1076.06 0.894434 1.2976 0
M  V30 11732 C 1077.02 0.373094 2.26143 0
M  V30 11733 C 1078.02 -0.489756 1.5316 0
M  V30 11734 O 1079.21 -0.29556 1.71674 0
M  V30 11735 C 1076.34 -0.467234 3.37683 0
M  V30 11736 H 1077.53 1.22427 2.73773 0
M  V30 11737 H 1075.09 0.672112 1.41111 0
M  V30 11738 H 1075.82 -1.33861 2.95384 0
M  V30 11739 H 1075.61 0.150954 3.91809 0
M  V30 11740 H 1077.1 -0.823469 4.094 0
M  V30 11741 N 1077.53 -1.43282 0.656365 0
M  V30 11742 C 1078.95 -1.56272 0.324213 0
M  V30 11743 C 1079.15 -1.63946 -1.1715 0
M  V30 11744 O 1078.21 -1.59625 -1.95643 0
M  V30 11745 C 1079.52 -2.82204 1.03833 0
M  V30 11746 C 1081.07 -2.95952 1.01889 0
M  V30 11747 C 1081.54 -4.2472 1.71397 0
M  V30 11748 N 1083.03 -4.31591 1.68176 0
M  V30 11749 C 1083.77 -5.30001 2.1883 0
M  V30 11750 N 1083.26 -6.34671 2.77785 0
M  V30 11751 N 1085.06 -5.21676 2.09311 0
M  V30 11752 H 1077.21 -1.36544 1.62694 0
M  V30 11753 H 1079.47 -0.655999 0.684375 0
M  V30 11754 H 1079.18 -2.82608 2.09346 0
M  V30 11755 H 1079.05 -3.72527 0.591878 0
M  V30 11756 H 1081.44 -2.95087 -0.0278431 0
M  V30 11757 H 1081.52 -2.0691 1.50406 0
M  V30 11758 H 1081.16 -4.26346 2.76028 0
M  V30 11759 H 1081.09 -5.12665 1.20342 0
M  V30 11760 H 1083.58 -3.56573 1.25157 0
M  V30 11761 H 1083.9 -7.06087 3.14104 0
M  V30 11762 H 1082.24 -6.35285 2.81847 0
M  V30 11763 H 1085.43 -4.3882 1.62955 0
M  V30 11764 H 1085.61 -5.9821 2.49095 0
M  V30 11765 N 1079.01 -0.398486 -1.52479 0
M  V30 11766 C 1079.92 0.439328 -2.3045 0
M  V30 11767 C 1080.94 1.06322 -1.37738 0
M  V30 11768 O 1082.12 1.06704 -1.7081 0
M  V30 11769 C 1079.18 1.54655 -3.10294 0
M  V30 11770 C 1078.24 0.946824 -4.18729 0
M  V30 11771 C 1077.47 2.00129 -4.94757 0
M  V30 11772 O 1077.7 3.2178 -4.70971 0
M  V30 11773 O 1076.63 1.61345 -5.79872 0
M  V30 11774 H 1080.46 -0.196118 -3.03066 0
M  V30 11775 H 1078.04 -0.161961 -1.4852 0
M  V30 11776 H 1079.92 2.18958 -3.60049 0
M  V30 11777 H 1078.6 2.1668 -2.40482 0
M  V30 11778 H 1077.51 0.266802 -3.73147 0
M  V30 11779 H 1078.84 0.370664 -4.90802 0
M  V30 11780 N 1080.49 1.57075 -0.12858 0
M  V30 11781 C 1081.72 1.99586 0.533769 0
M  V30 11782 C 1082.13 1.00737 1.60152 0
M  V30 11783 O 1081.47 -0.00647783 1.83699 0
M  V30 11784 C 1081.53 3.3852 1.21014 0
M  V30 11785 C 1081.2 4.56084 0.289191 0
M  V30 11786 C 1082.2 5.17717 -0.475963 0
M  V30 11787 C 1079.88 5.01912 0.197467 0
M  V30 11788 C 1081.87 6.23572 -1.32048 0
M  V30 11789 C 1079.56 6.07626 -0.65067 0
M  V30 11790 C 1080.56 6.68324 -1.40826 0
M  V30 11791 O 1080.25 7.71995 -2.2423 0
M  V30 11792 H 1079.98 0.660245 0.145096 0
M  V30 11793 H 1082.53 2.04276 -0.214615 0
M  V30 11794 H 1080.76 3.30613 2.00579 0
M  V30 11795 H 1082.45 3.65258 1.77036 0
M  V30 11796 H 1083.22 4.83221 -0.415027 0
M  V30 11797 H 1079.1 4.54407 0.776853 0
M  V30 11798 H 1082.64 6.70878 -1.91228 0
M  V30 11799 H 1078.54 6.41551 -0.712965 0
M  V30 11800 H 1079.31 7.89135 -2.17276 0
M  V30 11801 N 1081.97 -0.145205 1.5693 0
M  V30 11802 C 1083.2 -0.871133 1.87336 0
M  V30 11803 C 1083.61 -1.7517 0.714992 0
M  V30 11804 O 1082.95 -1.80815 -0.324304 0
M  V30 11805 C 1083.01 -1.77775 3.12468 0
M  V30 11806 C 1082.68 -1.07416 4.44197 0
M  V30 11807 C 1083.67 -0.42722 5.18142 0
M  V30 11808 C 1081.36 -1.06313 4.9092 0
M  V30 11809 C 1083.35 0.221348 6.37016 0
M  V30 11810 C 1081.04 -0.410755 6.09718 0
M  V30 11811 C 1082.04 0.230357 6.82611 0
M  V30 11812 O 1081.73 0.872389 7.99152 0
M  V30 11813 H 1081.46 -0.257174 0.62517 0
M  V30 11814 H 1084.01 -0.142159 2.04907 0
M  V30 11815 H 1082.24 -2.54771 2.9091 0
M  V30 11816 H 1083.93 -2.37579 3.29107 0
M  V30 11817 H 1084.7 -0.427536 4.83112 0
M  V30 11818 H 1080.58 -1.55156 4.34105 0
M  V30 11819 H 1084.12 0.722349 6.9385 0
M  V30 11820 H 1080.02 -0.408112 6.44209 0
M  V30 11821 H 1080.78 0.774236 8.1483 0
M  V30 11822 N 1083.45 -1.52049 -0.414609 0
M  V30 11823 C 1084.72 -1.56397 -1.17471 0
M  V30 11824 C 1085.1 -0.34171 -2.08316 0
M  V30 11825 O 1084.45 0.6718 -2.18401 0
M  V30 11826 C 1084.66 -2.88983 -1.95678 0
M  V30 11827 C 1086.01 -3.41781 -2.51935 0
M  V30 11828 O 1087.03 -2.90686 -2.05865 0
M  V30 11829 O 1085.89 -4.30989 -3.36022 0
M  V30 11830 H 1082.99 -0.62974 -0.536056 0
M  V30 11831 H 1085.53 -1.64374 -0.421834 0
M  V30 11832 H 1084.31 -3.69392 -1.29094 0
M  V30 11833 H 1083.93 -2.84274 -2.77983 0
M  V30 11834 N 1084.93 0.6715 -1.42579 0
M  V30 11835 C 1085.88 1.77767 -1.42769 0
M  V30 11836 C 1086.86 1.58106 -0.298568 0
M  V30 11837 O 1088.05 1.68528 -0.541037 0
M  V30 11838 C 1085.18 3.16248 -1.33574 0
M  V30 11839 C 1084.27 3.41521 -2.51445 0
M  V30 11840 N 1084.66 3.37361 -3.76857 0
M  V30 11841 C 1082.96 3.7217 -2.45776 0
M  V30 11842 C 1083.66 3.62209 -4.5517 0
M  V30 11843 N 1082.63 3.83134 -3.85628 0
M  V30 11844 H 1086.43 1.72949 -2.37626 0
M  V30 11845 H 1083.95 0.872467 -1.36974 0
M  V30 11846 H 1085.95 3.9552 -1.31793 0
M  V30 11847 H 1084.61 3.22261 -0.397223 0
M  V30 11848 H 1085.62 3.17187 -4.09406 0
M  V30 11849 H 1082.29 3.85408 -1.6052 0
M  V30 11850 H 1083.68 3.64925 -5.64162 0
M  V30 11851 N 1086.4 1.28806 0.908124 0
M  V30 11852 C 1087.33 1.15758 2.02787 0
M  V30 11853 C 1088.31 0.053911 1.70015 0
M  V30 11854 O 1089.5 0.231901 1.9281 0
M  V30 11855 C 1086.63 0.824526 3.37371 0
M  V30 11856 C 1085.58 1.88359 3.84324 0
M  V30 11857 C 1084.91 1.40404 5.15937 0
M  V30 11858 C 1086.21 3.29108 4.05568 0
M  V30 11859 H 1087.9 2.09431 2.13961 0
M  V30 11860 H 1085.45 1.00831 1.02806 0
M  V30 11861 H 1087.4 0.71999 4.15204 0
M  V30 11862 H 1086.13 -0.147902 3.26265 0
M  V30 11863 H 1084.79 1.97736 3.087 0
M  V30 11864 H 1084.43 0.420515 5.01239 0
M  V30 11865 H 1084.13 2.11224 5.48323 0
M  V30 11866 H 1085.66 1.31283 5.9632 0
M  V30 11867 H 1087.07 3.2262 4.73909 0
M  V30 11868 H 1085.47 3.97812 4.49294 0
M  V30 11869 H 1086.54 3.72709 3.10187 0
M  V30 11870 N 1087.88 -1.11734 1.11145 0
M  V30 11871 C 1089.29 -1.64928 0.874959 0
M  V30 11872 C 1089.64 -1.87012 -0.593375 0
M  V30 11873 O 1088.77 -1.60206 -1.45475 0
M  V30 11874 C 1089.36 -2.99608 1.58178 0
M  V30 11875 C 1087.92 -3.49723 1.39179 0
M  V30 11876 C 1087.07 -2.24595 1.62642 0
M  V30 11877 H 1090.02 -0.954154 1.26813 0
M  V30 11878 H 1090.04 -3.66434 1.02501 0
M  V30 11879 H 1089.55 -2.83504 2.65042 0
M  V30 11880 H 1087.65 -3.70998 0.345111 0
M  V30 11881 H 1087.77 -4.28711 2.13878 0
M  V30 11882 H 1086.13 -2.32067 1.04961 0
M  V30 11883 H 1086.91 -2.11036 2.70774 0
M  V30 11884 N 1089.36 -0.901303 -1.29284 0
M  V30 11885 C 1090.27 -0.3849 -2.31421 0
M  V30 11886 C 1091.29 0.521163 -1.66012 0
M  V30 11887 O 1092.46 0.410356 -1.97175 0
M  V30 11888 C 1089.53 0.377804 -3.44635 0
M  V30 11889 C 1088.59 -0.559974 -4.25632 0
M  V30 11890 C 1087.82 0.166425 -5.3344 0
M  V30 11891 O 1088.04 1.39012 -5.53202 0
M  V30 11892 O 1086.98 -0.491875 -5.99887 0
M  V30 11893 H 1090.8 -1.2323 -2.77575 0
M  V30 11894 H 1088.39 -0.665683 -1.3375 0
M  V30 11895 H 1090.27 0.809041 -4.13561 0
M  V30 11896 H 1088.95 1.20124 -3.00586 0
M  V30 11897 H 1087.85 -1.04036 -3.59343 0
M  V30 11898 H 1089.19 -1.34987 -4.73328 0
M  V30 11899 N 1090.84 1.42931 -0.663954 0
M  V30 11900 C 1091.77 2.33499 0.00731327 0
M  V30 11901 C 1092.75 1.50074 0.800733 0
M  V30 11902 O 1093.93 1.78708 0.760062 0
M  V30 11903 C 1091.06 3.33569 0.966897 0
M  V30 11904 C 1090.02 4.27064 0.282839 0
M  V30 11905 C 1089.34 5.17257 1.35461 0
M  V30 11906 C 1090.64 5.1564 -0.831438 0
M  V30 11907 H 1092.34 2.89879 -0.749044 0
M  V30 11908 H 1089.88 1.39385 -0.361656 0
M  V30 11909 H 1091.84 3.95833 1.44549 0
M  V30 11910 H 1090.56 2.75469 1.75455 0
M  V30 11911 H 1089.22 3.6618 -0.175417 0
M  V30 11912 H 1088.87 4.5549 2.13397 0
M  V30 11913 H 1088.57 5.80634 0.902098 0
M  V30 11914 H 1090.09 5.82395 1.83436 0
M  V30 11915 H 1091.51 5.71651 -0.434534 0
M  V30 11916 H 1089.9 5.87794 -1.20908 0
M  V30 11917 H 1090.97 4.54687 -1.68487 0
M  V30 11918 N 1092.32 0.406567 1.52266 0
M  V30 11919 C 1093.26 -0.420182 2.26943 0
M  V30 11920 C 1094.23 -1.04323 1.29251 0
M  V30 11921 O 1095.42 -1.06799 1.5811 0
M  V30 11922 C 1092.56 -1.5323 3.09216 0
M  V30 11923 C 1091.67 -0.930419 4.21862 0
M  V30 11924 C 1090.81 -2.01502 4.91498 0
M  V30 11925 C 1089.84 -1.38994 5.9611 0
M  V30 11926 N 1088.98 -2.41458 6.59274 0
M  V30 11927 H 1093.82 0.223066 2.97164 0
M  V30 11928 H 1091.36 0.121842 1.46595 0
M  V30 11929 H 1093.32 -2.18803 3.5522 0
M  V30 11930 H 1091.95 -2.14561 2.41171 0
M  V30 11931 H 1091 -0.163809 3.80047 0
M  V30 11932 H 1092.31 -0.433785 4.9691 0
M  V30 11933 H 1091.46 -2.74807 5.40894 0
M  V30 11934 H 1090.2 -2.5453 4.16012 0
M  V30 11935 H 1089.21 -0.642213 5.46036 0
M  V30 11936 H 1090.43 -0.867386 6.73538 0
M  V30 11937 H 1088.38 -2.93623 5.86619 0
M  V30 11938 H 1088.3 -1.96599 7.2999 0
M  V30 11939 H 1089.56 -3.14341 7.13309 0
M  V30 11940 N 1093.79 -1.57004 0.136909 0
M  V30 11941 C 1094.73 -2.13355 -0.837405 0
M  V30 11942 C 1095.74 -1.08053 -1.21772 0
M  V30 11943 O 1096.93 -1.35365 -1.16355 0
M  V30 11944 C 1094.03 -2.63302 -2.13366 0
M  V30 11945 C 1093.2 -3.92896 -1.92228 0
M  V30 11946 C 1092.26 -4.28257 -3.05749 0
M  V30 11947 O 1091.29 -4.96761 -2.7788 0
M  V30 11948 N 1092.49 -3.87021 -4.3266 0
M  V30 11949 H 1095.25 -2.9758 -0.35586 0
M  V30 11950 H 1092.81 -1.61832 -0.0469758 0
M  V30 11951 H 1094.81 -2.83977 -2.88339 0
M  V30 11952 H 1093.38 -1.83858 -2.52814 0
M  V30 11953 H 1092.6 -3.80949 -1.01349 0
M  V30 11954 H 1093.88 -4.776 -1.75431 0
M  V30 11955 H 1093.28 -3.31804 -4.58173 0
M  V30 11956 H 1091.84 -4.12768 -5.04446 0
M  V30 11957 N 1095.27 0.136881 -1.57004 0
M  V30 11958 C 1096.24 1.15267 -1.98106 0
M  V30 11959 C 1097.24 1.35305 -0.868856 0
M  V30 11960 O 1098.43 1.32126 -1.13527 0
M  V30 11961 C 1095.56 2.51092 -2.30577 0
M  V30 11962 H 1096.75 0.799821 -2.89038 0
M  V30 11963 H 1094.3 0.380576 -1.51596 0
M  V30 11964 H 1095.04 2.9133 -1.42469 0
M  V30 11965 H 1094.82 2.37906 -3.11678 0
M  V30 11966 H 1096.31 3.24232 -2.63179 0
M  V30 11967 N 1096.75 1.52266 0.40654 0
M  V30 11968 C 1098 1.66699 1.15496 0
M  V30 11969 C 1098.33 0.397019 1.90098 0
M  V30 11970 O 1097.6 -0.604646 1.84863 0
M  V30 11971 C 1097.89 2.8907 2.14734 0
M  V30 11972 C 1097.74 4.26123 1.44012 0
M  V30 11973 C 1099.06 3.06966 3.15373 0
M  V30 11974 H 1096.18 0.606642 0.418515 0
M  V30 11975 H 1098.82 1.84826 0.440381 0
M  V30 11976 H 1096.97 2.73745 2.75673 0
M  V30 11977 H 1098.64 4.5318 0.861722 0
M  V30 11978 H 1096.89 4.27406 0.742064 0
M  V30 11979 H 1097.56 5.07799 2.16436 0
M  V30 11980 H 1100.03 3.21205 2.64512 0
M  V30 11981 H 1098.91 3.94097 3.82072 0
M  V30 11982 H 1099.17 2.20395 3.83247 0
M  V30 11983 N 1098.23 -0.663929 1.42933 0
M  V30 11984 C 1099.51 -1.42054 1.34462 0
M  V30 11985 C 1099.89 -2.11096 -0.0127801 0
M  V30 11986 O 1099.23 -2.04027 -1.02884 0
M  V30 11987 C 1099.44 -2.41406 2.5204 0
M  V30 11988 C 1100.79 -3.05726 2.94647 0
M  V30 11989 O 1101.82 -2.51733 2.52009 0
M  V30 11990 O 1100.67 -4.03593 3.68477 0
M  V30 11991 H 1097.77 -0.634149 0.530834 0
M  V30 11992 H 1100.31 -0.691738 1.54962 0
M  V30 11993 H 1099.09 -1.89263 3.42484 0
M  V30 11994 H 1098.71 -3.21752 2.33584 0
M  V30 11995 N 1099.71 -1.29285 -0.901281 0
M  V30 11996 C 1100.64 -1.10086 -2.01032 0
M  V30 11997 C 1101.65 -0.0488364 -1.62727 0
M  V30 11998 O 1102.84 -0.293194 -1.76076 0
M  V30 11999 C 1099.94 -0.653357 -3.32542 0
M  V30 12000 C 1099.11 -1.78355 -3.99385 0
M  V30 12001 C 1098.17 -1.32733 -5.09184 0
M  V30 12002 O 1097.2 -2.03177 -5.31703 0
M  V30 12003 N 1098.4 -0.197345 -5.80164 0
M  V30 12004 H 1101.17 -2.056 -2.18057 0
M  V30 12005 H 1098.73 -1.21204 -1.07337 0
M  V30 12006 H 1100.72 -0.331491 -4.0334 0
M  V30 12007 H 1099.29 0.209278 -3.11899 0
M  V30 12008 H 1098.51 -2.27438 -3.21972 0
M  V30 12009 H 1099.8 -2.54137 -4.40785 0
M  V30 12010 H 1099.19 0.390011 -5.64354 0
M  V30 12011 H 1097.75 0.0651642 -6.51767 0
M  V30 12012 N 1101.18 1.11143 -1.11736 0
M  V30 12013 C 1102.43 1.82311 -0.862875 0
M  V30 12014 C 1102.75 1.85735 0.613326 0
M  V30 12015 O 1103.95 2.53034 0.984168 0
M  V30 12016 C 1102.41 3.27427 -1.49396 0
M  V30 12017 C 1102.02 3.32323 -3.00443 0
M  V30 12018 C 1103.76 4.03474 -1.31944 0
M  V30 12019 C 1101.67 4.71855 -3.56521 0
M  V30 12020 H 1100.6 0.683124 -0.31915 0
M  V30 12021 H 1103.25 1.25045 -1.34298 0
M  V30 12022 H 1101.63 3.84644 -0.941528 0
M  V30 12023 H 1102.8 2.84971 -3.62117 0
M  V30 12024 H 1101.12 2.69758 -3.17206 0
M  V30 12025 H 1103.72 5.06528 -1.71271 0
M  V30 12026 H 1104.06 4.15473 -0.262339 0
M  V30 12027 H 1104.59 3.52652 -1.84069 0
M  V30 12028 H 1101.33 4.65054 -4.61958 0
M  V30 12029 H 1100.85 5.19604 -2.99619 0
M  V30 12030 H 1102.53 5.40816 -3.55144 0
M  V30 12031 N 1102.66 0.908147 1.28804 0
M  V30 12032 C 1103.89 0.553431 1.9988 0
M  V30 12033 C 1104.31 -0.856714 1.67458 0
M  V30 12034 O 1103.67 -1.57163 0.903849 0
M  V30 12035 C 1103.72 0.762688 3.52442 0
M  V30 12036 O 1102.82 -0.180924 4.12003 0
M  V30 12037 H 1102.16 0.215237 0.628147 0
M  V30 12038 H 1104.69 1.22205 1.64095 0
M  V30 12039 H 1104.7 0.670612 4.02451 0
M  V30 12040 H 1103.38 1.79071 3.75375 0
M  V30 12041 H 1101.96 -0.0405897 3.72878 0
M  V30 12042 N 1104.14 -1.42577 0.671525 0
M  V30 12043 C 1105.37 -2.06442 0.199152 0
M  V30 12044 C 1105.79 -1.50104 -1.1336 0
M  V30 12045 O 1105.15 -0.618211 -1.70434 0
M  V30 12046 C 1105.2 -3.60323 0.141215 0
M  V30 12047 O 1104.3 -4.02655 -0.891238 0
M  V30 12048 H 1103.64 -0.655919 0.103277 0
M  V30 12049 H 1106.17 -1.82768 0.919614 0
M  V30 12050 H 1106.18 -4.07984 -0.0360209 0
M  V30 12051 H 1104.86 -4.00702 1.11403 0
M  V30 12052 H 1103.43 -3.66549 -0.685309 0
M  V30 12053 N 1105.62 -0.414636 -1.52048 0
M  V30 12054 C 1106.87 0.159034 -2.01473 0
M  V30 12055 C 1107.19 1.45176 -1.30188 0
M  V30 12056 O 1106.46 1.91134 -0.429469 0
M  V30 12057 H 1105.04 0.0617604 -0.744443 0
M  V30 12058 H 1107.7 -0.552141 -1.86916 0
M  V30 12059 H 1106.8 0.351217 -3.10118 0
M  V30 12060 N 1107.1 1.56929 -0.145233 0
M  V30 12061 C 1108.34 1.96068 0.50632 0
M  V30 12062 C 1108.67 1.02999 1.64989 0
M  V30 12063 O 1107.93 0.0588581 1.95611 0
M  V30 12064 C 1108.23 3.41467 1.05522 0
M  V30 12065 C 1107.89 4.5089 0.0302827 0
M  V30 12066 C 1106.55 4.80542 -0.251475 0
M  V30 12067 C 1108.91 5.16917 -0.666783 0
M  V30 12068 C 1106.23 5.7353 -1.23614 0
M  V30 12069 C 1108.59 6.10965 -1.64025 0
M  V30 12070 C 1107.25 6.38998 -1.92973 0
M  V30 12071 H 1106.52 0.717464 0.185276 0
M  V30 12072 H 1109.17 1.90093 -0.23169 0
M  V30 12073 H 1107.47 3.44265 1.87053 0
M  V30 12074 H 1109.17 3.69077 1.5679 0
M  V30 12075 H 1105.76 4.2781 0.260069 0
M  V30 12076 H 1109.94 4.94142 -0.462297 0
M  V30 12077 H 1105.2 5.93543 -1.46687 0
M  V30 12078 H 1109.37 6.61204 -2.18591 0
M  V30 12079 H 1107 7.10855 -2.69423 0
M  V30 12080 N 1108.58 -0.128553 1.57075 0
M  V30 12081 C 1109.82 -0.83801 1.84347 0
M  V30 12082 C 1110.15 -1.80325 0.728906 0
M  V30 12083 O 1109.41 -1.93678 -0.280571 0
M  V30 12084 C 1109.7 -1.63027 3.18052 0
M  V30 12085 C 1109.37 -0.810171 4.43562 0
M  V30 12086 C 1108.03 -0.583984 4.77643 0
M  V30 12087 C 1110.38 -0.237896 5.20657 0
M  V30 12088 C 1107.71 0.224887 5.86269 0
M  V30 12089 C 1110.06 0.558114 6.30133 0
M  V30 12090 C 1108.73 0.794706 6.62752 0
M  V30 12091 H 1108 -0.30665 0.674572 0
M  V30 12092 H 1110.65 -0.100797 1.91235 0
M  V30 12093 H 1108.95 -2.43812 3.06697 0
M  V30 12094 H 1110.65 -2.183 3.36372 0
M  V30 12095 H 1107.24 -0.996547 4.16854 0
M  V30 12096 H 1111.42 -0.399881 4.94686 0
M  V30 12097 H 1106.68 0.417507 6.09973 0
M  V30 12098 H 1110.85 1.00859 6.89058 0
M  V30 12099 H 1108.48 1.42331 7.46757 0
M  V30 12100 N 1110.05 -1.5248 -0.398459 0
M  V30 12101 C 1111.28 -1.71221 -1.17039 0
M  V30 12102 C 1111.7 -0.425515 -1.83224 0
M  V30 12103 O 1111.06 0.617938 -1.70444 0
M  V30 12104 C 1111.11 -2.8562 -2.20121 0
M  V30 12105 O 1110.21 -2.51934 -3.26501 0
M  V30 12106 H 1109.55 -0.569654 -0.34116 0
M  V30 12107 H 1112.08 -1.99231 -0.465652 0
M  V30 12108 H 1112.09 -3.10842 -2.64275 0
M  V30 12109 H 1110.77 -3.78969 -1.71334 0
M  V30 12110 H 1109.35 -2.3742 -2.87552 0
M  V30 12111 N 1111.53 0.65634 -1.43283 0
M  V30 12112 C 1112.94 1.23744 -1.39801 0
M  V30 12113 C 1113.29 1.95942 -0.100507 0
M  V30 12114 O 1112.42 2.01063 0.800161 0
M  V30 12115 C 1113.01 2.25062 -2.53244 0
M  V30 12116 C 1111.57 2.78657 -2.53036 0
M  V30 12117 C 1110.72 1.53251 -2.31105 0
M  V30 12118 H 1113.67 0.448553 -1.52229 0
M  V30 12119 H 1113.69 3.07174 -2.24553 0
M  V30 12120 H 1113.2 1.72487 -3.47664 0
M  V30 12121 H 1111.3 3.35304 -1.62487 0
M  V30 12122 H 1111.42 3.26414 -3.507 0
M  V30 12123 H 1109.78 1.80487 -1.79713 0
M  V30 12124 H 1110.56 1.02615 -3.27605 0
M  V30 12125 N 1113.01 1.29761 0.894412 0
M  V30 12126 C 1113.96 1.15341 1.99912 0
M  V30 12127 C 1114.93 0.0453488 1.66038 0
M  V30 12128 O 1116.11 0.213829 1.89598 0
M  V30 12129 C 1113.25 0.841432 3.34685 0
M  V30 12130 C 1112.36 2.03046 3.81309 0
M  V30 12131 C 1111.5 1.65739 5.04682 0
M  V30 12132 C 1110.54 2.81191 5.43689 0
M  V30 12133 N 1109.68 2.44244 6.58247 0
M  V30 12134 H 1114.52 2.09854 2.11578 0
M  V30 12135 H 1112.05 1.04421 1.03608 0
M  V30 12136 H 1114.01 0.641211 4.12243 0
M  V30 12137 H 1112.64 -0.066797 3.22731 0
M  V30 12138 H 1111.69 2.34222 2.9974 0
M  V30 12139 H 1113 2.89538 4.06164 0
M  V30 12140 H 1112.16 1.42036 5.8984 0
M  V30 12141 H 1110.9 0.764019 4.81678 0
M  V30 12142 H 1109.9 3.0557 4.57064 0
M  V30 12143 H 1111.13 3.712 5.68672 0
M  V30 12144 H 1109.07 1.57402 6.36837 0
M  V30 12145 H 1108.99 3.24269 6.82924 0
M  V30 12146 H 1110.26 2.23875 7.46659 0
M  V30 12147 N 1114.49 -1.10549 1.12324 0
M  V30 12148 C 1115.4 -2.20428 0.803032 0
M  V30 12149 C 1116.41 -1.72756 -0.207674 0
M  V30 12150 O 1117.59 -2.01357 -0.0415623 0
M  V30 12151 C 1114.65 -3.45716 0.261032 0
M  V30 12152 C 1113.72 -4.08129 1.33152 0
M  V30 12153 C 1112.95 -5.27436 0.815288 0
M  V30 12154 O 1113.17 -5.69317 -0.351361 0
M  V30 12155 O 1112.11 -5.80674 1.58434 0
M  V30 12156 H 1115.93 -2.50249 1.72073 0
M  V30 12157 H 1113.52 -1.19263 0.899815 0
M  V30 12158 H 1115.4 -4.21384 -0.0364007 0
M  V30 12159 H 1114.07 -3.17525 -0.629249 0
M  V30 12160 H 1112.98 -3.3415 1.6821 0
M  V30 12161 H 1114.31 -4.4052 2.19552 0
M  V30 12162 N 1115.97 -0.914965 -1.28321 0
M  V30 12163 C 1117.38 -0.59512 -1.76961 0
M  V30 12164 C 1117.73 0.88958 -1.74874 0
M  V30 12165 O 1116.85 1.6959 -1.34418 0
M  V30 12166 C 1117.45 -1.07353 -3.21342 0
M  V30 12167 C 1116.01 -0.804577 -3.677 0
M  V30 12168 C 1115.15 -1.23955 -2.48053 0
M  V30 12169 H 1118.1 -1.0961 -1.14767 0
M  V30 12170 H 1118.13 -0.415506 -3.78225 0
M  V30 12171 H 1117.64 -2.15413 -3.22829 0
M  V30 12172 H 1115.74 0.26277 -3.71672 0
M  V30 12173 H 1115.85 -1.41317 -4.57784 0
M  V30 12174 H 1114.22 -0.658274 -2.46046 0
M  V30 12175 H 1115 -2.32853 -2.52258 0
M  V30 12176 N 1117.44 1.42219 -0.679077 0
M  V30 12177 C 1118.72 1.95155 -0.13188 0
M  V30 12178 C 1119.1 1.6193 1.35433 0
M  V30 12179 O 1118.45 0.917672 2.09263 0
M  V30 12180 C 1118.66 3.46635 -0.405578 0
M  V30 12181 C 1120.01 4.23359 -0.324394 0
M  V30 12182 O 1121.03 3.54578 -0.339564 0
M  V30 12183 O 1119.89 5.45831 -0.270268 0
M  V30 12184 H 1116.98 0.826983 -0.00535438 0
M  V30 12185 H 1119.53 1.52024 -0.754101 0
M  V30 12186 H 1118.3 3.6404 -1.43495 0
M  V30 12187 H 1117.92 3.96823 0.248439 0
M  V30 12188 N 1118.92 0.422693 1.51826 0
M  V30 12189 C 1120.16 -0.147997 2.03864 0
M  V30 12190 C 1120.53 -1.41224 1.30076 0
M  V30 12191 O 1121.73 -2.06224 1.72409 0
M  V30 12192 C 1120 -0.376248 3.55414 0
M  V30 12193 S 1121.56 -0.912444 4.29208 0
M  V30 12194 H 1118.37 -0.0387084 0.709946 0
M  V30 12195 H 1120.98 0.578733 1.86738 0
M  V30 12196 H 1119.68 0.550451 4.06692 0
M  V30 12197 H 1119.21 -1.13047 3.76807 0
M  V30 12198 H 1121.23 -2.19161 4.45177 0
M  V30 12199 N 1120.4 -1.5685 0.153553 0
M  V30 12200 C 1121.65 -1.96334 -0.495915 0
M  V30 12201 C 1121.97 -1.03873 -1.64441 0
M  V30 12202 O 1121.23 -0.069231 -1.95578 0
M  V30 12203 C 1121.53 -3.42022 -1.0371 0
M  V30 12204 C 1121.19 -4.509 -0.00637049 0
M  V30 12205 C 1119.86 -4.80402 0.276956 0
M  V30 12206 C 1122.21 -5.16556 0.694187 0
M  V30 12207 C 1119.54 -5.72866 1.26653 0
M  V30 12208 C 1121.89 -6.10087 1.67263 0
M  V30 12209 C 1120.55 -6.37965 1.96359 0
M  V30 12210 H 1119.82 -0.718436 -0.181468 0
M  V30 12211 H 1122.47 -1.89968 0.241768 0
M  V30 12212 H 1120.77 -3.45252 -1.85225 0
M  V30 12213 H 1122.47 -3.69903 -1.54831 0
M  V30 12214 H 1119.06 -4.27942 -0.237378 0
M  V30 12215 H 1123.25 -4.9389 0.488496 0
M  V30 12216 H 1118.5 -5.92756 1.49833 0
M  V30 12217 H 1122.68 -6.60036 2.22094 0
M  V30 12218 H 1120.3 -7.09416 2.73189 0
M  V30 12219 N 1121.88 0.120221 -1.57141 0
M  V30 12220 C 1122.82 1.14751 -2.00252 0
M  V30 12221 C 1123.79 1.41217 -0.874462 0
M  V30 12222 O 1124.98 1.53104 -1.13859 0
M  V30 12223 C 1122.12 2.46923 -2.41087 0
M  V30 12224 C 1121.23 2.27403 -3.67303 0
M  V30 12225 C 1120.37 3.52797 -3.97125 0
M  V30 12226 C 1119.41 3.28429 -5.16528 0
M  V30 12227 N 1118.54 4.46022 -5.42226 0
M  V30 12228 H 1123.38 0.772884 -2.87803 0
M  V30 12229 H 1120.92 0.370137 -1.42367 0
M  V30 12230 H 1122.88 3.24025 -2.62799 0
M  V30 12231 H 1121.51 2.82281 -1.5658 0
M  V30 12232 H 1120.56 1.41224 -3.53214 0
M  V30 12233 H 1121.87 2.05373 -4.54558 0
M  V30 12234 H 1121.03 4.38318 -4.19479 0
M  V30 12235 H 1119.77 3.77857 -3.08343 0
M  V30 12236 H 1118.77 2.41299 -4.94019 0
M  V30 12237 H 1120 3.0474 -6.06886 0
M  V30 12238 H 1117.94 4.71205 -4.56401 0
M  V30 12239 H 1117.86 4.27092 -6.23802 0
M  V30 12240 H 1119.13 5.3268 -5.69098 0
M  V30 12241 N 1123.36 1.52689 0.390367 0
M  V30 12242 C 1124.63 1.58246 1.14968 0
M  V30 12243 C 1125.01 0.374808 2.07746 0
M  V30 12244 O 1124.36 -0.636969 2.19442 0
M  V30 12245 C 1124.57 2.92059 1.91056 0
M  V30 12246 C 1125.92 3.45745 2.46466 0
M  V30 12247 O 1126.94 2.93924 2.01214 0
M  V30 12248 O 1125.8 4.3628 3.29122 0
M  V30 12249 H 1122.9 0.638189 0.52597 0
M  V30 12250 H 1125.44 1.65024 0.39563 0
M  V30 12251 H 1124.21 3.71399 1.23201 0
M  V30 12252 H 1123.84 2.8866 2.73425 0
M  V30 12253 N 1124.83 -0.648732 1.43629 0
M  V30 12254 C 1126.08 -1.40446 1.44768 0
M  V30 12255 C 1126.4 -1.95447 0.0773445 0
M  V30 12256 O 1127.6 -2.71479 -0.0337942 0
M  V30 12257 C 1126.06 -2.54194 2.54781 0
M  V30 12258 C 1125.67 -2.05781 3.97942 0
M  V30 12259 C 1127.41 -3.31529 2.65121 0
M  V30 12260 C 1125.32 -3.16767 4.99412 0
M  V30 12261 H 1124.25 -0.527717 0.538545 0
M  V30 12262 H 1126.9 -0.699756 1.69634 0
M  V30 12263 H 1125.28 -3.27156 2.23125 0
M  V30 12264 H 1126.45 -1.398 4.39081 0
M  V30 12265 H 1124.77 -1.41312 3.91688 0
M  V30 12266 H 1127.37 -4.14233 3.38105 0
M  V30 12267 H 1127.71 -3.79855 1.70341 0
M  V30 12268 H 1128.24 -2.65649 2.961 0
M  V30 12269 H 1124.98 -2.73404 5.9576 0
M  V30 12270 H 1124.5 -3.81445 4.62882 0
M  V30 12271 H 1126.18 -3.81827 5.22319 0
M  V30 12272 N 1126.31 -1.30234 -0.887518 0
M  V30 12273 C 1127.56 -1.19086 -1.64153 0
M  V30 12274 C 1127.89 0.254428 -1.92526 0
M  V30 12275 O 1127.17 1.18233 -1.54438 0
M  V30 12276 C 1127.45 -2.01723 -2.98295 0
M  V30 12277 C 1127.3 -3.54458 -2.76911 0
M  V30 12278 C 1128.62 -1.85307 -3.99186 0
M  V30 12279 H 1125.74 -0.433967 -0.595686 0
M  V30 12280 H 1128.38 -1.59839 -1.0272 0
M  V30 12281 H 1126.53 -1.67096 -3.5073 0
M  V30 12282 H 1128.2 -3.99131 -2.31284 0
M  V30 12283 H 1126.45 -3.78768 -2.11464 0
M  V30 12284 H 1127.12 -4.07565 -3.72283 0
M  V30 12285 H 1129.59 -2.15575 -3.55903 0
M  V30 12286 H 1128.47 -2.45456 -4.90961 0
M  V30 12287 H 1128.73 -0.811528 -4.34588 0
M  V30 12288 N 1127.79 1.09952 -1.12909 0
M  V30 12289 C 1128.74 2.18525 -0.796849 0
M  V30 12290 C 1129.73 1.67985 0.218483 0
M  V30 12291 O 1130.94 1.79839 0.07618 0
M  V30 12292 H 1127.31 0.712714 -0.239882 0
M  V30 12293 H 1129.28 2.43783 -1.72083 0
M  V30 12294 C 1128.03 3.46625 -0.273237 0
M  V30 12295 H 1127.36 3.85879 -1.04582 0
M  V30 12296 H 1128.8 4.23926 -0.0791355 0
M  V30 12297 C 1127.26 3.2172 0.999903 0
M  V30 12298 O 1127.79 3.43851 2.07676 0
M  V30 12299 N 1125.99 2.75356 0.928833 0
M  V30 12300 H 1125.54 2.57547 0.052379 0
M  V30 12301 H 1125.5 2.5907 1.78129 0
M  V30 12302 N 1129.27 0.921757 1.27833 0
M  V30 12303 C 1130.2 0.360683 2.25332 0
M  V30 12304 C 1131.18 -0.53961 1.53385 0
M  V30 12305 O 1132.36 -0.48146 1.82248 0
M  V30 12306 C 1129.49 -0.483626 3.35229 0
M  V30 12307 C 1128.54 0.352405 4.25042 0
M  V30 12308 S 1129.37 1.76421 5.05605 0
M  V30 12309 C 1130.53 0.92742 6.18991 0
M  V30 12310 H 1130.76 1.18703 2.72574 0
M  V30 12311 H 1128.29 0.72354 1.36397 0
M  V30 12312 H 1130.25 -0.964914 3.98998 0
M  V30 12313 H 1128.91 -1.28444 2.86637 0
M  V30 12314 H 1128.1 -0.293558 5.03144 0
M  V30 12315 H 1127.71 0.767643 3.66037 0
M  V30 12316 H 1130 0.160698 6.77309 0
M  V30 12317 H 1130.94 1.68126 6.87851 0
M  V30 12318 H 1131.35 0.472056 5.62523 0
M  V30 12319 N 1130.75 -1.41857 0.686609 0
M  V30 12320 C 1131.68 -2.33481 0.0298353 0
M  V30 12321 C 1132.66 -1.51329 -0.776756 0
M  V30 12322 O 1133.84 -1.79895 -0.731535 0
M  V30 12323 C 1130.97 -3.35065 -0.913707 0
M  V30 12324 C 1129.93 -4.2746 -0.214861 0
M  V30 12325 C 1129.25 -5.19346 -1.27215 0
M  V30 12326 C 1130.55 -5.14252 0.913367 0
M  V30 12327 H 1132.25 -2.8865 0.795067 0
M  V30 12328 H 1129.79 -1.38792 0.383785 0
M  V30 12329 H 1131.75 -3.98082 -1.38234 0
M  V30 12330 H 1130.47 -2.78226 -1.7105 0
M  V30 12331 H 1129.13 -3.65855 0.233651 0
M  V30 12332 H 1128.78 -4.58827 -2.06124 0
M  V30 12333 H 1128.48 -5.81996 -0.80961 0
M  V30 12334 H 1130 -5.85239 -1.74147 0
M  V30 12335 H 1131.41 -5.70887 0.525424 0
M  V30 12336 H 1129.81 -5.85796 1.30244 0
M  V30 12337 H 1130.88 -4.51949 1.75699 0
M  V30 12338 N 1132.22 -0.430739 -1.51599 0
M  V30 12339 C 1133.16 0.429107 -2.24129 0
M  V30 12340 C 1134.14 1.03019 -1.25801 0
M  V30 12341 O 1135.32 1.07392 -1.54917 0
M  V30 12342 C 1132.45 1.59749 -2.9866 0
M  V30 12343 C 1131.49 1.11773 -4.11593 0
M  V30 12344 S 1132.33 0.0651468 -5.3546 0
M  V30 12345 C 1133.48 1.23835 -6.13527 0
M  V30 12346 H 1133.71 -0.186683 -2.96713 0
M  V30 12347 H 1131.25 -0.215201 -1.52893 0
M  V30 12348 H 1133.21 2.26735 -3.42201 0
M  V30 12349 H 1131.87 2.18468 -2.25678 0
M  V30 12350 H 1131.06 1.99125 -4.62996 0
M  V30 12351 H 1130.66 0.526209 -3.7028 0
M  V30 12352 H 1132.95 2.15796 -6.42214 0
M  V30 12353 H 1133.9 0.76443 -7.03962 0
M  V30 12354 H 1134.3 1.47393 -5.44918 0
M  V30 12355 N 1133.7 1.56767 -0.161869 0
M  V30 12356 C 1134.65 2.1409 0.784183 0
M  V30 12357 C 1135.64 1.07262 1.19932 0
M  V30 12358 O 1136.83 1.33406 1.16326 0
M  V30 12359 C 1133.96 2.77778 2.01729 0
M  V30 12360 C 1133.04 3.91751 1.62457 0
M  V30 12361 N 1133.43 4.96972 0.940888 0
M  V30 12362 C 1131.73 4.02735 1.91626 0
M  V30 12363 C 1132.43 5.76858 0.748946 0
M  V30 12364 N 1131.41 5.28134 1.28745 0
M  V30 12365 H 1135.21 2.92811 0.252763 0
M  V30 12366 H 1132.73 1.62353 0.0391501 0
M  V30 12367 H 1134.72 3.17216 2.70517 0
M  V30 12368 H 1133.38 2.00535 2.55374 0
M  V30 12369 H 1134.39 5.14413 0.599981 0
M  V30 12370 H 1131.07 3.36585 2.47016 0
M  V30 12371 H 1132.46 6.71575 0.208991 0
M  V30 12372 N 1135.18 -0.111886 1.57202 0
M  V30 12373 C 1136.13 -1.14287 1.97288 0
M  V30 12374 C 1137.11 -1.36686 0.848868 0
M  V30 12375 O 1138.31 -1.37659 1.11261 0
M  V30 12376 C 1135.44 -2.46759 2.38673 0
M  V30 12377 C 1134.52 -2.27805 3.57723 0
M  V30 12378 N 1134.91 -1.78679 4.73189 0
M  V30 12379 C 1133.21 -2.58435 3.63494 0
M  V30 12380 C 1133.91 -1.736 5.55192 0
M  V30 12381 N 1132.89 -2.18205 4.97883 0
M  V30 12382 H 1136.69 -0.755711 2.84018 0
M  V30 12383 H 1134.2 -0.31954 1.59225 0
M  V30 12384 H 1136.2 -3.21335 2.65611 0
M  V30 12385 H 1134.86 -2.86227 1.53311 0
M  V30 12386 H 1135.87 -1.48121 4.96267 0
M  V30 12387 H 1132.55 -3.0154 2.88755 0
M  V30 12388 H 1133.94 -1.36812 6.57824 0
M  V30 12389 N 1136.66 -1.52894 -0.382264 0
M  V30 12390 C 1137.94 -1.58853 -1.14127 0
M  V30 12391 C 1138.32 -0.38582 -2.07544 0
M  V30 12392 O 1137.66 0.625323 -2.19777 0
M  V30 12393 C 1137.87 -2.93068 -1.89504 0
M  V30 12394 C 1139.22 -3.47048 -2.44629 0
M  V30 12395 O 1140.25 -2.94987 -1.99652 0
M  V30 12396 O 1139.1 -4.3802 -3.26804 0
M  V30 12397 H 1136.2 -0.640969 -0.522578 0
M  V30 12398 H 1138.74 -1.65231 -0.386873 0
M  V30 12399 H 1137.52 -3.72047 -1.2123 0
M  V30 12400 H 1137.14 -2.90106 -2.7189 0
M  V30 12401 N 1138.14 0.641106 -1.43971 0
M  V30 12402 C 1139.55 0.958161 -1.27638 0
M  V30 12403 C 1139.75 2.00456 -0.204885 0
M  V30 12404 O 1138.81 2.49106 0.412606 0
M  V30 12405 C 1140.12 1.43091 -2.64472 0
M  V30 12406 C 1141.67 1.54692 -2.72102 0
M  V30 12407 C 1142.15 2.05353 -4.09382 0
M  V30 12408 N 1143.64 2.12638 -4.11509 0
M  V30 12409 C 1144.37 2.52987 -5.14573 0
M  V30 12410 N 1143.87 2.92544 -6.28005 0
M  V30 12411 N 1145.66 2.53033 -5.01927 0
M  V30 12412 H 1137.81 -0.0510973 -2.12339 0
M  V30 12413 H 1140.07 0.039748 -0.947166 0
M  V30 12414 H 1139.78 0.736389 -3.43904 0
M  V30 12415 H 1139.65 2.40375 -2.90688 0
M  V30 12416 H 1142.04 2.23242 -1.92994 0
M  V30 12417 H 1142.12 0.558083 -2.49638 0
M  V30 12418 H 1141.77 1.37401 -4.88962 0
M  V30 12419 H 1141.7 3.0509 -4.29218 0
M  V30 12420 H 1144.19 1.84792 -3.29636 0
M  V30 12421 H 1144.5 3.22116 -7.02468 0
M  V30 12422 H 1142.85 2.90319 -6.31458 0
M  V30 12423 H 1146.04 2.21514 -4.1237 0
M  V30 12424 H 1146.21 2.84155 -5.82375 0
M  V30 12425 N 1139.62 1.30703 0.880598 0
M  V30 12426 C 1140.86 1.19778 1.63277 0
M  V30 12427 C 1141.19 -0.246521 1.92931 0
M  V30 12428 O 1140.45 -1.19226 1.55189 0
M  V30 12429 C 1140.74 1.97628 2.97789 0
M  V30 12430 C 1140.41 3.47213 2.87669 0
M  V30 12431 C 1139.07 3.88004 2.84617 0
M  V30 12432 C 1141.42 4.4245 2.75477 0
M  V30 12433 C 1138.75 5.22315 2.67216 0
M  V30 12434 C 1141.1 5.76874 2.59614 0
M  V30 12435 C 1139.77 6.16898 2.54939 0
M  V30 12436 H 1139.04 0.438298 0.597475 0
M  V30 12437 H 1141.69 1.61853 1.02352 0
M  V30 12438 H 1139.99 1.48201 3.6269 0
M  V30 12439 H 1141.69 1.86563 3.54958 0
M  V30 12440 H 1138.28 3.14802 2.90857 0
M  V30 12441 H 1142.46 4.11875 2.76899 0
M  V30 12442 H 1137.72 5.52412 2.62014 0
M  V30 12443 H 1141.89 6.50304 2.49155 0
M  V30 12444 H 1139.52 7.20916 2.41214 0
M  V30 12445 N 1141.09 -1.09351 1.1349 0
M  V30 12446 C 1142.04 -2.16008 0.812981 0
M  V30 12447 C 1143.01 -1.64566 -0.225252 0
M  V30 12448 O 1144.2 -1.90552 -0.0973261 0
M  V30 12449 C 1141.34 -3.43913 0.285996 0
M  V30 12450 C 1140.45 -4.09251 1.38338 0
M  V30 12451 C 1139.58 -5.24916 0.814652 0
M  V30 12452 C 1138.62 -5.82178 1.89038 0
M  V30 12453 N 1137.76 -6.89203 1.33955 0
M  V30 12454 H 1142.6 -2.42887 1.72655 0
M  V30 12455 H 1140.14 -1.19209 0.861833 0
M  V30 12456 H 1142.09 -4.17183 -0.0376794 0
M  V30 12457 H 1140.72 -3.17349 -0.590707 0
M  V30 12458 H 1139.78 -3.33838 1.82363 0
M  V30 12459 H 1141.09 -4.4784 2.19638 0
M  V30 12460 H 1140.24 -6.05086 0.442306 0
M  V30 12461 H 1138.98 -4.87691 -0.029416 0
M  V30 12462 H 1137.99 -5.00669 2.27179 0
M  V30 12463 H 1139.21 -6.21464 2.73787 0
M  V30 12464 H 1137.16 -6.53956 0.517494 0
M  V30 12465 H 1137.07 -7.26565 2.08902 0
M  V30 12466 H 1138.34 -7.73126 0.994793 0
M  V30 12467 N 1142.57 -0.928524 -1.27343 0
M  V30 12468 C 1143.82 -0.570235 -1.94618 0
M  V30 12469 C 1144.15 0.886381 -1.72792 0
M  V30 12470 O 1143.43 1.63242 -1.05747 0
M  V30 12471 C 1143.71 -0.897964 -3.48724 0
M  V30 12472 C 1143.56 -2.40839 -3.7989 0
M  V30 12473 C 1144.88 -0.404429 -4.38238 0
M  V30 12474 H 1142 -0.208645 -0.70685 0
M  V30 12475 H 1144.64 -1.16045 -1.50444 0
M  V30 12476 H 1142.79 -0.395679 -3.8648 0
M  V30 12477 H 1144.46 -2.98243 -3.51921 0
M  V30 12478 H 1142.71 -2.85723 -3.26412 0
M  V30 12479 H 1143.38 -2.58823 -4.8756 0
M  V30 12480 H 1145.85 -0.834918 -4.07637 0
M  V30 12481 H 1144.73 -0.662684 -5.44885 0
M  V30 12482 H 1144.99 0.695507 -4.36595 0
M  V30 12483 N 1144.05 1.41491 -0.694123 0
M  V30 12484 C 1145.3 2.01252 -0.224477 0
M  V30 12485 C 1145.62 1.54965 1.17541 0
M  V30 12486 O 1144.88 0.751041 1.80715 0
M  V30 12487 C 1145.18 3.56666 -0.228869 0
M  V30 12488 C 1144.84 4.22458 -1.57608 0
M  V30 12489 C 1143.51 4.40144 -1.94491 0
M  V30 12490 C 1145.86 4.5936 -2.46247 0
M  V30 12491 C 1143.19 4.92009 -3.196 0
M  V30 12492 C 1145.54 5.12615 -3.70687 0
M  V30 12493 C 1144.2 5.28512 -4.07715 0
M  V30 12494 H 1143.47 0.736433 -0.0821419 0
M  V30 12495 H 1146.12 1.69408 -0.892926 0
M  V30 12496 H 1144.42 3.88292 0.523128 0
M  V30 12497 H 1146.12 4.00712 0.152019 0
M  V30 12498 H 1142.71 4.09065 -1.27921 0
M  V30 12499 H 1146.9 4.45352 -2.19032 0
M  V30 12500 H 1142.15 5.02502 -3.48285 0
M  V30 12501 H 1146.33 5.4015 -4.39558 0
M  V30 12502 H 1143.95 5.68464 -5.0473 0
M  V30 12503 N 1145.53 0.438773 1.51369 0
M  V30 12504 C 1146.49 -0.36032 2.2635 0
M  V30 12505 C 1147.49 -0.948465 1.29849 0
M  V30 12506 O 1148.68 -0.822692 1.53549 0
M  V30 12507 C 1145.81 -1.50994 3.05636 0
M  V30 12508 H 1147.01 0.296826 2.98427 0
M  V30 12509 H 1144.56 0.191978 1.55117 0
M  V30 12510 H 1145.29 -2.2031 2.37979 0
M  V30 12511 H 1145.08 -1.09437 3.76518 0
M  V30 12512 H 1146.57 -2.07447 3.6243 0
M  V30 12513 N 1147.01 -1.56678 0.170181 0
M  V30 12514 C 1148.28 -1.88524 -0.521362 0
M  V30 12515 C 1148.66 -1.07989 -1.81388 0
M  V30 12516 O 1148.01 -0.17347 -2.27841 0
M  V30 12517 C 1148.22 -3.40527 -0.764367 0
M  V30 12518 C 1149.57 -4.10241 -1.09487 0
M  V30 12519 O 1150.59 -3.45837 -0.852945 0
M  V30 12520 O 1149.45 -5.24022 -1.55124 0
M  V30 12521 H 1146.55 -0.782161 -0.268614 0
M  V30 12522 H 1149.09 -1.68414 0.208531 0
M  V30 12523 H 1147.86 -3.91015 0.149416 0
M  V30 12524 H 1147.49 -3.66244 -1.54762 0
M  V30 12525 N 1148.48 0.103547 -1.57259 0
M  V30 12526 C 1149.71 0.821158 -1.8958 0
M  V30 12527 C 1150.12 1.73213 -0.761184 0
M  V30 12528 O 1149.46 1.81611 0.27625 0
M  V30 12529 C 1149.53 1.69428 -3.17072 0
M  V30 12530 C 1149.19 0.956014 -4.46889 0
M  V30 12531 C 1150.19 0.289694 -5.19092 0
M  V30 12532 C 1147.87 0.932602 -4.93566 0
M  V30 12533 C 1149.87 -0.390164 -6.36205 0
M  V30 12534 C 1147.55 0.248954 -6.10593 0
M  V30 12535 C 1148.55 -0.411259 -6.81761 0
M  V30 12536 O 1148.24 -1.08396 -7.96559 0
M  V30 12537 H 1147.97 0.240508 -0.631769 0
M  V30 12538 H 1150.53 0.0877817 -2.05212 0
M  V30 12539 H 1148.76 2.46968 -2.97563 0
M  V30 12540 H 1150.44 2.28769 -3.3529 0
M  V30 12541 H 1151.21 0.299297 -4.84076 0
M  V30 12542 H 1147.09 1.43592 -4.38067 0
M  V30 12543 H 1150.63 -0.906057 -6.91691 0
M  V30 12544 H 1146.53 0.237168 -6.45064 0
M  V30 12545 H 1147.3 -0.990002 -8.12491 0
M  V30 12546 N 1149.96 1.53094 0.37415 0
M  V30 12547 C 1150.87 1.81872 1.48188 0
M  V30 12548 C 1151.89 0.706487 1.59012 0
M  V30 12549 O 1153.06 0.995648 1.75068 0
M  V30 12550 C 1150.13 1.99494 2.83554 0
M  V30 12551 C 1149.19 3.23402 2.82329 0
M  V30 12552 C 1148.42 3.40174 4.11239 0
M  V30 12553 O 1148.65 2.61425 5.06965 0
M  V30 12554 O 1147.58 4.33493 4.17573 0
M  V30 12555 H 1151.41 2.75965 1.26795 0
M  V30 12556 H 1148.99 1.38368 0.56343 0
M  V30 12557 H 1150.87 2.12705 3.63778 0
M  V30 12558 H 1149.55 1.08591 3.04942 0
M  V30 12559 H 1148.45 3.15621 2.00834 0
M  V30 12560 H 1149.79 4.14199 2.65894 0
M  V30 12561 N 1151.44 -0.633461 1.44309 0
M  V30 12562 C 1152.4 -1.72743 1.50641 0
M  V30 12563 C 1153.4 -1.56031 0.388718 0
M  V30 12564 O 1154.59 -1.61568 0.651251 0
M  V30 12565 C 1151.72 -3.11804 1.37809 0
M  V30 12566 H 1152.92 -1.68503 2.48086 0
M  V30 12567 H 1150.47 -0.846912 1.31366 0
M  V30 12568 H 1151.21 -3.2164 0.414483 0
M  V30 12569 H 1150.99 -3.2534 2.18852 0
M  V30 12570 H 1152.48 -3.91538 1.45216 0
M  V30 12571 N 1152.92 -1.31168 -0.873655 0
M  V30 12572 C 1154.15 -1.23416 -1.65686 0
M  V30 12573 C 1154.56 0.203534 -1.88102 0
M  V30 12574 O 1153.9 1.14476 -1.4367 0
M  V30 12575 C 1153.96 -1.90418 -3.04929 0
M  V30 12576 C 1153.63 -3.39757 -3.05637 0
M  V30 12577 C 1154.62 -4.35565 -2.83865 0
M  V30 12578 C 1152.31 -3.81389 -3.26875 0
M  V30 12579 C 1154.3 -5.70979 -2.83304 0
M  V30 12580 C 1151.99 -5.16918 -3.25943 0
M  V30 12581 C 1152.99 -6.11524 -3.04184 0
M  V30 12582 O 1152.67 -7.44575 -3.0309 0
M  V30 12583 H 1152.41 -0.4278 -0.523415 0
M  V30 12584 H 1154.96 -1.73525 -1.09902 0
M  V30 12585 H 1153.19 -1.34854 -3.62424 0
M  V30 12586 H 1154.88 -1.76631 -3.65453 0
M  V30 12587 H 1155.65 -4.0473 -2.67243 0
M  V30 12588 H 1151.52 -3.08187 -3.42844 0
M  V30 12589 H 1155.07 -6.44796 -2.66239 0
M  V30 12590 H 1150.97 -5.47389 -3.42104 0
M  V30 12591 H 1151.73 -7.53703 -3.19177 0
M  V30 12592 N 1154.4 1.08748 -1.14068 0
M  V30 12593 C 1155.33 2.14886 -0.768052 0
M  V30 12594 C 1156.31 1.60682 0.248979 0
M  V30 12595 O 1157.49 1.87988 0.138852 0
M  V30 12596 C 1154.62 3.38412 -0.139747 0
M  V30 12597 C 1153.66 4.11357 -1.12639 0
M  V30 12598 S 1154.5 4.64645 -2.66206 0
M  V30 12599 C 1155.65 5.91461 -2.04755 0
M  V30 12600 H 1155.89 2.46163 -1.66706 0
M  V30 12601 H 1153.42 1.20804 -0.961549 0
M  V30 12602 H 1155.38 4.09929 0.21635 0
M  V30 12603 H 1154.04 3.0534 0.736638 0
M  V30 12604 H 1153.23 4.99987 -0.634719 0
M  V30 12605 H 1152.83 3.45735 -1.4263 0
M  V30 12606 H 1155.13 6.62859 -1.40086 0
M  V30 12607 H 1156.07 6.45319 -2.91494 0
M  V30 12608 H 1156.48 5.44308 -1.49629 0
M  V30 12609 N 1155.87 0.935264 1.26849 0
M  V30 12610 C 1156.81 0.397539 2.25726 0
M  V30 12611 C 1157.82 -0.475928 1.55688 0
M  V30 12612 O 1159.01 -0.287329 1.76172 0
M  V30 12613 C 1156.11 -0.448308 3.35922 0
M  V30 12614 C 1155.28 0.407624 4.35496 0
M  V30 12615 C 1154.34 -0.376815 5.24849 0
M  V30 12616 O 1153.37 0.218109 5.68782 0
M  V30 12617 N 1154.57 -1.67481 5.55815 0
M  V30 12618 H 1157.33 1.24753 2.72501 0
M  V30 12619 H 1154.89 0.803505 1.40554 0
M  V30 12620 H 1156.89 -0.980338 3.92647 0
M  V30 12621 H 1155.46 -1.19908 2.88688 0
M  V30 12622 H 1154.68 1.12091 3.77928 0
M  V30 12623 H 1155.96 0.992512 4.99026 0
M  V30 12624 H 1155.36 -2.18037 5.21993 0
M  V30 12625 H 1153.92 -2.15321 6.15207 0
M  V30 12626 N 1157.35 -1.41121 0.701616 0
M  V30 12627 C 1158.59 -2.02993 0.239383 0
M  V30 12628 C 1158.96 -1.5439 -1.1414 0
M  V30 12629 O 1160.16 -2.08229 -1.69982 0
M  V30 12630 C 1158.43 -3.56128 0.301232 0
M  V30 12631 S 1159.99 -4.38716 -0.0860681 0
M  V30 12632 H 1156.81 -0.704494 0.0959645 0
M  V30 12633 H 1159.41 -1.72461 0.920736 0
M  V30 12634 H 1158.11 -3.88996 1.30805 0
M  V30 12635 H 1157.64 -3.91371 -0.399069 0
M  V30 12636 H 1159.66 -4.78537 -1.31212 0
M  V30 12637 N 1158.83 -0.446794 -1.51134 0
M  V30 12638 C 1159.76 0.395804 -2.25757 0
M  V30 12639 C 1160.78 0.978178 -1.30137 0
M  V30 12640 O 1161.96 0.87071 -1.55823 0
M  V30 12641 C 1159.06 1.56665 -3.00515 0
M  V30 12642 C 1158.24 1.10146 -4.23305 0
M  V30 12643 C 1157.3 2.14352 -4.80562 0
M  V30 12644 O 1156.32 1.73401 -5.42145 0
M  V30 12645 N 1157.52 3.46932 -4.65423 0
M  V30 12646 H 1160.29 -0.243808 -2.98707 0
M  V30 12647 H 1157.85 -0.276205 -1.59527 0
M  V30 12648 H 1159.84 2.26019 -3.35704 0
M  V30 12649 H 1158.41 2.11142 -2.30516 0
M  V30 12650 H 1157.63 0.234644 -3.93501 0
M  V30 12651 H 1158.92 0.768185 -5.02968 0
M  V30 12652 H 1158.32 3.82929 -4.16391 0
M  V30 12653 H 1156.88 4.12154 -5.04948 0
M  V30 12654 N 1160.31 1.56586 -0.178487 0
M  V30 12655 C 1161.27 2.17091 0.73512 0
M  V30 12656 C 1162.27 1.12088 1.15295 0
M  V30 12657 O 1163.46 1.37563 1.06874 0
M  V30 12658 C 1160.59 2.75957 2.00151 0
M  V30 12659 H 1161.79 2.99176 0.208272 0
M  V30 12660 H 1159.34 1.56138 0.0710967 0
M  V30 12661 H 1160.07 1.97626 2.57127 0
M  V30 12662 H 1159.86 3.52809 1.7108 0
M  V30 12663 H 1161.35 3.2247 2.65335 0
M  V30 12664 N 1161.79 -0.095206 1.57312 0
M  V30 12665 C 1162.72 -1.14173 1.98739 0
M  V30 12666 C 1163.73 -1.36323 0.889934 0
M  V30 12667 O 1164.92 -1.34977 1.16805 0
M  V30 12668 C 1162.02 -2.49729 2.29104 0
M  V30 12669 C 1161.19 -2.47857 3.60396 0
M  V30 12670 C 1160.25 -3.65341 3.78699 0
M  V30 12671 O 1159.28 -3.47837 4.50553 0
M  V30 12672 N 1160.48 -4.84818 3.19268 0
M  V30 12673 H 1163.25 -0.789126 2.89124 0
M  V30 12674 H 1160.81 -0.284187 1.59386 0
M  V30 12675 H 1162.8 -3.26925 2.38541 0
M  V30 12676 H 1161.37 -2.7708 1.44726 0
M  V30 12677 H 1160.59 -1.56208 3.61929 0
M  V30 12678 H 1161.88 -2.43685 4.46649 0
M  V30 12679 H 1161.27 -5.01943 2.60902 0
M  V30 12680 H 1159.83 -5.59607 3.34191 0
M  V30 12681 N 1163.26 -1.53291 -0.366026 0
M  V30 12682 C 1164.51 -1.69702 -1.11036 0
M  V30 12683 C 1164.84 -0.44728 -1.88979 0
M  V30 12684 O 1164.12 0.55542 -1.86401 0
M  V30 12685 C 1164.4 -2.94661 -2.06995 0
M  V30 12686 C 1164.25 -4.29791 -1.32663 0
M  V30 12687 C 1165.57 -3.15219 -3.07123 0
M  V30 12688 H 1162.69 -0.617525 -0.402284 0
M  V30 12689 H 1165.33 -1.85929 -0.391223 0
M  V30 12690 H 1163.48 -2.80958 -2.68318 0
M  V30 12691 H 1165.16 -4.55305 -0.741266 0
M  V30 12692 H 1163.4 -4.29223 -0.628484 0
M  V30 12693 H 1164.07 -5.13359 -2.02896 0
M  V30 12694 H 1166.55 -3.28105 -2.55903 0
M  V30 12695 H 1165.42 -4.04088 -3.71489 0
M  V30 12696 H 1165.68 -2.30479 -3.77269 0
M  V30 12697 N 1164.74 0.6258 -1.44643 0
M  V30 12698 C 1166.02 1.38439 -1.38181 0
M  V30 12699 C 1166.4 2.11056 -0.0431928 0
M  V30 12700 O 1165.75 2.06683 0.974383 0
M  V30 12701 C 1165.96 2.34639 -2.58352 0
M  V30 12702 C 1167.31 2.97807 -3.02649 0
M  V30 12703 O 1168.33 2.44963 -2.58595 0
M  V30 12704 O 1167.19 3.93682 -3.79048 0
M  V30 12705 H 1164.28 0.619852 -0.54746 0
M  V30 12706 H 1166.83 0.650409 -1.56741 0
M  V30 12707 H 1165.6 1.80116 -3.47382 0
M  V30 12708 H 1165.22 3.15446 -2.42032 0
M  V30 12709 N 1166.22 1.31629 0.866686 0
M  V30 12710 C 1167.15 1.15377 1.98042 0
M  V30 12711 C 1168.17 0.0919633 1.6254 0
M  V30 12712 O 1169.35 0.339775 1.75236 0
M  V30 12713 C 1166.45 0.741295 3.30693 0
M  V30 12714 C 1165.63 1.88882 3.94516 0
M  V30 12715 C 1164.69 1.46186 5.05486 0
M  V30 12716 O 1163.71 2.17202 5.26129 0
M  V30 12717 N 1164.91 0.351096 5.79437 0
M  V30 12718 H 1167.68 2.11309 2.12529 0
M  V30 12719 H 1165.24 1.24007 1.04085 0
M  V30 12720 H 1167.23 0.438313 4.02319 0
M  V30 12721 H 1165.8 -0.12651 3.12344 0
M  V30 12722 H 1165.02 2.35894 3.15828 0
M  V30 12723 H 1166.31 2.65734 4.33892 0
M  V30 12724 H 1165.71 -0.240245 5.6519 0
M  V30 12725 H 1164.27 0.107663 6.51711 0
M  V30 12726 N 1167.7 -1.08142 1.14644 0
M  V30 12727 C 1168.63 -2.17139 0.858667 0
M  V30 12728 C 1169.61 -1.69064 -0.187452 0
M  V30 12729 O 1170.8 -1.94151 -0.0435458 0
M  V30 12730 C 1167.93 -3.45648 0.33834 0
M  V30 12731 C 1166.88 -4.07129 1.32021 0
M  V30 12732 C 1166.21 -5.30623 0.659075 0
M  V30 12733 C 1167.51 -4.48095 2.68343 0
M  V30 12734 H 1169.2 -2.41468 1.77012 0
M  V30 12735 H 1166.75 -1.16052 0.852523 0
M  V30 12736 H 1168.7 -4.21216 0.124611 0
M  V30 12737 H 1167.42 -3.2088 -0.608553 0
M  V30 12738 H 1166.08 -3.33596 1.52016 0
M  V30 12739 H 1165.73 -5.02142 -0.293711 0
M  V30 12740 H 1165.43 -5.72714 1.31427 0
M  V30 12741 H 1166.95 -6.08903 0.454933 0
M  V30 12742 H 1168.37 -5.14828 2.5224 0
M  V30 12743 H 1166.76 -5.01113 3.30161 0
M  V30 12744 H 1167.83 -3.59852 3.25015 0
M  V30 12745 N 1169.18 -0.941978 -1.26351 0
M  V30 12746 C 1170.41 -0.605868 -1.97517 0
M  V30 12747 C 1170.82 0.823583 -1.70334 0
M  V30 12748 O 1170.16 1.56085 -0.968662 0
M  V30 12749 C 1170.22 -0.769201 -3.51175 0
M  V30 12750 C 1169.88 -2.17343 -4.02009 0
M  V30 12751 C 1170.88 -3.14898 -4.13685 0
M  V30 12752 C 1168.57 -2.49422 -4.35998 0
M  V30 12753 C 1170.56 -4.42631 -4.58646 0
M  V30 12754 C 1168.25 -3.77388 -4.80647 0
M  V30 12755 C 1169.25 -4.73806 -4.91932 0
M  V30 12756 O 1168.93 -5.99493 -5.35596 0
M  V30 12757 H 1168.67 -0.227113 -0.636707 0
M  V30 12758 H 1171.22 -1.26523 -1.61806 0
M  V30 12759 H 1169.45 -0.0527104 -3.86664 0
M  V30 12760 H 1171.14 -0.436032 -4.03551 0
M  V30 12761 H 1171.9 -2.91438 -3.87671 0
M  V30 12762 H 1167.78 -1.7511 -4.26448 0
M  V30 12763 H 1171.33 -5.17892 -4.67369 0
M  V30 12764 H 1167.22 -4.0066 -5.06105 0
M  V30 12765 H 1167.99 -6.02687 -5.53815 0
M  V30 12766 N 1170.66 1.40747 -0.709091 0
M  V30 12767 C 1172.07 1.54961 -0.381989 0
M  V30 12768 C 1172.27 1.68181 1.10985 0
M  V30 12769 O 1171.33 1.66776 1.89584 0
M  V30 12770 C 1172.64 2.78156 -1.14236 0
M  V30 12771 C 1174.19 2.91967 -1.12803 0
M  V30 12772 C 1174.66 4.18066 -1.87042 0
M  V30 12773 N 1176.15 4.25052 -1.84078 0
M  V30 12774 C 1176.89 5.21514 -2.38349 0
M  V30 12775 N 1176.39 6.23924 -3.01149 0
M  V30 12776 N 1178.18 5.13548 -2.28528 0
M  V30 12777 H 1170.33 1.30412 -1.6765 0
M  V30 12778 H 1172.59 0.630147 -0.70825 0
M  V30 12779 H 1172.3 2.74643 -2.19691 0
M  V30 12780 H 1172.17 3.70074 -0.729731 0
M  V30 12781 H 1174.56 2.94987 -0.0816956 0
M  V30 12782 H 1174.64 2.01185 -1.57982 0
M  V30 12783 H 1174.28 4.15808 -2.91662 0
M  V30 12784 H 1174.21 5.07845 -1.39287 0
M  V30 12785 H 1176.71 3.51682 -1.38305 0
M  V30 12786 H 1177.02 6.93942 -3.40094 0
M  V30 12787 H 1175.36 6.24387 -3.05231 0
M  V30 12788 H 1178.55 4.3247 -1.79129 0
M  V30 12789 H 1178.73 5.88553 -2.71126 0
M  V30 12790 N 1172.13 0.454803 1.50895 0
M  V30 12791 C 1173.08 -0.361974 2.29766 0
M  V30 12792 C 1174.08 -1.00519 1.36353 0
M  V30 12793 O 1175.28 -0.938159 1.53618 0
M  V30 12794 H 1171.66 -0.135559 0.739681 0
M  V30 12795 H 1173.63 0.323853 2.96637 0
M  V30 12796 C 1172.38 -1.44078 3.16444 0
M  V30 12797 H 1171.7 -0.955212 3.88221 0
M  V30 12798 H 1173.14 -1.98518 3.74655 0
M  V30 12799 C 1171.6 -2.43374 2.32961 0
M  V30 12800 O 1172.13 -3.48295 2.00133 0
M  V30 12801 N 1170.33 -2.14689 1.95849 0
M  V30 12802 H 1169.88 -1.29392 2.22745 0
M  V30 12803 H 1169.84 -2.81363 1.40292 0
M  V30 12804 N 1173.61 -1.56489 0.186789 0
M  V30 12805 C 1175.02 -1.83809 -0.327265 0
M  V30 12806 C 1175.37 -1.10718 -1.61976 0
M  V30 12807 O 1174.5 -0.36525 -2.13295 0
M  V30 12808 C 1175.09 -3.33435 -0.600551 0
M  V30 12809 C 1173.65 -3.61195 -1.059 0
M  V30 12810 C 1172.8 -2.77108 -0.103131 0
M  V30 12811 H 1175.75 -1.53292 0.410747 0
M  V30 12812 H 1175.77 -3.51754 -1.45084 0
M  V30 12813 H 1175.28 -3.86605 0.340315 0
M  V30 12814 H 1173.38 -3.13451 -2.01443 0
M  V30 12815 H 1173.5 -4.69435 -0.957458 0
M  V30 12816 H 1171.86 -2.47448 -0.603449 0
M  V30 12817 H 1172.64 -3.33065 0.832031 0
M  V30 12818 N 1175.09 0.086862 -1.5736 0
M  V30 12819 C 1176.04 1.10478 -2.02641 0
M  V30 12820 C 1177.01 1.39331 -0.904219 0
M  V30 12821 O 1178.19 1.50654 -1.17081 0
M  V30 12822 C 1175.33 2.41754 -2.4627 0
M  V30 12823 C 1174.44 2.19561 -3.72044 0
M  V30 12824 C 1173.58 3.44294 -4.04519 0
M  V30 12825 C 1172.62 3.17399 -5.23378 0
M  V30 12826 N 1171.76 4.3442 -5.51564 0
M  V30 12827 H 1176.6 0.711663 -2.89378 0
M  V30 12828 H 1174.13 0.339856 -1.4312 0
M  V30 12829 H 1176.09 3.18378 -2.69613 0
M  V30 12830 H 1174.72 2.78896 -1.62532 0
M  V30 12831 H 1173.77 1.337 -3.5613 0
M  V30 12832 H 1175.08 1.95685 -4.58812 0
M  V30 12833 H 1174.24 4.29321 -4.28682 0
M  V30 12834 H 1172.98 3.71232 -3.16289 0
M  V30 12835 H 1171.98 2.30765 -4.99026 0
M  V30 12836 H 1173.21 2.91799 -6.13213 0
M  V30 12837 H 1171.15 4.61418 -4.66293 0
M  V30 12838 H 1171.07 4.13764 -6.3272 0
M  V30 12839 H 1172.34 5.20489 -5.80269 0
M  V30 12840 N 1176.57 1.53483 0.357892 0
M  V30 12841 C 1177.48 1.83434 1.4625 0
M  V30 12842 C 1178.49 0.723313 1.58254 0
M  V30 12843 O 1179.67 1.01416 1.74002 0
M  V30 12844 C 1176.73 2.0249 2.81423 0
M  V30 12845 C 1175.8 3.26378 2.78883 0
M  V30 12846 C 1175.03 3.44516 4.07608 0
M  V30 12847 O 1175.25 2.66787 5.04163 0
M  V30 12848 O 1174.19 4.37898 4.12952 0
M  V30 12849 H 1178.01 2.77294 1.23861 0
M  V30 12850 H 1175.6 1.38958 0.548722 0
M  V30 12851 H 1177.48 2.16552 3.61501 0
M  V30 12852 H 1176.15 1.11819 3.03773 0
M  V30 12853 H 1175.06 3.17733 1.97475 0
M  V30 12854 H 1176.39 4.16996 2.61486 0
M  V30 12855 N 1178.05 -0.61812 1.44973 0
M  V30 12856 C 1179.29 -1.37754 1.4965 0
M  V30 12857 C 1179.65 -1.91945 0.132201 0
M  V30 12858 O 1178.94 -1.71493 -0.854439 0
M  V30 12859 C 1179.13 -2.55143 2.50274 0
M  V30 12860 C 1178.96 -2.12446 3.96354 0
M  V30 12861 C 1177.73 -1.99112 4.64416 0
M  V30 12862 C 1179.93 -1.70557 4.85196 0
M  V30 12863 N 1177.91 -1.50114 5.95264 0
M  V30 12864 C 1179.28 -1.329 6.05589 0
M  V30 12865 C 1181.34 -1.58054 4.72147 0
M  V30 12866 C 1180.04 -0.839882 7.1438 0
M  V30 12867 C 1182.07 -1.10547 5.80976 0
M  V30 12868 C 1181.43 -0.738477 7.00518 0
M  V30 12869 H 1177.53 -0.498393 0.602601 0
M  V30 12870 H 1180.11 -0.70775 1.81381 0
M  V30 12871 H 1178.28 -3.19732 2.20513 0
M  V30 12872 H 1180.02 -3.21988 2.45166 0
M  V30 12873 H 1176.77 -2.19971 4.19416 0
M  V30 12874 H 1177.19 -1.27878 6.64813 0
M  V30 12875 H 1181.84 -1.85056 3.8015 0
M  V30 12876 H 1179.55 -0.557395 8.06175 0
M  V30 12877 H 1183.14 -1.01314 5.72911 0
M  V30 12878 H 1182.02 -0.376513 7.83296 0
M  V30 12879 N 1179.52 -1.32087 -0.859693 0
M  V30 12880 C 1180.75 -1.25348 -1.64607 0
M  V30 12881 C 1181.17 0.179425 -1.87945 0
M  V30 12882 O 1180.52 1.11487 -1.44489 0
M  V30 12883 C 1180.57 -2.0047 -3.00822 0
M  V30 12884 O 1180.3 -3.38169 -2.7852 0
M  V30 12885 C 1181.8 -2.00694 -3.95268 0
M  V30 12886 H 1179.02 -0.432692 -0.512854 0
M  V30 12887 H 1181.56 -1.7413 -1.07234 0
M  V30 12888 H 1179.72 -1.55423 -3.54855 0
M  V30 12889 H 1180.13 -3.76553 -3.65113 0
M  V30 12890 H 1181.6 -2.57748 -4.88129 0
M  V30 12891 H 1182.08 -0.99196 -4.27851 0
M  V30 12892 H 1182.69 -2.45666 -3.47172 0
M  V30 12893 N 1181 1.07532 -1.15215 0
M  V30 12894 C 1181.95 2.14687 -0.847243 0
M  V30 12895 C 1182.92 1.64903 0.199043 0
M  V30 12896 O 1184.1 1.90682 0.0669986 0
M  V30 12897 C 1181.24 3.43414 -0.340673 0
M  V30 12898 C 1180.36 4.06999 -1.44831 0
M  V30 12899 C 1179.49 5.23554 -0.898059 0
M  V30 12900 C 1178.53 5.79097 -1.98276 0
M  V30 12901 N 1177.67 6.86985 -1.44902 0
M  V30 12902 H 1182.51 2.4011 -1.76498 0
M  V30 12903 H 1180.04 1.17823 -0.880689 0
M  V30 12904 H 1182 4.1719 -0.0286956 0
M  V30 12905 H 1180.63 3.18249 0.540144 0
M  V30 12906 H 1179.68 3.30895 -1.87651 0
M  V30 12907 H 1181 4.44289 -2.26735 0
M  V30 12908 H 1180.15 6.04305 -0.538514 0
M  V30 12909 H 1178.89 4.87676 -0.0481752 0
M  V30 12910 H 1177.89 4.96992 -2.35115 0
M  V30 12911 H 1179.12 6.1703 -2.83639 0
M  V30 12912 H 1177.07 6.5305 -0.621468 0
M  V30 12913 H 1176.98 7.23149 -2.20434 0
M  V30 12914 H 1178.25 7.71446 -1.11767 0
M  V30 12915 N 1182.48 0.948665 1.2585 0
M  V30 12916 C 1183.43 0.462904 2.2611 0
M  V30 12917 C 1184.4 -0.481433 1.5897 0
M  V30 12918 O 1185.58 -0.395997 1.86645 0
M  V30 12919 C 1182.72 -0.258808 3.44128 0
M  V30 12920 C 1181.84 0.722072 4.25923 0
M  V30 12921 C 1180.97 -0.0215958 5.31196 0
M  V30 12922 C 1180.01 0.950612 6.04673 0
M  V30 12923 N 1179.15 0.238209 7.01696 0
M  V30 12924 H 1183.99 1.32279 2.67032 0
M  V30 12925 H 1181.52 0.663485 1.31287 0
M  V30 12926 H 1183.48 -0.693759 4.11391 0
M  V30 12927 H 1182.11 -1.08278 3.04098 0
M  V30 12928 H 1181.16 1.27552 3.58378 0
M  V30 12929 H 1182.48 1.46421 4.76825 0
M  V30 12930 H 1181.63 -0.51547 6.04506 0
M  V30 12931 H 1180.37 -0.796563 4.81151 0
M  V30 12932 H 1179.37 1.45554 5.30183 0
M  V30 12933 H 1180.6 1.72571 6.56808 0
M  V30 12934 H 1178.54 -0.518129 6.53951 0
M  V30 12935 H 1178.46 0.919542 7.50387 0
M  V30 12936 H 1179.73 -0.234325 7.79148 0
M  V30 12937 N 1183.96 -1.40369 0.716545 0
M  V30 12938 C 1185.2 -2.01167 0.256846 0
M  V30 12939 C 1185.54 -1.56689 -1.14727 0
M  V30 12940 O 1184.81 -0.787384 -1.7785 0
M  V30 12941 C 1185.1 -3.58511 0.337963 0
M  V30 12942 C 1184.95 -4.13059 1.78052 0
M  V30 12943 C 1186.27 -4.39142 -0.290295 0
M  V30 12944 H 1183.39 -0.730877 0.0948028 0
M  V30 12945 H 1186.03 -1.66833 0.909225 0
M  V30 12946 H 1184.18 -3.87891 -0.217482 0
M  V30 12947 H 1185.85 -3.94472 2.39143 0
M  V30 12948 H 1184.09 -3.67311 2.30793 0
M  V30 12949 H 1184.76 -5.22217 1.78867 0
M  V30 12950 H 1187.24 -4.15697 0.182987 0
M  V30 12951 H 1186.12 -5.48524 -0.203097 0
M  V30 12952 H 1186.38 -4.20209 -1.37394 0
M  V30 12953 N 1185.44 -0.462799 -1.50652 0
M  V30 12954 C 1186.69 0.0966838 -2.01468 0
M  V30 12955 C 1187 1.41529 -1.35014 0
M  V30 12956 O 1188.2 2.05923 -1.76941 0
M  V30 12957 C 1186.66 0.222826 -3.5921 0
M  V30 12958 C 1186.27 -1.08686 -4.34616 0
M  V30 12959 C 1188.01 0.734711 -4.18094 0
M  V30 12960 C 1185.92 -0.924964 -5.84122 0
M  V30 12961 H 1184.85 0.0399078 -0.752943 0
M  V30 12962 H 1187.5 -0.596437 -1.73536 0
M  V30 12963 H 1185.88 0.979539 -3.83694 0
M  V30 12964 H 1187.06 -1.85388 -4.21862 0
M  V30 12965 H 1185.37 -1.52922 -3.87303 0
M  V30 12966 H 1187.97 0.872734 -5.2753 0
M  V30 12967 H 1188.31 1.72389 -3.7893 0
M  V30 12968 H 1188.84 0.0356139 -3.97784 0
M  V30 12969 H 1185.58 -1.88727 -6.27744 0
M  V30 12970 H 1185.1 -0.198181 -5.99473 0
M  V30 12971 H 1186.78 -0.588262 -6.4432 0
M  V30 12972 N 1186.91 1.56388 -0.195085 0
M  V30 12973 C 1188.33 1.58788 0.160758 0
M  V30 12974 C 1188.53 1.21125 1.61031 0
M  V30 12975 O 1187.59 0.933994 2.34591 0
M  V30 12976 C 1188.9 3.00366 -0.141588 0
M  V30 12977 C 1190.45 3.12893 -0.0816947 0
M  V30 12978 C 1190.92 4.56604 -0.35735 0
M  V30 12979 N 1192.41 4.62188 -0.305968 0
M  V30 12980 C 1193.15 5.71276 -0.493108 0
M  V30 12981 N 1192.64 6.8883 -0.740595 0
M  V30 12982 N 1194.44 5.60473 -0.427365 0
M  V30 12983 H 1186.59 1.79151 -1.14099 0
M  V30 12984 H 1188.85 0.831446 -0.455413 0
M  V30 12985 H 1188.56 3.32483 -1.14666 0
M  V30 12986 H 1188.43 3.73082 0.555834 0
M  V30 12987 H 1190.82 2.80589 0.913978 0
M  V30 12988 H 1190.9 2.42564 -0.812193 0
M  V30 12989 H 1190.54 4.8962 -1.35034 0
M  V30 12990 H 1190.47 5.25124 0.394036 0
M  V30 12991 H 1192.96 3.77705 -0.121298 0
M  V30 12992 H 1193.28 7.67862 -0.872201 0
M  V30 12993 H 1191.62 6.90637 -0.777488 0
M  V30 12994 H 1194.81 4.67513 -0.234436 0
M  V30 12995 H 1194.99 6.45429 -0.576627 0
M  V30 12996 N 1188.39 -0.0785156 1.57404 0
M  V30 12997 C 1189.34 -1.11278 2.04255 0
M  V30 12998 C 1190.33 -1.40482 0.946633 0
M  V30 12999 O 1191.54 -1.39968 1.13177 0
M  V30 13000 H 1187.92 -0.376157 0.65116 0
M  V30 13001 H 1189.89 -0.691437 2.90279 0
M  V30 13002 C 1188.64 -2.42006 2.49656 0
M  V30 13003 H 1187.96 -2.20383 3.33574 0
M  V30 13004 H 1189.4 -3.12837 2.86197 0
M  V30 13005 C 1187.86 -3.07488 1.37669 0
M  V30 13006 O 1188.39 -3.95285 0.715036 0
M  V30 13007 N 1186.59 -2.68004 1.1235 0
M  V30 13008 H 1186.14 -1.96698 1.66336 0
M  V30 13009 H 1186.1 -3.12141 0.376238 0
M  V30 13010 N 1189.87 -1.5367 -0.349747 0
M  V30 13011 C 1191.12 -1.69835 -1.08807 0
M  V30 13012 C 1191.43 -0.46497 -1.89993 0
M  V30 13013 O 1192.64 -0.507452 -2.66716 0
M  V30 13014 C 1191.09 -3.00294 -1.98372 0
M  V30 13015 C 1190.7 -4.30949 -1.22422 0
M  V30 13016 C 1192.45 -3.25826 -2.72099 0
M  V30 13017 C 1190.35 -5.52486 -2.1098 0
M  V30 13018 H 1189.28 -0.63284 -0.409915 0
M  V30 13019 H 1191.93 -1.80171 -0.347968 0
M  V30 13020 H 1190.32 -2.838 -2.76176 0
M  V30 13021 H 1191.49 -4.58126 -0.495707 0
M  V30 13022 H 1189.81 -4.11983 -0.604896 0
M  V30 13023 H 1192.4 -4.13817 -3.38615 0
M  V30 13024 H 1192.75 -2.42566 -3.3833 0
M  V30 13025 H 1193.28 -3.43067 -2.0137 0
M  V30 13026 H 1190.02 -6.38271 -1.49301 0
M  V30 13027 H 1189.54 -5.29566 -2.81638 0
M  V30 13028 H 1191.22 -5.87889 -2.70176 0
M  V30 13029 N 1191.35 0.610423 -1.45298 0
M  V30 13030 C 1192.31 1.70324 -1.5337 0
M  V30 13031 C 1193.31 1.55393 -0.413492 0
M  V30 13032 O 1194.5 1.60512 -0.676872 0
M  V30 13033 C 1191.63 3.09572 -1.42752 0
M  V30 13034 H 1192.83 1.64535 -2.50736 0
M  V30 13035 H 1190.38 0.825906 -1.32697 0
M  V30 13036 H 1191.11 3.2094 -0.465601 0
M  V30 13037 H 1190.9 3.21817 -2.24 0
M  V30 13038 H 1192.39 3.89178 -1.51427 0
M  V30 13039 N 1192.83 1.32541 0.852676 0
M  V30 13040 C 1194.07 1.24532 1.62083 0
M  V30 13041 C 1194.43 -0.189531 1.91062 0
M  V30 13042 O 1195.63 -0.393382 2.65906 0
M  V30 13043 C 1193.9 2.0828 2.90438 0
M  V30 13044 S 1195.46 2.17317 3.81207 0
M  V30 13045 H 1192.28 0.443261 0.555915 0
M  V30 13046 H 1194.88 1.67413 1.00961 0
M  V30 13047 H 1193.59 3.11587 2.67099 0
M  V30 13048 H 1193.12 1.66184 3.56576 0
M  V30 13049 H 1195.13 1.32412 4.78207 0
M  V30 13050 N 1194.3 -1.0692 1.15784 0
M  V30 13051 C 1195.53 -1.83849 0.959903 0
M  V30 13052 C 1195.95 -1.8169 -0.486873 0
M  V30 13053 O 1195.31 -1.21305 -1.34739 0
M  V30 13054 C 1195.36 -3.28642 1.48414 0
M  V30 13055 O 1194.46 -4.0665 0.686249 0
M  V30 13056 H 1193.81 -0.569115 0.342059 0
M  V30 13057 H 1196.34 -1.34851 1.53871 0
M  V30 13058 H 1196.35 -3.7947 1.49888 0
M  V30 13059 H 1195.02 -3.29529 2.53739 0
M  V30 13060 H 1193.6 -3.65453 0.741501 0
M  V30 13061 N 1195.78 -0.955326 -1.25345 0
M  V30 13062 C 1197.03 -0.609278 -1.92697 0
M  V30 13063 C 1197.35 0.856535 -1.75181 0
M  V30 13064 O 1196.62 1.61013 -1.11587 0
M  V30 13065 H 1195.2 -0.22235 -0.713141 0
M  V30 13066 H 1197.86 -1.21372 -1.52496 0
M  V30 13067 H 1196.96 -0.839198 -3.00606 0
M  V30 13068 N 1197.26 1.39987 -0.723979 0
M  V30 13069 C 1198.21 2.30672 -0.0768286 0
M  V30 13070 C 1199.18 1.48634 0.741422 0
M  V30 13071 O 1200.36 1.77351 0.703649 0
M  V30 13072 C 1197.5 3.34902 0.832729 0
M  V30 13073 C 1196.62 4.32 0.00304942 0
M  V30 13074 C 1195.75 5.23298 0.91286 0
M  V30 13075 C 1194.79 6.12051 0.0777706 0
M  V30 13076 N 1193.93 6.9574 0.942912 0
M  V30 13077 H 1198.77 2.85446 -0.855832 0
M  V30 13078 H 1196.3 1.40561 -0.433718 0
M  V30 13079 H 1198.26 3.93911 1.37441 0
M  V30 13080 H 1196.89 2.81611 1.57782 0
M  V30 13081 H 1195.94 3.74702 -0.655916 0
M  V30 13082 H 1197.26 4.94637 -0.643124 0
M  V30 13083 H 1196.41 5.87279 1.52277 0
M  V30 13084 H 1195.15 4.60956 1.59284 0
M  V30 13085 H 1194.15 5.47092 -0.545022 0
M  V30 13086 H 1195.38 6.76455 -0.598827 0
M  V30 13087 H 1193.33 6.35977 1.60838 0
M  V30 13088 H 1193.24 7.55176 0.352968 0
M  V30 13089 H 1194.51 7.64162 1.53874 0
M  V30 13090 N 1198.74 0.470782 1.50404 0
M  V30 13091 C 1199.99 -0.084316 2.02324 0
M  V30 13092 C 1200.31 -1.39749 1.35279 0
M  V30 13093 O 1199.57 -1.90037 0.467364 0
M  V30 13094 C 1199.87 -0.316419 3.55997 0
M  V30 13095 C 1199.53 0.915017 4.41518 0
M  V30 13096 C 1198.2 1.25265 4.6461 0
M  V30 13097 C 1200.55 1.73494 4.91477 0
M  V30 13098 C 1197.88 2.41027 5.34905 0
M  V30 13099 C 1200.23 2.88384 5.63043 0
M  V30 13100 C 1198.89 3.22562 5.84389 0
M  V30 13101 H 1198.16 -0.0308534 0.740357 0
M  V30 13102 H 1200.81 0.624799 1.81021 0
M  V30 13103 H 1199.11 -1.10778 3.75813 0
M  V30 13104 H 1200.81 -0.759882 3.93734 0
M  V30 13105 H 1197.4 0.641977 4.23765 0
M  V30 13106 H 1201.59 1.48728 4.73491 0
M  V30 13107 H 1196.84 2.67781 5.49639 0
M  V30 13108 H 1201.02 3.52264 6.00735 0
M  V30 13109 H 1198.64 4.1237 6.38635 0
M  V30 13110 N 1200.22 -1.56282 0.203376 0
M  V30 13111 C 1201.44 -2.02643 -0.441658 0
M  V30 13112 C 1201.87 -1.0825 -1.5383 0
M  V30 13113 O 1201.23 -0.0674337 -1.81175 0
M  V30 13114 C 1201.27 -3.47382 -0.967369 0
M  V30 13115 O 1200.38 -3.56115 -2.07981 0
M  V30 13116 H 1199.72 -0.656081 -0.102242 0
M  V30 13117 H 1202.25 -2.02134 0.316684 0
M  V30 13118 H 1202.26 -3.8734 -1.28186 0
M  V30 13119 H 1200.93 -4.15574 -0.164625 0
M  V30 13120 H 1199.51 -3.28035 -1.77334 0
M  V30 13121 N 1201.7 0.070167 -1.57444 0
M  V30 13122 C 1202.92 0.785703 -1.91941 0
M  V30 13123 C 1203.35 1.70243 -0.799932 0
M  V30 13124 O 1202.7 1.79608 0.247139 0
M  V30 13125 C 1202.75 1.55398 -3.25398 0
M  V30 13126 O 1201.86 2.66475 -3.14746 0
M  V30 13127 H 1201.2 0.214245 -0.628486 0
M  V30 13128 H 1203.73 0.0379243 -2.04565 0
M  V30 13129 H 1203.74 1.93287 -3.5931 0
M  V30 13130 H 1202.41 0.881366 -4.06454 0
M  V30 13131 H 1200.99 2.3143 -2.92394 0
M  V30 13132 N 1203.17 1.53854 0.341593 0
M  V30 13133 C 1204.45 1.61823 1.09875 0
M  V30 13134 C 1204.83 0.440711 2.06448 0
M  V30 13135 O 1204.18 -0.566833 2.21358 0
M  V30 13136 C 1204.39 2.9799 1.81668 0
M  V30 13137 C 1205.74 3.53411 2.35341 0
M  V30 13138 O 1206.76 3.00177 1.91761 0
M  V30 13139 O 1205.62 4.4653 3.15076 0
M  V30 13140 H 1202.71 0.654599 0.5054 0
M  V30 13141 H 1205.26 1.66199 0.342929 0
M  V30 13142 H 1204.03 3.7513 1.11323 0
M  V30 13143 H 1203.65 2.97213 2.64103 0
M  V30 13144 N 1204.65 -0.602709 1.4562 0
M  V30 13145 C 1206.07 -0.923983 1.30133 0
M  V30 13146 C 1206.27 -1.99842 0.25796 0
M  V30 13147 O 1205.32 -2.50112 -0.346414 0
M  V30 13148 C 1206.64 -1.36029 2.68173 0
M  V30 13149 C 1208.18 -1.47423 2.76108 0
M  V30 13150 C 1208.66 -1.94427 4.14683 0
M  V30 13151 N 1210.15 -2.01653 4.17002 0
M  V30 13152 C 1210.89 -2.39255 5.211 0
M  V30 13153 N 1210.38 -2.75791 6.3554 0
M  V30 13154 N 1212.17 -2.39636 5.08459 0
M  V30 13155 H 1204.33 0.107377 2.12128 0
M  V30 13156 H 1206.59 -0.0146216 0.947887 0
M  V30 13157 H 1206.29 -0.644949 3.45736 0
M  V30 13158 H 1206.17 -2.32584 2.96959 0
M  V30 13159 H 1208.56 -2.18047 1.98845 0
M  V30 13160 H 1208.64 -0.4917 2.5103 0
M  V30 13161 H 1208.28 -1.24389 4.92433 0
M  V30 13162 H 1208.21 -2.93603 4.37156 0
M  V30 13163 H 1210.7 -1.75988 3.3442 0
M  V30 13164 H 1211.01 -3.03378 7.10761 0
M  V30 13165 H 1209.36 -2.73475 6.38934 0
M  V30 13166 H 1212.55 -2.10502 4.18098 0
M  V30 13167 H 1212.72 -2.68614 5.89704 0
M  V30 13168 N 1206.13 -1.32992 -0.845635 0
M  V30 13169 C 1207.36 -1.27087 -1.63268 0
M  V30 13170 C 1207.77 0.159481 -1.88125 0
M  V30 13171 O 1207.13 1.09948 -1.45663 0
M  V30 13172 C 1207.18 -2.03649 -2.98679 0
M  V30 13173 O 1206.9 -3.41104 -2.74918 0
M  V30 13174 C 1208.4 -2.04875 -3.93117 0
M  V30 13175 H 1205.62 -0.438107 -0.508236 0
M  V30 13176 H 1208.17 -1.75257 -1.05381 0
M  V30 13177 H 1206.32 -1.59178 -3.53187 0
M  V30 13178 H 1206.74 -3.80405 -3.61099 0
M  V30 13179 H 1208.21 -2.62911 -4.85368 0
M  V30 13180 H 1208.69 -1.03728 -4.26775 0
M  V30 13181 H 1209.29 -2.49334 -3.44547 0
M  V30 13182 N 1207.61 1.06304 -1.1635 0
M  V30 13183 C 1208.86 1.78487 -0.939423 0
M  V30 13184 C 1209.17 1.8817 0.533998 0
M  V30 13185 O 1210.38 2.56981 0.875962 0
M  V30 13186 C 1208.83 3.20796 -1.63149 0
M  V30 13187 C 1208.44 3.19281 -3.14267 0
M  V30 13188 C 1210.18 3.97514 -1.48938 0
M  V30 13189 C 1208.09 4.56309 -3.76213 0
M  V30 13190 H 1207.02 0.668973 -0.347837 0
M  V30 13191 H 1209.67 1.19237 -1.3948 0
M  V30 13192 H 1208.05 3.80305 -1.10382 0
M  V30 13193 H 1209.23 2.69356 -3.73877 0
M  V30 13194 H 1207.54 2.56062 -3.28362 0
M  V30 13195 H 1210.14 4.98808 -1.926 0
M  V30 13196 H 1210.48 4.13986 -0.438319 0
M  V30 13197 H 1211.02 3.44528 -1.98861 0
M  V30 13198 H 1207.75 4.45042 -4.81267 0
M  V30 13199 H 1207.27 5.06429 -3.21388 0
M  V30 13200 H 1208.95 5.25266 -3.77762 0
M  V30 13201 N 1209.09 0.96196 1.24836 0
M  V30 13202 C 1210.31 0.63814 1.96813 0
M  V30 13203 C 1210.73 -0.79127 1.71419 0
M  V30 13204 O 1210.09 -1.5302 0.994546 0
M  V30 13205 C 1210.14 0.89626 3.50213 0
M  V30 13206 O 1209.86 2.26947 3.74735 0
M  V30 13207 C 1211.36 0.585836 4.39412 0
M  V30 13208 H 1208.58 0.238598 0.627146 0
M  V30 13209 H 1211.12 1.28833 1.58815 0
M  V30 13210 H 1209.28 0.292368 3.86295 0
M  V30 13211 H 1209.69 2.34514 4.69152 0
M  V30 13212 H 1211.17 0.816935 5.45921 0
M  V30 13213 H 1211.64 -0.479784 4.36572 0
M  V30 13214 H 1212.25 1.16938 4.08908 0
M  V30 13215 N 1210.56 -1.39601 0.731392 0
M  V30 13216 C 1211.47 -2.34425 0.090527 0
M  V30 13217 C 1212.49 -1.58131 -0.725992 0
M  V30 13218 O 1213.67 -1.90441 -0.655294 0
M  V30 13219 C 1210.73 -3.37138 -0.808624 0
M  V30 13220 C 1209.79 -4.29295 0.0197365 0
M  V30 13221 C 1209.02 -5.27102 -0.836593 0
M  V30 13222 O 1209.25 -5.31302 -2.07543 0
M  V30 13223 O 1208.18 -6.01307 -0.267172 0
M  V30 13224 H 1212.01 -2.9088 0.873084 0
M  V30 13225 H 1209.59 -1.41066 0.492024 0
M  V30 13226 H 1211.47 -4.00087 -1.32319 0
M  V30 13227 H 1210.15 -2.83074 -1.57006 0
M  V30 13228 H 1209.06 -3.69581 0.579744 0
M  V30 13229 H 1210.39 -4.86555 0.743308 0
M  V30 13230 N 1212.04 -0.478751 -1.50152 0
M  V30 13231 C 1213.27 0.0709455 -2.06478 0
M  V30 13232 C 1213.68 1.33376 -1.34192 0
M  V30 13233 O 1213.02 1.79133 -0.40707 0
M  V30 13234 C 1213.09 0.417322 -3.5707 0
M  V30 13235 C 1212.75 -0.744563 -4.50894 0
M  V30 13236 C 1213.75 -1.62879 -4.93727 0
M  V30 13237 C 1211.43 -0.937062 -4.93482 0
M  V30 13238 C 1213.43 -2.68985 -5.77863 0
M  V30 13239 C 1211.11 -2.00134 -5.77399 0
M  V30 13240 C 1212.11 -2.87609 -6.19492 0
M  V30 13241 O 1211.8 -3.92203 -7.01735 0
M  V30 13242 H 1211.53 -0.00720177 -0.675962 0
M  V30 13243 H 1214.08 -0.668797 -1.94207 0
M  V30 13244 H 1212.31 1.21036 -3.6727 0
M  V30 13245 H 1214 0.903002 -3.95728 0
M  V30 13246 H 1214.77 -1.49179 -4.61488 0
M  V30 13247 H 1210.65 -0.265636 -4.60234 0
M  V30 13248 H 1214.19 -3.37293 -6.10639 0
M  V30 13249 H 1210.09 -2.13837 -6.09052 0
M  V30 13250 H 1210.86 -3.89284 -7.2 0
M  V30 13251 N 1213.52 1.56172 -0.211661 0
M  V30 13252 C 1214.48 2.18602 0.688906 0
M  V30 13253 C 1215.48 1.14508 1.12892 0
M  V30 13254 O 1216.67 1.39799 1.03932 0
M  V30 13255 C 1213.81 2.80141 1.94253 0
M  V30 13256 H 1215 2.9955 0.144765 0
M  V30 13257 H 1212.55 1.56254 0.0379615 0
M  V30 13258 H 1213.29 2.03035 2.52878 0
M  V30 13259 H 1213.07 3.56358 1.63558 0
M  V30 13260 H 1214.56 3.28026 2.58436 0
M  V30 13261 N 1215 -0.0618163 1.57479 0
M  V30 13262 C 1216.41 -0.416827 1.54061 0
M  V30 13263 C 1216.61 -1.78584 0.933277 0
M  V30 13264 O 1215.67 -2.46656 0.54009 0
M  V30 13265 C 1216.98 -0.348728 2.98671 0
M  V30 13266 C 1218.53 -0.428194 3.10057 0
M  V30 13267 C 1219.01 -0.389898 4.56337 0
M  V30 13268 N 1220.5 -0.449677 4.61012 0
M  V30 13269 C 1221.23 -0.442418 5.71691 0
M  V30 13270 N 1220.73 -0.389381 6.91705 0
M  V30 13271 N 1222.52 -0.489719 5.59963 0
M  V30 13272 H 1214.67 0.834487 1.9532 0
M  V30 13273 H 1216.94 0.314149 0.894435 0
M  V30 13274 H 1216.64 0.590738 3.46703 0
M  V30 13275 H 1216.52 -1.15511 3.59078 0
M  V30 13276 H 1218.9 -1.35808 2.61992 0
M  V30 13277 H 1218.98 0.406946 2.52542 0
M  V30 13278 H 1218.63 0.536186 5.05062 0
M  V30 13279 H 1218.56 -1.24271 5.11727 0
M  V30 13280 H 1221.05 -0.49451 3.74651 0
M  V30 13281 H 1221.36 -0.388042 7.71825 0
M  V30 13282 H 1219.71 -0.355918 6.94088 0
M  V30 13283 H 1222.9 -0.528915 4.65102 0
M  V30 13284 H 1223.07 -0.480592 6.46215 0
M  V30 13285 N 1216.48 -1.54033 -0.333429 0
M  V30 13286 C 1217.39 -1.85737 -1.43314 0
M  V30 13287 C 1218.4 -0.748398 -1.57083 0
M  V30 13288 O 1219.58 -1.04171 -1.72367 0
M  V30 13289 C 1216.64 -2.06942 -2.78165 0
M  V30 13290 C 1215.7 -3.30774 -2.73655 0
M  V30 13291 C 1214.94 -3.50957 -4.02075 0
M  V30 13292 O 1215.16 -2.74774 -4.99855 0
M  V30 13293 O 1214.09 -4.44412 -4.05933 0
M  V30 13294 H 1217.92 -2.7923 -1.19434 0
M  V30 13295 H 1215.51 -1.39814 -0.526546 0
M  V30 13296 H 1217.39 -2.22276 -3.58011 0
M  V30 13297 H 1216.06 -1.16638 -3.01956 0
M  V30 13298 H 1214.97 -3.20835 -1.92395 0
M  V30 13299 H 1216.3 -4.21103 -2.54819 0
M  V30 13300 N 1217.95 0.594978 -1.45938 0
M  V30 13301 C 1219.2 1.34976 -1.49881 0
M  V30 13302 C 1219.52 1.95025 -0.14983 0
M  V30 13303 O 1220.72 2.71417 -0.0669868 0
M  V30 13304 C 1219.18 2.44563 -2.6404 0
M  V30 13305 C 1218.79 1.9087 -4.05306 0
M  V30 13306 C 1220.53 3.21461 -2.77242 0
M  V30 13307 C 1218.44 2.98013 -5.10825 0
M  V30 13308 H 1217.37 0.507366 -0.55776 0
M  V30 13309 H 1220.02 0.636316 -1.72114 0
M  V30 13310 H 1218.4 3.1865 -2.35114 0
M  V30 13311 H 1219.57 1.23408 -4.43968 0
M  V30 13312 H 1217.89 1.26678 -3.96663 0
M  V30 13313 H 1220.49 4.01399 -3.53246 0
M  V30 13314 H 1220.83 3.73271 -1.84321 0
M  V30 13315 H 1221.36 2.54477 -3.05756 0
M  V30 13316 H 1218.1 2.51104 -6.05497 0
M  V30 13317 H 1217.62 3.64003 -4.7672 0
M  V30 13318 H 1219.3 3.62178 -5.36131 0
M  V30 13319 N 1219.43 1.33438 0.838571 0
M  V30 13320 C 1220.68 1.26106 1.59589 0
M  V30 13321 C 1221.03 -0.171524 1.91634 0
M  V30 13322 O 1220.33 -1.11368 1.55909 0
M  V30 13323 C 1220.52 2.07002 2.9135 0
M  V30 13324 C 1220.35 3.57981 2.72175 0
M  V30 13325 C 1219.12 4.27293 2.69719 0
M  V30 13326 C 1221.32 4.52308 2.4479 0
M  V30 13327 N 1219.3 5.64221 2.41925 0
M  V30 13328 C 1220.67 5.77127 2.26549 0
M  V30 13329 C 1222.73 4.4139 2.3039 0
M  V30 13330 C 1221.43 6.9226 1.95368 0
M  V30 13331 C 1223.45 5.56339 2.00602 0
M  V30 13332 C 1222.82 6.80167 1.83173 0
M  V30 13333 H 1218.92 0.516656 0.587018 0
M  V30 13334 H 1221.5 1.67982 0.984382 0
M  V30 13335 H 1219.67 1.67446 3.50452 0
M  V30 13336 H 1221.4 1.91437 3.56558 0
M  V30 13337 H 1218.16 3.79571 2.83236 0
M  V30 13338 H 1218.58 6.36403 2.30911 0
M  V30 13339 H 1223.22 3.46289 2.42577 0
M  V30 13340 H 1220.94 7.87357 1.81918 0
M  V30 13341 H 1224.53 5.49827 1.90214 0
M  V30 13342 H 1223.41 7.67609 1.60455 0
M  V30 13343 N 1220.91 -1.05686 1.16912 0
M  V30 13344 C 1222.16 -1.78244 0.95254 0
M  V30 13345 C 1222.48 -1.87924 -0.520525 0
M  V30 13346 O 1221.75 -1.39239 -1.37802 0
M  V30 13347 H 1220.33 -0.660228 0.349439 0
M  V30 13348 H 1222.99 -1.27634 1.47294 0
M  V30 13349 H 1222.09 -2.80102 1.37657 0
M  V30 13350 N 1222.39 -0.968567 -1.24324 0
M  V30 13351 C 1223.63 -0.631863 -1.92705 0
M  V30 13352 C 1223.97 0.83096 -1.75524 0
M  V30 13353 O 1223.24 1.59795 -1.10887 0
M  V30 13354 C 1223.53 -1.00845 -3.45691 0
M  V30 13355 C 1223.38 -2.52803 -3.72036 0
M  V30 13356 C 1224.7 -0.543647 -4.36729 0
M  V30 13357 H 1221.82 -0.231027 -0.699854 0
M  V30 13358 H 1224.46 -1.20773 -1.46676 0
M  V30 13359 H 1222.61 -0.518434 -3.85025 0
M  V30 13360 H 1224.28 -3.09289 -3.42255 0
M  V30 13361 H 1222.52 -2.95963 -3.17157 0
M  V30 13362 H 1223.19 -2.74203 -4.79079 0
M  V30 13363 H 1225.67 -0.964182 -4.04775 0
M  V30 13364 H 1224.55 -0.8357 -5.42501 0
M  V30 13365 H 1224.81 0.556256 -4.38587 0
M  V30 13366 N 1223.87 1.39211 -0.738786 0
M  V30 13367 C 1224.78 2.34374 -0.102958 0
M  V30 13368 C 1225.79 1.58514 0.717596 0
M  V30 13369 O 1226.97 1.90786 0.645186 0
M  V30 13370 C 1224.03 3.37562 0.790733 0
M  V30 13371 C 1223.09 4.29279 -0.0425028 0
M  V30 13372 C 1222.33 5.27539 0.808628 0
M  V30 13373 O 1222.55 5.32396 2.04722 0
M  V30 13374 O 1221.48 6.0144 0.235279 0
M  V30 13375 H 1225.31 2.90412 -0.888498 0
M  V30 13376 H 1222.9 1.40803 -0.499498 0
M  V30 13377 H 1224.78 4.00783 1.30196 0
M  V30 13378 H 1223.45 2.83903 1.55502 0
M  V30 13379 H 1222.36 3.69268 -0.599335 0
M  V30 13380 H 1223.69 4.86154 -0.7691 0
M  V30 13381 N 1225.34 0.486708 1.49896 0
M  V30 13382 C 1226.76 0.0353906 1.86666 0
M  V30 13383 C 1227.11 -1.3743 1.40026 0
M  V30 13384 O 1226.23 -2.02163 0.77194 0
M  V30 13385 C 1226.83 0.0574475 3.38751 0
M  V30 13386 C 1225.39 -0.338464 3.74875 0
M  V30 13387 C 1224.53 0.436196 2.73848 0
M  V30 13388 H 1227.48 0.700215 1.42417 0
M  V30 13389 H 1227.5 -0.741175 3.73212 0
M  V30 13390 H 1227.02 1.08356 3.72667 0
M  V30 13391 H 1225.12 -1.36835 3.46565 0
M  V30 13392 H 1225.23 -0.0289519 4.79091 0
M  V30 13393 H 1223.59 -0.112141 2.54453 0
M  V30 13394 H 1224.38 1.46212 3.10608 0
M  V30 13395 N 1226.82 -1.56058 0.219941 0
M  V30 13396 C 1228.05 -2.031 -0.42014 0
M  V30 13397 C 1228.47 -1.09875 -1.52673 0
M  V30 13398 O 1227.83 -0.0866458 -1.81093 0
M  V30 13399 C 1227.88 -3.48389 -0.93047 0
M  V30 13400 O 1226.98 -3.583 -2.04192 0
M  V30 13401 H 1226.32 -0.657129 -0.0952772 0
M  V30 13402 H 1228.85 -2.01787 0.338105 0
M  V30 13403 H 1228.86 -3.88678 -1.2407 0
M  V30 13404 H 1227.54 -4.15725 -0.120539 0
M  V30 13405 H 1226.12 -3.29898 -1.73845 0
M  V30 13406 N 1228.3 0.053464 -1.57509 0
M  V30 13407 C 1229.58 0.783141 -1.79238 0
M  V30 13408 C 1229.96 1.94855 -0.812069 0
M  V30 13409 O 1229.31 2.28 0.151006 0
M  V30 13410 C 1229.52 1.239 -3.26266 0
M  V30 13411 C 1230.86 1.66492 -3.90596 0
M  V30 13412 O 1231.89 1.33421 -3.30269 0
M  V30 13413 O 1230.75 2.27785 -4.96766 0
M  V30 13414 H 1227.84 0.376696 -0.736226 0
M  V30 13415 H 1230.39 0.0321229 -1.6967 0
M  V30 13416 H 1229.16 0.405948 -3.89189 0
M  V30 13417 H 1228.78 2.05078 -3.4063 0
M  V30 13418 N 1229.78 1.54207 0.325255 0
M  V30 13419 C 1230.71 1.86467 1.40543 0
M  V30 13420 C 1231.69 0.721324 1.54048 0
M  V30 13421 O 1232.88 0.974905 1.67956 0
M  V30 13422 C 1230.01 2.09052 2.77335 0
M  V30 13423 C 1228.96 3.24893 2.78619 0
M  V30 13424 C 1228.29 3.32846 4.1847 0
M  V30 13425 C 1229.59 4.62582 2.42518 0
M  V30 13426 H 1231.28 2.76932 1.13794 0
M  V30 13427 H 1228.83 1.33248 0.545971 0
M  V30 13428 H 1230.78 2.30204 3.52964 0
M  V30 13429 H 1229.5 1.15335 3.05558 0
M  V30 13430 H 1228.16 3.03625 2.05444 0
M  V30 13431 H 1227.81 2.3669 4.43832 0
M  V30 13432 H 1227.51 4.10701 4.20237 0
M  V30 13433 H 1229.03 3.56231 4.95915 0
M  V30 13434 H 1230.45 4.83627 3.07861 0
M  V30 13435 H 1228.84 5.42974 2.55538 0
M  V30 13436 H 1229.91 4.64946 1.3767 0
M  V30 13437 N 1231.26 -0.58723 1.46251 0
M  V30 13438 C 1232.19 -1.71103 1.52501 0
M  V30 13439 C 1233.2 -1.57454 0.413772 0
M  V30 13440 O 1234.39 -1.64962 0.681902 0
M  V30 13441 C 1231.49 -3.0931 1.38493 0
M  V30 13442 C 1230.66 -3.49005 2.63655 0
M  V30 13443 C 1229.72 -4.66255 2.43911 0
M  V30 13444 O 1228.75 -4.72344 3.17616 0
M  V30 13445 N 1229.95 -5.60843 1.49784 0
M  V30 13446 H 1232.72 -1.66198 2.49396 0
M  V30 13447 H 1230.28 -0.773087 1.4225 0
M  V30 13448 H 1232.27 -3.85535 1.23064 0
M  V30 13449 H 1230.84 -3.08608 0.497963 0
M  V30 13450 H 1230.06 -2.62533 2.94058 0
M  V30 13451 H 1231.35 -3.72291 3.4681 0
M  V30 13452 H 1230.75 -5.58656 0.889972 0
M  V30 13453 H 1229.3 -6.36517 1.4032 0
M  V30 13454 N 1232.74 -1.33881 -0.831482 0
M  V30 13455 C 1233.98 -1.251 -1.58218 0
M  V30 13456 C 1234.3 0.17963 -1.94773 0
M  V30 13457 O 1235.5 0.389516 -2.68691 0
M  V30 13458 C 1233.96 -2.19246 -2.8541 0
M  V30 13459 C 1233.57 -3.6752 -2.5619 0
M  V30 13460 C 1235.31 -2.19355 -3.63433 0
M  V30 13461 C 1233.22 -4.53559 -3.79523 0
M  V30 13462 H 1232.15 -0.46469 -0.593784 0
M  V30 13463 H 1234.8 -1.58992 -0.916169 0
M  V30 13464 H 1233.18 -1.78295 -3.53591 0
M  V30 13465 H 1234.36 -4.16956 -1.96173 0
M  V30 13466 H 1232.67 -3.69774 -1.91458 0
M  V30 13467 H 1235.27 -2.80863 -4.54995 0
M  V30 13468 H 1235.61 -1.19056 -3.98913 0
M  V30 13469 H 1236.14 -2.58706 -3.02185 0
M  V30 13470 H 1232.88 -5.54762 -3.4917 0
M  V30 13471 H 1232.4 -4.08862 -4.38853 0
M  V30 13472 H 1234.08 -4.67736 -4.47025 0
M  V30 13473 N 1234.21 1.05064 -1.1747 0
M  V30 13474 C 1235.62 1.59547 -0.969628 0
M  V30 13475 C 1235.98 1.90153 0.483332 0
M  V30 13476 O 1235.1 1.68415 1.35887 0
M  V30 13477 C 1235.7 2.89877 -1.75377 0
M  V30 13478 C 1234.25 3.41013 -1.59332 0
M  V30 13479 C 1233.4 2.1473 -1.7546 0
M  V30 13480 H 1236.35 0.878595 -1.3216 0
M  V30 13481 H 1236.37 3.59834 -1.23691 0
M  V30 13482 H 1235.89 2.67569 -2.8112 0
M  V30 13483 H 1233.99 3.68355 -0.560827 0
M  V30 13484 H 1234.1 4.15512 -2.38509 0
M  V30 13485 H 1232.46 2.25553 -1.18313 0
M  V30 13486 H 1233.25 1.9489 -2.82618 0
M  V30 13487 N 1235.69 0.975146 1.23809 0
M  V30 13488 C 1237.1 0.678873 1.7392 0
M  V30 13489 C 1237.45 -0.805133 1.78919 0
M  V30 13490 O 1236.58 -1.62984 1.42356 0
M  V30 13491 C 1237.17 1.22562 3.15854 0
M  V30 13492 C 1235.73 0.979096 3.63443 0
M  V30 13493 C 1234.88 1.35649 2.41857 0
M  V30 13494 H 1237.83 1.14961 1.09406 0
M  V30 13495 H 1237.85 0.595489 3.75811 0
M  V30 13496 H 1237.36 2.30571 3.12184 0
M  V30 13497 H 1235.46 -0.0851407 3.72503 0
M  V30 13498 H 1235.58 1.62998 4.5052 0
M  V30 13499 H 1233.94 0.774916 2.42626 0
M  V30 13500 H 1234.72 2.44624 2.40861 0
M  V30 13501 N 1237.17 -1.38817 0.746158 0
M  V30 13502 C 1238.58 -1.83045 0.367629 0
M  V30 13503 C 1238.93 -1.62285 -1.10263 0
M  V30 13504 O 1238.06 -1.12001 -1.85162 0
M  V30 13505 C 1238.65 -3.323 0.660482 0
M  V30 13506 C 1237.21 -3.74903 0.335318 0
M  V30 13507 C 1236.36 -2.61683 0.917446 0
M  V30 13508 H 1239.31 -1.27651 0.94291 0
M  V30 13509 H 1239.33 -3.80446 -0.0639061 0
M  V30 13510 H 1238.84 -3.47377 1.73062 0
M  V30 13511 H 1236.94 -3.65408 -0.728538 0
M  V30 13512 H 1237.06 -4.71932 0.825677 0
M  V30 13513 H 1235.42 -2.52376 0.343316 0
M  V30 13514 H 1236.2 -2.79563 1.99247 0
M  V30 13515 N 1238.65 -0.49465 -1.49636 0
M  V30 13516 C 1239.6 0.300929 -2.30645 0
M  V30 13517 C 1240.59 0.968687 -1.38971 0
M  V30 13518 O 1241.8 0.897101 -1.56052 0
M  V30 13519 H 1238.17 0.1159 -0.743015 0
M  V30 13520 H 1240.14 -0.402387 -2.95674 0
M  V30 13521 C 1238.89 1.35638 -3.20153 0
M  V30 13522 H 1238.21 0.851946 -3.90617 0
M  V30 13523 H 1239.65 1.88515 -3.79787 0
M  V30 13524 C 1238.11 2.37112 -2.39331 0
M  V30 13525 O 1238.64 3.42867 -2.09298 0
M  V30 13526 N 1236.85 2.09421 -2.01473 0
M  V30 13527 H 1236.4 1.23441 -2.26097 0
M  V30 13528 H 1236.35 2.77545 -1.47703 0
M  V30 13529 N 1240.13 1.55939 -0.228214 0
M  V30 13530 C 1241.37 1.97652 0.402067 0
M  V30 13531 C 1241.69 1.11911 1.60422 0
M  V30 13532 O 1242.89 1.43552 2.30445 0
M  V30 13533 C 1241.35 3.51638 0.766724 0
M  V30 13534 C 1240.96 4.46092 -0.412991 0
M  V30 13535 C 1242.7 4.02049 1.36224 0
M  V30 13536 C 1240.61 5.91394 -0.0255281 0
M  V30 13537 H 1239.54 0.738107 0.153994 0
M  V30 13538 H 1242.19 1.8059 -0.32548 0
M  V30 13539 H 1240.57 3.64325 1.55188 0
M  V30 13540 H 1241.75 4.45156 -1.19049 0
M  V30 13541 H 1240.06 4.0606 -0.92218 0
M  V30 13542 H 1242.66 5.08111 1.66514 0
M  V30 13543 H 1243 3.48292 2.28032 0
M  V30 13544 H 1243.53 3.92612 0.640378 0
M  V30 13545 H 1240.27 6.49149 -0.910269 0
M  V30 13546 H 1239.79 5.95509 0.716149 0
M  V30 13547 H 1241.47 6.4577 0.398839 0
M  V30 13548 N 1241.6 -0.0451101 1.57535 0
M  V30 13549 C 1243.02 -0.59372 1.77008 0
M  V30 13550 C 1243.37 -1.76482 0.857233 0
M  V30 13551 O 1242.49 -2.16347 0.0479703 0
M  V30 13552 C 1243.09 -1.08383 3.20996 0
M  V30 13553 C 1241.65 -1.57808 3.41721 0
M  V30 13554 C 1240.79 -0.509067 2.72587 0
M  V30 13555 H 1243.74 0.181114 1.57663 0
M  V30 13556 H 1243.76 -1.95181 3.26626 0
M  V30 13557 H 1243.28 -0.231276 3.8741 0
M  V30 13558 H 1241.38 -2.45302 2.8046 0
M  V30 13559 H 1241.49 -1.63664 4.50279 0
M  V30 13560 H 1239.85 -0.960389 2.359 0
M  V30 13561 H 1240.64 0.333753 3.41674 0
M  V30 13562 N 1243.08 -1.54377 -0.317073 0
M  V30 13563 C 1244.5 -1.45232 -0.6618 0
M  V30 13564 C 1244.7 -0.630457 -1.91383 0
M  V30 13565 O 1243.75 -0.13181 -2.52156 0
M  V30 13566 C 1245.07 -2.89025 -0.829761 0
M  V30 13567 C 1246.62 -2.98967 -0.926685 0
M  V30 13568 C 1247.09 -4.43923 -1.12677 0
M  V30 13569 N 1248.58 -4.47564 -1.19335 0
M  V30 13570 C 1249.32 -5.56887 -1.36617 0
M  V30 13571 N 1248.81 -6.76167 -1.50899 0
M  V30 13572 N 1250.61 -5.44546 -1.39377 0
M  V30 13573 H 1242.76 -2.0629 0.505766 0
M  V30 13574 H 1245.02 -0.933615 0.164522 0
M  V30 13575 H 1244.73 -3.51695 0.0190945 0
M  V30 13576 H 1244.6 -3.35515 -1.72364 0
M  V30 13577 H 1246.99 -2.36421 -1.76604 0
M  V30 13578 H 1247.07 -2.55798 -0.00913402 0
M  V30 13579 H 1246.71 -5.07059 -0.29224 0
M  V30 13580 H 1246.64 -4.84708 -2.05829 0
M  V30 13581 H 1249.13 -3.61623 -1.09715 0
M  V30 13582 H 1249.45 -7.55242 -1.63796 0
M  V30 13583 H 1247.79 -6.79062 -1.47985 0
M  V30 13584 H 1250.98 -4.50311 -1.27819 0
M  V30 13585 H 1251.15 -6.29799 -1.52502 0
M  V30 13586 N 1244.56 0.579466 -1.4656 0
M  V30 13587 C 1245.84 1.33973 -1.42515 0
M  V30 13588 C 1246.22 2.10812 -0.110317 0
M  V30 13589 O 1245.57 2.09679 0.908135 0
M  V30 13590 C 1245.78 2.26301 -2.65686 0
M  V30 13591 C 1247.12 2.88027 -3.1197 0
M  V30 13592 O 1248.15 2.36612 -2.66257 0
M  V30 13593 O 1247.01 3.81423 -3.9138 0
M  V30 13594 H 1244.1 0.602121 -0.566903 0
M  V30 13595 H 1246.65 0.600214 -1.58731 0
M  V30 13596 H 1245.42 1.68973 -3.52936 0
M  V30 13597 H 1245.04 3.07586 -2.51945 0
M  V30 13598 O 1246.08 1.44373 0.723796 0
M  V30 13599 H 1246.77 1.36511 1.37421 0
M  V30 END ATOM
M  V30 BEGIN BOND
M  V30 END BOND
M  V30 END CTAB
M  END
$$$$
