drugbank_target|P11172 Uridine 5'-monophosphate synthase (DB02890)
 OpenBabel12092120533D

  0  0  0     0  0            999 V3000
M  V30 BEGIN CTAB
M  V30 COUNTS 7452 7507 0 0 0
M  V30 BEGIN ATOM
M  V30 1 H -0.908 1.98254 -0.117106 0
M  V30 2 N 0 1.576 0 0
M  V30 3 C 0.933 2.03868 1.02534 0
M  V30 4 C 1.911 0.928543 1.3348 0
M  V30 5 O 3.095 1.19667 1.45644 0
M  V30 6 C 0.222 2.43627 2.35294 0
M  V30 7 C -0.732 3.65373 2.2001 0
M  V30 8 S 0.101 5.13292 1.52614 0
M  V30 9 C 1.257 5.56322 2.86805 0
M  V30 10 H 1.49 2.90518 0.631377 0
M  V30 11 H -0.977 1.52953 0.210867 0
M  V30 12 H 0.981 2.67203 3.11629 0
M  V30 13 H -0.358 1.57376 2.7183 0
M  V30 14 H -1.165 3.90944 3.18086 0
M  V30 15 H -1.563 3.418 1.51819 0
M  V30 16 H 0.729 5.58782 3.83104 0
M  V30 17 H 1.672 6.56266 2.65933 0
M  V30 18 H 2.08 4.83886 2.90714 0
M  V30 19 N 1.4781 -0.272755 1.55222 0
M  V30 20 C 2.4411 -1.32041 1.87344 0
M  V30 21 C 3.4411 -1.42342 0.74803 0
M  V30 22 O 4.6311 -1.41488 1.0162 0
M  V30 23 C 1.7631 -2.70173 2.07893 0
M  V30 24 H 2.9561 -1.04789 2.80997 0
M  V30 25 H 0.5091 -0.51083 1.47717 0
M  V30 26 H 1.2441 -3.02605 1.16622 0
M  V30 27 H 1.0291 -2.64082 2.89833 0
M  V30 28 H 2.5191 -3.45869 2.34017 0
M  V30 29 N 2.9562 -1.48159 -0.537278 0
M  V30 30 C 4.2022 -1.56035 -1.29541 0
M  V30 31 C 4.5352 -0.230377 -1.92829 0
M  V30 32 O 3.8102 0.762952 -1.78911 0
M  V30 33 C 4.0932 -2.69323 -2.39034 0
M  V30 34 C 3.9462 -4.12002 -1.80485 0
M  V30 35 C 5.2652 -2.78408 -3.40847 0
M  V30 36 H 2.3842 -0.567992 -0.469632 0
M  V30 37 H 5.0262 -1.80302 -0.599277 0
M  V30 38 H 3.1762 -2.48763 -2.98412 0
M  V30 39 H 4.8482 -4.43981 -1.25215 0
M  V30 40 H 3.0912 -4.19344 -1.11055 0
M  V30 41 H 3.7622 -4.87077 -2.59731 0
M  V30 42 H 6.2382 -2.97012 -2.91416 0
M  V30 43 H 5.1142 -3.59416 -4.14863 0
M  V30 44 H 5.3752 -1.86269 -4.00944 0
M  V30 45 N 4.4343 0.785586 -1.36625 0
M  V30 46 C 5.3973 1.87999 -1.31107 0
M  V30 47 C 6.3973 1.59316 -0.217959 0
M  V30 48 O 7.5873 1.67656 -0.472977 0
M  V30 49 C 4.7193 3.24861 -1.03334 0
M  V30 50 H 5.9123 1.94307 -2.2844 0
M  V30 51 H 3.4653 0.983813 -1.21453 0
M  V30 52 H 4.2003 3.24235 -0.0647432 0
M  V30 53 H 3.9853 3.4707 -1.82441 0
M  V30 54 H 5.4753 4.04929 -1.02088 0
M  V30 55 N 5.9124 1.20967 1.01018 0
M  V30 56 C 7.3284 0.965905 1.27053 0
M  V30 57 C 7.5284 -0.350785 1.98423 0
M  V30 58 O 6.5844 -1.07773 2.28344 0
M  V30 59 C 7.8974 2.15294 2.09926 0
M  V30 60 C 9.4454 2.19463 2.23171 0
M  V30 61 C 9.9204 3.3767 3.09424 0
M  V30 62 N 11.4114 3.37724 3.17012 0
M  V30 63 C 12.1464 4.25837 3.83993 0
M  V30 64 N 11.6424 5.24138 4.53047 0
M  V30 65 N 13.4354 4.1366 3.80581 0
M  V30 66 H 5.5864 2.0565 0.531194 0
M  V30 67 H 7.8494 0.90024 0.297106 0
M  V30 68 H 7.5554 3.10684 1.64828 0
M  V30 69 H 7.4294 2.13923 3.10672 0
M  V30 70 H 9.8164 1.24632 2.6749 0
M  V30 71 H 9.8974 2.2488 1.21912 0
M  V30 72 H 9.5414 4.32791 2.65808 0
M  V30 73 H 9.4714 3.29491 4.10784 0
M  V30 74 H 11.9624 2.6658 2.6785 0
M  V30 75 H 12.2754 5.87684 5.01844 0
M  V30 76 H 10.6204 5.28068 4.5185 0
M  V30 77 H 13.8114 3.36127 3.25785 0
M  V30 78 H 13.9844 4.82538 4.32505 0
M  V30 79 N 7.3905 -1.2043 1.01659 0
M  V30 80 C 8.3535 -2.21433 0.591616 0
M  V30 81 C 9.3535 -1.57203 -0.338226 0
M  V30 82 O 10.5435 -1.73737 -0.126918 0
M  V30 83 C 7.6755 -3.40628 -0.136058 0
M  V30 84 H 8.8685 -2.60545 1.48514 0
M  V30 85 H 6.4215 -1.33893 0.806379 0
M  V30 86 H 7.1565 -3.07019 -1.04449 0
M  V30 87 H 6.9415 -3.88475 0.531917 0
M  V30 88 H 8.4315 -4.15475 -0.420735 0
M  V30 89 N 8.8686 -0.792821 -1.36206 0
M  V30 90 C 9.8316 -0.199459 -2.2833 0
M  V30 91 C 10.8316 0.605189 -1.48977 0
M  V30 92 O 12.0216 0.425685 -1.68919 0
M  V30 93 C 9.1536 0.723523 -3.33134 0
M  V30 94 H 10.3466 -1.01181 -2.82316 0
M  V30 95 H 7.8996 -0.562485 -1.45828 0
M  V30 96 H 8.6346 1.56008 -2.84309 0
M  V30 97 H 8.4196 0.148436 -3.91819 0
M  V30 98 H 9.9096 1.13344 -4.01924 0
M  V30 99 N 10.3467 1.47872 -0.545128 0
M  V30 100 C 11.2767 2.32661 0.197793 0
M  V30 101 C 12.2577 1.43041 0.920504 0
M  V30 102 O 13.4427 1.71912 0.90333 0
M  V30 103 C 10.5727 3.24569 1.23582 0
M  V30 104 C 9.5267 4.23333 0.630323 0
M  V30 105 C 8.8527 5.0448 1.77211 0
M  V30 106 C 10.1527 5.20704 -0.407974 0
M  V30 107 H 11.8467 2.95024 -0.510045 0
M  V30 108 H 9.3927 1.4187 -0.246731 0
M  V30 109 H 11.3457 3.8272 1.76362 0
M  V30 110 H 10.0697 2.60236 1.97344 0
M  V30 111 H 8.7287 3.6639 0.123922 0
M  V30 112 H 8.3767 4.36561 2.49847 0
M  V30 113 H 8.0767 5.71339 1.37281 0
M  V30 114 H 9.6007 5.65487 2.3034 0
M  V30 115 H 11.0147 5.7329 0.033305 0
M  V30 116 H 9.4117 5.95699 -0.725486 0
M  V30 117 H 10.4817 4.66917 -1.30828 0
M  V30 118 N 11.8248 0.280983 1.55075 0
M  V30 119 C 13.0728 -0.333455 1.9933 0
M  V30 120 C 13.3938 -1.55937 1.17085 0
M  V30 121 O 12.6638 -1.94143 0.261805 0
M  V30 122 H 11.2438 -0.126197 0.736263 0
M  V30 123 H 13.9058 0.387678 1.91005 0
M  V30 124 H 13.0018 -0.619292 3.05894 0
M  V30 125 N 13.3029 -1.57598 0.00835791 0
M  V30 126 C 14.7139 -1.7892 -0.53333 0
M  V30 127 C 15.0649 -0.916609 -1.73473 0
M  V30 128 O 14.1899 -0.121336 -2.1606 0
M  V30 129 C 14.7849 -3.24488 -0.974313 0
M  V30 130 C 13.3439 -3.46878 -1.46125 0
M  V30 131 C 12.4909 -2.74157 -0.416302 0
M  V30 132 H 15.4419 -1.56958 0.234495 0
M  V30 133 H 15.4629 -3.3306 -1.83988 0
M  V30 134 H 14.9749 -3.87972 -0.099718 0
M  V30 135 H 13.0759 -2.8862 -2.35646 0
M  V30 136 H 13.1889 -4.55572 -1.48295 0
M  V30 137 H 11.5529 -2.39022 -0.87981 0
M  V30 138 H 12.3359 -3.40345 0.44947 0
M  V30 139 N 14.781 0.264519 -1.55364 0
M  V30 140 C 15.711 1.33121 -1.91836 0
M  V30 141 C 16.692 1.51101 -0.781192 0
M  V30 142 O 17.877 1.64003 -1.04003 0
M  V30 143 C 15.007 2.68921 -2.19769 0
M  V30 144 C 13.961 2.65661 -3.35571 0
M  V30 145 C 13.287 4.05093 -3.49004 0
M  V30 146 C 14.587 2.24187 -4.71739 0
M  V30 147 H 16.281 1.02844 -2.81182 0
M  V30 148 H 13.827 0.493286 -1.35287 0
M  V30 149 H 15.78 3.43663 -2.43872 0
M  V30 150 H 14.504 3.00799 -1.27231 0
M  V30 151 H 13.163 1.93377 -3.1145 0
M  V30 152 H 12.811 4.34206 -2.53917 0
M  V30 153 H 12.511 4.03804 -4.26868 0
M  V30 154 H 14.035 4.81561 -3.75408 0
M  V30 155 H 15.449 2.88654 -4.9533 0
M  V30 156 H 13.846 2.34044 -5.52579 0
M  V30 157 H 14.916 1.19327 -4.69988 0
M  V30 158 N 16.2591 1.48442 0.529413 0
M  V30 159 C 17.5051 1.5672 1.28711 0
M  V30 160 C 17.8381 0.2406 1.92704 0
M  V30 161 O 17.1131 -0.753454 1.79313 0
M  V30 162 C 17.3961 2.70587 2.37603 0
M  V30 163 C 17.2491 4.12953 1.78297 0
M  V30 164 C 18.5681 2.80212 3.39366 0
M  V30 165 H 15.6871 0.570474 0.466613 0
M  V30 166 H 18.3291 1.80617 0.589706 0
M  V30 167 H 16.4791 2.50342 2.97088 0
M  V30 168 H 18.1511 4.44639 1.22858 0
M  V30 169 H 16.3941 4.19927 1.0883 0
M  V30 170 H 17.0651 4.88448 2.57144 0
M  V30 171 H 19.5411 2.98553 2.89836 0
M  V30 172 H 18.4171 3.61611 4.12951 0
M  V30 173 H 18.6781 1.88393 3.99951 0
M  V30 174 N 17.7372 -0.778329 1.37039 0
M  V30 175 C 18.9652 -1.56734 1.35063 0
M  V30 176 C 19.3802 -1.88686 -0.0655597 0
M  V30 177 O 18.7372 -1.5096 -1.02554 0
M  V30 178 C 18.7882 -2.88163 2.18276 0
M  V30 179 O 18.5092 -2.57583 3.54376 0
M  V30 180 C 20.0102 -3.82422 2.24206 0
M  V30 181 H 17.2302 -0.485778 0.462883 0
M  V30 182 H 19.7742 -0.965185 1.8029 0
M  V30 183 H 17.9292 -3.44818 1.76576 0
M  V30 184 H 18.3432 -3.41699 3.97922 0
M  V30 185 H 19.8172 -4.71667 2.86765 0
M  V30 186 H 20.2942 -4.21078 1.24861 0
M  V30 187 H 20.9002 -3.31697 2.6619 0
M  V30 188 N 19.2153 -1.21501 -1.00376 0
M  V30 189 C 20.4633 -1.03095 -1.73827 0
M  V30 190 C 20.7843 0.436341 -1.90055 0
M  V30 191 O 20.0543 1.31466 -1.45236 0
M  V30 192 H 18.6343 -0.378487 -0.644016 0
M  V30 193 H 21.2963 -1.52831 -1.20949 0
M  V30 194 H 20.3923 -1.49991 -2.73695 0
M  V30 195 N 20.6934 1.19889 -1.02296 0
M  V30 196 C 21.6234 2.25141 -0.619174 0
M  V30 197 C 22.6044 1.66051 0.368915 0
M  V30 198 O 23.7894 1.92546 0.252941 0
M  V30 199 C 20.9194 3.4728 0.0368783 0
M  V30 200 C 19.8734 4.19005 -0.872865 0
M  V30 201 C 19.1994 5.34637 -0.0822402 0
M  V30 202 C 20.4994 4.74452 -2.18387 0
M  V30 203 H 22.1934 2.59171 -1.49903 0
M  V30 204 H 19.7394 1.24579 -0.722222 0
M  V30 205 H 21.6924 4.20098 0.330958 0
M  V30 206 H 20.4164 3.12433 0.95149 0
M  V30 207 H 19.0754 3.48061 -1.15105 0
M  V30 208 H 18.7234 4.96034 0.83422 0
M  V30 209 H 18.4234 5.83557 -0.688149 0
M  V30 210 H 19.9474 6.10255 0.205238 0
M  V30 211 H 21.3614 5.39055 -1.95172 0
M  V30 212 H 19.7584 5.33834 -2.74119 0
M  V30 213 H 20.8284 3.92844 -2.84257 0
M  V30 214 N 22.1715 0.800033 1.35784 0
M  V30 215 C 23.4015 0.389041 2.02904 0
M  V30 216 C 23.8095 -1.0027 1.60445 0
M  V30 217 O 23.1525 -1.65633 0.794453 0
M  V30 218 C 23.2145 0.385495 3.57427 0
M  V30 219 C 22.8785 1.72662 4.23127 0
M  V30 220 C 23.8755 2.68385 4.4527 0
M  V30 221 C 21.5605 2.00883 4.60381 0
M  V30 222 C 23.5545 3.90517 5.03761 0
M  V30 223 C 21.2415 3.2328 5.18588 0
M  V30 224 C 22.2395 4.17915 5.40218 0
M  V30 225 O 21.9275 5.38153 5.97199 0
M  V30 226 H 21.6595 0.157032 0.657508 0
M  V30 227 H 24.2135 1.08311 1.74522 0
M  V30 228 H 22.4435 -0.365128 3.84972 0
M  V30 229 H 24.1325 -0.00228296 4.059 0
M  V30 230 H 24.8985 2.47872 4.16874 0
M  V30 231 H 20.7775 1.28037 4.42863 0
M  V30 232 H 24.3215 4.64395 5.2056 0
M  V30 233 H 20.2185 3.43667 5.4641 0
M  V30 234 H 20.9865 5.3936 6.15656 0
M  V30 235 N 23.6496 -1.47581 0.552962 0
M  V30 236 C 24.9266 -1.95563 -0.0381515 0
M  V30 237 C 25.3066 -1.49552 -1.48988 0
M  V30 238 O 24.6546 -0.732414 -2.16444 0
M  V30 239 C 24.8646 -3.48848 0.102919 0
M  V30 240 C 26.2126 -4.24577 -0.0446082 0
M  V30 241 O 27.2366 -3.56187 0.0302548 0
M  V30 242 O 26.0956 -5.46116 -0.204923 0
M  V30 243 H 23.1896 -0.824321 -0.0665067 0
M  V30 244 H 25.7356 -1.58001 0.619186 0
M  V30 245 H 24.5076 -3.75129 1.11328 0
M  V30 246 H 24.1306 -3.93165 -0.592224 0
M  V30 247 N 25.1277 -0.289203 -1.54924 0
M  V30 248 C 26.3737 0.323998 -2.00195 0
M  V30 249 C 26.7067 1.54441 -1.17735 0
M  V30 250 O 25.9817 1.92875 -0.250878 0
M  V30 251 C 26.2647 0.692276 -3.53383 0
M  V30 252 C 26.1177 -0.536457 -4.46589 0
M  V30 253 C 27.4367 1.52335 -4.12895 0
M  V30 254 H 24.5557 0.116289 -0.727768 0
M  V30 255 H 27.1977 -0.398954 -1.85764 0
M  V30 256 H 25.3477 1.30822 -3.65811 0
M  V30 257 H 27.0197 -1.17499 -4.46085 0
M  V30 258 H 25.2627 -1.17192 -4.1767 0
M  V30 259 H 25.9337 -0.234806 -5.515 0
M  V30 260 H 28.4097 1.00302 -4.0383 0
M  V30 261 H 27.2857 1.74982 -5.20262 0
M  V30 262 H 27.5467 2.50886 -3.64018 0
M  V30 263 N 26.6058 1.57591 -0.0167156 0
M  V30 264 C 27.5378 2.06343 0.997753 0
M  V30 265 C 28.5508 0.984469 1.29661 0
M  V30 266 O 29.7398 1.26093 1.26344 0
M  V30 267 C 26.8398 2.46255 2.32834 0
M  V30 268 C 26.0128 3.77083 2.21646 0
M  V30 269 C 25.0718 4.0368 3.37534 0
M  V30 270 O 24.0978 4.7411 3.14973 0
M  V30 271 N 25.2998 3.52881 4.60929 0
M  V30 272 H 28.0648 2.93997 0.581875 0
M  V30 273 H 25.6258 1.61002 0.170316 0
M  V30 274 H 27.6178 2.61149 3.09166 0
M  V30 275 H 26.1878 1.64032 2.66106 0
M  V30 276 H 25.4078 3.72106 1.30119 0
M  V30 277 H 26.6958 4.62822 2.11361 0
M  V30 278 H 26.0938 2.95878 4.82154 0
M  V30 279 H 24.6508 3.73076 5.34469 0
M  V30 280 N 28.0839 -0.256276 1.55502 0
M  V30 281 C 29.0469 -1.30047 1.88734 0
M  V30 282 C 30.0469 -1.4154 0.763086 0
M  V30 283 O 31.2369 -1.40403 1.03115 0
M  V30 284 C 28.3689 -2.67953 2.10747 0
M  V30 285 H 29.5619 -1.01802 2.82093 0
M  V30 286 H 27.1149 -0.495134 1.4825 0
M  V30 287 H 27.8499 -3.01351 1.19825 0
M  V30 288 H 27.6349 -2.60993 2.92617 0
M  V30 289 H 29.1249 -3.43368 2.37673 0
M  V30 290 N 29.562 -1.4872 -0.521534 0
M  V30 291 C 30.809 -1.57168 -1.27689 0
M  V30 292 C 31.137 -0.249275 -1.92896 0
M  V30 293 O 30.392 0.761162 -1.80291 0
M  V30 294 C 30.691 -2.66497 -2.38148 0
M  V30 295 C 30.357 -4.08664 -1.90538 0
M  V30 296 C 29.019 -4.47357 -1.77271 0
M  V30 297 C 31.371 -4.97724 -1.54663 0
M  V30 298 C 28.699 -5.72905 -1.26478 0
M  V30 299 C 31.051 -6.2377 -1.05329 0
M  V30 300 C 29.715 -6.61311 -0.906861 0
M  V30 301 H 28.985 -0.575117 -0.467249 0
M  V30 302 H 31.632 -1.82472 -0.581051 0
M  V30 303 H 29.937 -2.35085 -3.13437 0
M  V30 304 H 31.634 -2.70246 -2.96257 0
M  V30 305 H 28.224 -3.78111 -2.01816 0
M  V30 306 H 32.408 -4.68501 -1.63768 0
M  V30 307 H 27.664 -6.00709 -1.13835 0
M  V30 308 H 31.838 -6.9217 -0.76644 0
M  V30 309 H 29.465 -7.5848 -0.511083 0
M  V30 310 N 31.0401 0.771051 -1.3745 0
M  V30 311 C 31.9871 1.88435 -1.3327 0
M  V30 312 C 32.9571 1.64914 -0.198136 0
M  V30 313 O 34.1421 1.86821 -0.387606 0
M  V30 314 C 31.2821 3.25509 -1.14622 0
M  V30 315 C 30.3951 3.60979 -2.37314 0
M  V30 316 C 29.5301 4.87265 -2.11533 0
M  V30 317 C 28.5691 5.15469 -3.30088 0
M  V30 318 N 27.7061 6.32944 -3.03853 0
M  V30 319 H 32.5461 1.91344 -2.28455 0
M  V30 320 H 30.0831 0.935466 -1.13523 0
M  V30 321 H 32.0411 4.04582 -1.01831 0
M  V30 322 H 30.6711 3.21974 -0.230837 0
M  V30 323 H 29.7231 2.76885 -2.60842 0
M  V30 324 H 31.0351 3.77759 -3.25729 0
M  V30 325 H 30.1891 5.74244 -1.95777 0
M  V30 326 H 28.9281 4.7259 -1.20457 0
M  V30 327 H 27.9331 4.26966 -3.46382 0
M  V30 328 H 29.1581 5.32052 -4.22016 0
M  V30 329 H 27.1041 6.19625 -2.15407 0
M  V30 330 H 27.0211 6.50143 -3.85812 0
M  V30 331 H 28.2891 7.22857 -2.91716 0
M  V30 332 N 32.5182 1.22032 0.997298 0
M  V30 333 C 33.7652 1.04222 1.73621 0
M  V30 334 C 34.0932 -0.423264 1.89839 0
M  V30 335 O 33.3482 -1.3302 1.43542 0
M  V30 336 C 33.6472 1.69345 3.14733 0
M  V30 337 C 33.3132 3.19226 3.18442 0
M  V30 338 C 31.9752 3.60124 3.19161 0
M  V30 339 C 34.3272 4.15181 3.15078 0
M  V30 340 C 31.6552 4.95467 3.14212 0
M  V30 341 C 34.0072 5.50495 3.1167 0
M  V30 342 C 32.6712 5.90779 3.10703 0
M  V30 343 H 31.9412 0.381374 0.635323 0
M  V30 344 H 34.5882 1.51732 1.16831 0
M  V30 345 H 32.8932 1.14147 3.74803 0
M  V30 346 H 34.5902 1.53059 3.7064 0
M  V30 347 H 31.1802 2.86659 3.18629 0
M  V30 348 H 35.3642 3.84605 3.13676 0
M  V30 349 H 30.6202 5.25916 3.11805 0
M  V30 350 H 34.7942 6.24576 3.08022 0
M  V30 351 H 32.4212 6.9562 3.06622 0
M  V30 352 N 33.9963 -1.19345 1.0293 0
M  V30 353 C 35.2443 -1.88665 0.724574 0
M  V30 354 C 35.5653 -1.80036 -0.749144 0
M  V30 355 O 34.8353 -1.2111 -1.53978 0
M  V30 356 H 33.4153 -0.698406 0.265025 0
M  V30 357 H 36.0773 -1.44885 1.30362 0
M  V30 358 H 35.1733 -2.94987 1.01926 0
M  V30 359 N 35.4744 -0.807222 -1.35358 0
M  V30 360 C 36.7514 -0.311126 -1.9311 0
M  V30 361 C 37.1314 1.19937 -1.73719 0
M  V30 362 O 36.4794 1.99918 -1.10657 0
M  V30 363 C 36.6894 -0.723226 -3.41424 0
M  V30 364 C 38.0374 -0.713078 -4.18569 0
M  V30 365 O 39.0614 -0.664811 -3.49941 0
M  V30 366 O 37.9204 -0.772022 -5.41019 0
M  V30 367 H 35.0144 -0.081526 -0.822972 0
M  V30 368 H 37.5604 -0.890962 -1.4443 0
M  V30 369 H 36.3324 -1.76426 -3.4927 0
M  V30 370 H 35.9554 -0.118232 -3.97424 0
M  V30 371 N 36.9525 1.47285 -0.560781 0
M  V30 372 C 38.1995 2.02464 -0.038062 0
M  V30 373 C 38.5275 1.43474 1.31322 0
M  V30 374 O 37.7825 0.581311 1.86867 0
M  V30 375 C 38.0815 3.57258 0.100784 0
M  V30 376 C 37.7475 4.35184 -1.18007 0
M  V30 377 C 36.4095 4.56194 -1.53103 0
M  V30 378 C 38.7615 4.80098 -2.02867 0
M  V30 379 C 36.0895 5.19367 -2.729 0
M  V30 380 C 38.4415 5.44593 -3.21871 0
M  V30 381 C 37.1055 5.63835 -3.57276 0
M  V30 382 H 36.3755 0.740869 -0.0139279 0
M  V30 383 H 39.0225 1.76916 -0.733012 0
M  V30 384 H 37.3275 3.81819 0.878724 0
M  V30 385 H 39.0245 3.97606 0.520639 0
M  V30 386 H 35.6145 4.19113 -0.8968 0
M  V30 387 H 39.7985 4.63642 -1.7706 0
M  V30 388 H 35.0545 5.32459 -3.00496 0
M  V30 389 H 39.2285 5.78358 -3.87911 0
M  V30 390 H 36.8555 6.12557 -4.50197 0
M  V30 391 N 38.4306 0.297415 1.54768 0
M  V30 392 C 39.6766 -0.313376 2.00364 0
M  V30 393 C 40.0096 -1.53815 1.18553 0
M  V30 394 O 39.2846 -1.92739 0.261103 0
M  V30 395 C 39.5676 -0.673525 3.53745 0
M  V30 396 C 39.4206 0.560133 4.46299 0
M  V30 397 C 40.7396 -1.50143 4.13697 0
M  V30 398 H 37.8586 -0.112428 0.728374 0
M  V30 399 H 40.5006 0.4088 1.8555 0
M  V30 400 H 38.6506 -1.28881 3.665 0
M  V30 401 H 40.3226 1.19863 4.45455 0
M  V30 402 H 38.5656 1.19405 4.17043 0
M  V30 403 H 39.2366 0.26405 5.51368 0
M  V30 404 H 41.7126 -0.981588 4.04356 0
M  V30 405 H 40.5886 -1.72221 5.21182 0
M  V30 406 H 40.8496 -2.48952 3.65343 0
M  V30 407 N 39.9087 -1.5758 0.0250728 0
M  V30 408 C 40.8387 -2.13007 -0.956575 0
M  V30 409 C 41.8197 -1.0452 -1.342 0
M  V30 410 O 43.0047 -1.32332 -1.42133 0
M  V30 411 C 40.1347 -2.65386 -2.24026 0
M  V30 412 C 39.0887 -3.78623 -1.99571 0
M  V30 413 C 38.4147 -4.17414 -3.3417 0
M  V30 414 C 39.7147 -5.04867 -1.33814 0
M  V30 415 H 41.4087 -2.9528 -0.494991 0
M  V30 416 H 38.9547 -1.42042 -0.236651 0
M  V30 417 H 40.9077 -3.02794 -2.93076 0
M  V30 418 H 39.6317 -1.80268 -2.72343 0
M  V30 419 H 38.2907 -3.41646 -1.32941 0
M  V30 420 H 37.9387 -3.29284 -3.80238 0
M  V30 421 H 37.6387 -4.93719 -3.18615 0
M  V30 422 H 39.1627 -4.57402 -4.04495 0
M  V30 423 H 40.5767 -5.39888 -1.92857 0
M  V30 424 H 38.9737 -5.86144 -1.28669 0
M  V30 425 H 40.0437 -4.83904 -0.310561 0
M  V30 426 N 41.3868 0.248026 -1.55636 0
M  V30 427 C 42.3338 1.30707 -1.90222 0
M  V30 428 C 43.3038 1.47881 -0.756332 0
M  V30 429 O 44.4888 1.61883 -1.00988 0
M  V30 430 C 41.6288 2.65769 -2.20138 0
M  V30 431 C 40.7418 2.56612 -3.47526 0
M  V30 432 C 39.8768 3.8402 -3.67017 0
M  V30 433 C 38.9158 3.69476 -4.8801 0
M  V30 434 N 38.0528 4.88774 -5.04029 0
M  V30 435 H 42.8928 1.00512 -2.80538 0
M  V30 436 H 40.4298 0.485055 -1.38873 0
M  V30 437 H 42.3878 3.44386 -2.35487 0
M  V30 438 H 41.0178 2.94115 -1.33027 0
M  V30 439 H 40.0698 1.69571 -3.40514 0
M  V30 440 H 41.3818 2.41774 -4.36287 0
M  V30 441 H 40.5358 4.7108 -3.8232 0
M  V30 442 H 39.2748 4.01754 -2.76487 0
M  V30 443 H 38.2798 2.80799 -4.72686 0
M  V30 444 H 39.5048 3.53238 -5.8 0
M  V30 445 H 37.4508 5.0687 -4.16435 0
M  V30 446 H 37.3678 4.76562 -5.86877 0
M  V30 447 H 38.6358 5.77335 -5.23741 0
M  V30 448 N 42.8649 1.48995 0.513639 0
M  V30 449 C 44.0899 1.61792 1.29762 0
M  V30 450 C 44.5149 0.284475 1.85936 0
M  V30 451 O 43.8729 -0.746185 1.65232 0
M  V30 452 C 43.9209 2.67993 2.41272 0
M  V30 453 O 43.0249 2.26287 3.44772 0
M  V30 454 H 42.3659 0.541963 0.38363 0
M  V30 455 H 44.8959 1.95097 0.616307 0
M  V30 456 H 44.9059 2.89772 2.87221 0
M  V30 457 H 43.5809 3.64791 1.9975 0
M  V30 458 H 42.1579 2.14788 3.04829 0
M  V30 459 N 44.343 -0.763751 1.37857 0
M  V30 460 C 45.591 -1.51957 1.33243 0
M  V30 461 C 45.912 -1.94835 -0.0801709 0
M  V30 462 O 45.182 -1.66894 -1.02582 0
M  V30 463 H 43.762 -0.563626 0.49024 0
M  V30 464 H 46.424 -0.908504 1.7243 0
M  V30 465 H 45.52 -2.41523 1.97669 0
M  V30 466 N 45.8211 -1.22559 -0.990812 0
M  V30 467 C 46.7511 -1.0218 -2.09956 0
M  V30 468 C 47.7321 0.0579394 -1.70001 0
M  V30 469 O 48.9171 -0.104684 -1.93918 0
M  V30 470 C 46.0471 -0.601023 -3.4206 0
M  V30 471 C 45.0011 -1.62694 -3.95872 0
M  V30 472 C 44.3271 -1.06193 -5.24049 0
M  V30 473 C 45.6271 -3.01743 -4.2632 0
M  V30 474 H 47.3211 -1.94916 -2.27262 0
M  V30 475 H 44.8671 -0.938566 -1.09211 0
M  V30 476 H 46.8201 -0.445561 -4.19038 0
M  V30 477 H 45.5441 0.362005 -3.24588 0
M  V30 478 H 44.2031 -1.77021 -3.21028 0
M  V30 479 H 43.8511 -0.0901903 -5.02919 0
M  V30 480 H 43.5511 -1.74732 -5.61019 0
M  V30 481 H 45.0751 -0.918092 -6.03658 0
M  V30 482 H 46.4891 -2.90777 -4.94087 0
M  V30 483 H 44.8861 -3.67425 -4.74467 0
M  V30 484 H 45.9561 -3.51518 -3.34011 0
M  V30 485 N 47.2992 1.18797 -1.03562 0
M  V30 486 C 48.5242 1.9314 -0.755764 0
M  V30 487 C 48.9492 1.7537 0.68022 0
M  V30 488 O 48.3072 1.06046 1.47051 0
M  V30 489 C 48.3552 3.42747 -1.12058 0
M  V30 490 O 47.4592 4.11683 -0.243124 0
M  V30 491 H 46.8002 0.602724 -0.278604 0
M  V30 492 H 49.3302 1.50678 -1.3841 0
M  V30 493 H 49.3402 3.93437 -1.08035 0
M  V30 494 H 48.0152 3.55002 -2.16672 0
M  V30 495 H 46.5922 3.71323 -0.342539 0
M  V30 496 N 48.7773 0.814389 1.34928 0
M  V30 497 C 50.0023 0.410097 2.03305 0
M  V30 498 C 50.4273 -0.973464 1.60951 0
M  V30 499 O 49.7853 -1.63185 0.789964 0
M  V30 500 C 49.8333 0.51049 3.56968 0
M  V30 501 O 48.9373 -0.473035 4.09678 0
M  V30 502 H 48.2783 0.170088 0.641846 0
M  V30 503 H 50.8083 1.10244 1.72358 0
M  V30 504 H 50.8183 0.383135 4.06197 0
M  V30 505 H 49.4933 1.51963 3.87144 0
M  V30 506 H 48.0703 -0.305272 3.71648 0
M  V30 507 N 50.2554 -1.46986 0.568584 0
M  V30 508 C 51.6664 -1.86188 0.138219 0
M  V30 509 C 52.0174 -1.47388 -1.29504 0
M  V30 510 O 51.1424 -0.88219 -1.97602 0
M  V30 511 C 51.7374 -3.3792 0.244065 0
M  V30 512 C 50.2964 -3.76171 -0.131335 0
M  V30 513 C 49.4434 -2.71027 0.586465 0
M  V30 514 H 52.3944 -1.38342 0.777645 0
M  V30 515 H 52.4154 -3.76729 -0.534351 0
M  V30 516 H 51.9274 -3.66128 1.28731 0
M  V30 517 H 50.0284 -3.5358 -1.17526 0
M  V30 518 H 50.1414 -4.78523 0.235146 0
M  V30 519 H 48.5054 -2.54684 0.0282722 0
M  V30 520 H 49.2884 -3.02077 1.63109 0
M  V30 521 N 51.7335 -0.305618 -1.54608 0
M  V30 522 C 52.9825 0.303098 -1.9941 0
M  V30 523 C 53.2955 1.54648 -1.19764 0
M  V30 524 O 54.5015 2.23007 -1.54855 0
M  V30 525 C 52.9575 0.590588 -3.55021 0
M  V30 526 C 52.5655 -0.634719 -4.43481 0
M  V30 527 C 54.3095 1.16025 -4.08336 0
M  V30 528 C 52.2165 -0.320126 -5.90533 0
M  V30 529 H 51.1465 0.117031 -0.744862 0
M  V30 530 H 53.7975 -0.415045 -1.78745 0
M  V30 531 H 52.1795 1.36845 -3.71604 0
M  V30 532 H 53.3535 -1.41079 -4.38672 0
M  V30 533 H 51.6685 -1.12333 -4.00962 0
M  V30 534 H 54.2655 1.40994 -5.15776 0
M  V30 535 H 54.6085 2.10397 -3.5922 0
M  V30 536 H 55.1415 0.443985 -3.95315 0
M  V30 537 H 51.8805 -1.23254 -6.43808 0
M  V30 538 H 51.4005 0.418579 -5.98338 0
M  V30 539 H 53.0795 0.0766241 -6.46955 0
M  V30 540 N 53.2116 1.57565 -0.0334293 0
M  V30 541 C 54.4416 1.95996 0.653398 0
M  V30 542 C 54.8496 0.908749 1.65947 0
M  V30 543 O 54.1926 -0.117471 1.83324 0
M  V30 544 C 54.2546 3.30589 1.41249 0
M  V30 545 C 53.9186 4.53503 0.564263 0
M  V30 546 C 54.9156 5.19647 -0.16225 0
M  V30 547 C 52.6006 4.99801 0.500398 0
M  V30 548 C 54.5946 6.30412 -0.941255 0
M  V30 549 C 52.2816 6.10448 -0.282308 0
M  V30 550 C 53.2796 6.75612 -1.00184 0
M  V30 551 O 52.9676 7.84134 -1.77171 0
M  V30 552 H 52.6996 0.65027 0.184728 0
M  V30 553 H 55.2536 2.05199 -0.0907841 0
M  V30 554 H 53.4836 3.17888 2.20191 0
M  V30 555 H 55.1726 3.53892 1.98784 0
M  V30 556 H 55.9386 4.84846 -0.12227 0
M  V30 557 H 51.8176 4.48883 1.05002 0
M  V30 558 H 55.3616 6.81208 -1.50339 0
M  V30 559 H 51.2586 6.44686 -0.323989 0
M  V30 560 H 52.0266 8.00822 -1.69194 0
M  V30 561 N 54.6897 -0.239769 1.55765 0
M  V30 562 C 55.9387 -0.964754 1.77131 0
M  V30 563 C 56.2517 -1.86213 0.59868 0
M  V30 564 O 57.4577 -2.6244 0.695522 0
M  V30 565 C 55.9137 -1.76552 3.1362 0
M  V30 566 C 55.5217 -0.915185 4.38553 0
M  V30 567 C 57.2657 -2.48281 3.44321 0
M  V30 568 C 55.1727 -1.71225 5.66071 0
M  V30 569 H 54.1027 -0.363953 0.660344 0
M  V30 570 H 56.7537 -0.219181 1.82186 0
M  V30 571 H 55.1357 -2.55331 3.02691 0
M  V30 572 H 56.3097 -0.169217 4.60489 0
M  V30 573 H 54.6247 -0.310889 4.15238 0
M  V30 574 H 57.2217 -3.08382 4.36812 0
M  V30 575 H 57.5647 -3.20256 2.65973 0
M  V30 576 H 58.0977 -1.76507 3.56497 0
M  V30 577 H 54.8367 -1.03612 6.4726 0
M  V30 578 H 54.3567 -2.43331 5.48224 0
M  V30 579 H 56.0357 -2.27758 6.05587 0
M  V30 580 N 56.1678 -1.49265 -0.50573 0
M  V30 581 C 57.4448 -1.49012 -1.26707 0
M  V30 582 C 57.8248 -0.215205 -2.1 0
M  V30 583 O 57.1728 0.802547 -2.13943 0
M  V30 584 C 57.3828 -2.7663 -2.12783 0
M  V30 585 C 58.7308 -3.25932 -2.72127 0
M  V30 586 O 59.7548 -2.77715 -2.23054 0
M  V30 587 O 58.6138 -4.09897 -3.61451 0
M  V30 588 H 55.7078 -0.596197 -0.57313 0
M  V30 589 H 58.2538 -1.61524 -0.52039 0
M  V30 590 H 57.0258 -3.60916 -1.5118 0
M  V30 591 H 56.6488 -2.66956 -2.94653 0
M  V30 592 N 57.6459 0.756429 -1.3826 0
M  V30 593 C 58.5759 1.88374 -1.37976 0
M  V30 594 C 59.5569 1.68311 -0.246082 0
M  V30 595 O 60.7419 1.88944 -0.44874 0
M  V30 596 C 57.8719 3.25864 -1.20125 0
M  V30 597 C 56.8259 3.60523 -2.30666 0
M  V30 598 C 56.1519 4.9672 -1.97923 0
M  V30 599 C 57.4519 3.65692 -3.72916 0
M  V30 600 H 59.1459 1.88869 -2.32312 0
M  V30 601 H 56.6919 0.907272 -1.11824 0
M  V30 602 H 58.6449 4.0438 -1.18552 0
M  V30 603 H 57.3689 3.25841 -0.222498 0
M  V30 604 H 56.0279 2.84324 -2.3142 0
M  V30 605 H 55.6759 4.93253 -0.985393 0
M  V30 606 H 55.3759 5.20878 -2.71955 0
M  V30 607 H 56.8999 5.77618 -1.97964 0
M  V30 608 H 58.3139 4.34328 -3.74208 0
M  V30 609 H 56.7109 4.01358 -4.4613 0
M  V30 610 H 57.7809 2.65987 -4.05436 0
M  V30 611 N 59.124 1.23083 0.984299 0
M  V30 612 C 60.54 0.992637 1.24975 0
M  V30 613 C 60.74 -0.308618 1.99123 0
M  V30 614 O 59.796 -1.02905 2.30579 0
M  V30 615 C 61.109 2.19698 2.05312 0
M  V30 616 C 62.657 2.24147 2.18465 0
M  V30 617 C 63.132 3.44157 3.02192 0
M  V30 618 N 64.623 3.44372 3.09777 0
M  V30 619 C 65.358 4.33886 3.74874 0
M  V30 620 N 64.854 5.3363 4.41827 0
M  V30 621 N 66.647 4.21639 3.71721 0
M  V30 622 H 58.798 2.06731 0.487453 0
M  V30 623 H 61.061 0.906339 0.277944 0
M  V30 624 H 60.767 3.1411 1.58201 0
M  V30 625 H 60.641 2.20465 3.06064 0
M  V30 626 H 63.028 1.30277 2.64786 0
M  V30 627 H 63.109 2.27415 1.17115 0
M  V30 628 H 62.753 4.38332 2.56568 0
M  V30 629 H 62.683 3.3813 4.03702 0
M  V30 630 H 65.174 2.72201 2.62135 0
M  V30 631 H 65.487 5.98196 4.89266 0
M  V30 632 H 63.832 5.37534 4.40548 0
M  V30 633 H 67.023 3.42962 3.18582 0
M  V30 634 H 67.196 4.91604 4.22173 0
M  V30 635 N 60.6021 -1.18246 1.0419 0
M  V30 636 C 61.8501 -1.87886 0.744543 0
M  V30 637 C 62.1711 -1.8082 -0.730006 0
M  V30 638 O 61.4411 -1.22736 -1.52685 0
M  V30 639 H 60.0211 -0.695556 0.272417 0
M  V30 640 H 62.6831 -1.43494 1.31892 0
M  V30 641 H 61.7791 -2.9389 1.05049 0
M  V30 642 N 62.0802 -0.821533 -1.34494 0
M  V30 643 C 63.3292 -0.405355 -1.97585 0
M  V30 644 C 63.6422 1.03677 -1.65863 0
M  V30 645 O 64.8482 1.55679 -2.22433 0
M  V30 646 C 63.3042 -0.673861 -3.53535 0
M  V30 647 C 62.9122 -2.12951 -3.94152 0
M  V30 648 C 64.6562 -0.32378 -4.23263 0
M  V30 649 C 62.5632 -2.34298 -5.43009 0
M  V30 650 H 61.4932 -0.147836 -0.739365 0
M  V30 651 H 64.1442 -1.00769 -1.53355 0
M  V30 652 H 62.5262 -0.00137554 -3.96 0
M  V30 653 H 63.7002 -2.84104 -3.62797 0
M  V30 654 H 62.0152 -2.44089 -3.37356 0
M  V30 655 H 64.6122 -0.461126 -5.32708 0
M  V30 656 H 64.9552 0.731586 -4.09821 0
M  V30 657 H 65.4882 -0.950786 -3.8627 0
M  V30 658 H 62.2272 -3.38335 -5.61435 0
M  V30 659 H 61.7472 -1.67687 -5.75883 0
M  V30 660 H 63.4262 -2.16588 -6.09671 0
M  V30 661 N 63.5583 1.46682 -0.576371 0
M  V30 662 C 64.8043 2.02712 -0.0596221 0
M  V30 663 C 65.1373 1.44765 1.29448 0
M  V30 664 O 64.4123 0.610355 1.84675 0
M  V30 665 C 64.6953 3.60098 0.0129503 0
M  V30 666 C 64.5483 4.28441 -1.3696 0
M  V30 667 C 65.8673 4.34224 0.71678 0
M  V30 668 H 62.9863 0.736637 -0.0231407 0
M  V30 669 H 65.6283 1.74898 -0.742351 0
M  V30 670 H 63.7783 3.83926 0.594378 0
M  V30 671 H 65.4503 4.15896 -1.9957 0
M  V30 672 H 63.6933 3.8805 -1.93907 0
M  V30 673 H 64.3643 5.3716 -1.27135 0
M  V30 674 H 66.8403 4.15503 0.222908 0
M  V30 675 H 65.7163 5.43936 0.73657 0
M  V30 676 H 65.9773 4.04823 1.77682 0
M  V30 677 N 65.0364 0.313813 1.54444 0
M  V30 678 C 66.2614 -0.296681 2.05267 0
M  V30 679 C 66.6864 -1.45757 1.18897 0
M  V30 680 O 66.0444 -1.80239 0.195886 0
M  V30 681 C 66.0924 -0.71831 3.53373 0
M  V30 682 O 65.1964 -1.82175 3.69981 0
M  V30 683 H 64.5374 -0.0554061 0.661684 0
M  V30 684 H 67.0674 0.459387 1.99376 0
M  V30 685 H 67.0774 -1.00364 3.95463 0
M  V30 686 H 65.7524 0.130821 4.15694 0
M  V30 687 H 64.3294 -1.53598 3.39797 0
M  V30 688 N 66.5145 -1.57545 0.0417849 0
M  V30 689 C 67.9305 -1.56467 -0.314704 0
M  V30 690 C 68.1305 -1.04859 -1.72066 0
M  V30 691 O 67.1865 -0.700983 -2.42575 0
M  V30 692 C 68.4995 -3.00317 -0.15174 0
M  V30 693 C 70.0475 -3.12201 -0.223553 0
M  V30 694 C 70.5225 -4.57913 -0.0892295 0
M  V30 695 N 72.0135 -4.6297 -0.145808 0
M  V30 696 C 72.7485 -5.73362 -0.0658459 0
M  V30 697 N 72.2445 -6.92769 0.0659282 0
M  V30 698 N 74.0375 -5.6197 -0.12075 0
M  V30 699 H 66.1885 -1.89416 0.961014 0
M  V30 700 H 68.4515 -0.871862 0.372237 0
M  V30 701 H 68.1575 -3.42073 0.817254 0
M  V30 702 H 68.0315 -3.65892 -0.916692 0
M  V30 703 H 70.4185 -2.70349 -1.18301 0
M  V30 704 H 70.4995 -2.49323 0.571994 0
M  V30 705 H 70.1435 -5.00448 0.866867 0
M  V30 706 H 70.0735 -5.18786 -0.903802 0
M  V30 707 H 72.5645 -3.7709 -0.247286 0
M  V30 708 H 72.8775 -7.72707 0.119905 0
M  V30 709 H 71.2225 -6.94927 0.100885 0
M  V30 710 H 74.4135 -4.67572 -0.222187 0
M  V30 711 H 74.5865 -6.47977 -0.0549735 0
M  V30 712 N 67.9926 0.231505 -1.5589 0
M  V30 713 C 69.4036 0.799327 -1.68724 0
M  V30 714 C 69.7546 1.85398 -0.642022 0
M  V30 715 O 68.8796 2.1539 0.208784 0
M  V30 716 C 69.4746 1.45664 -3.05888 0
M  V30 717 C 68.0336 1.97197 -3.20609 0
M  V30 718 C 67.1806 0.828552 -2.64632 0
M  V30 719 H 70.1316 0.00702616 -1.58698 0
M  V30 720 H 70.1526 2.32517 -3.01191 0
M  V30 721 H 69.6646 0.688808 -3.81939 0
M  V30 722 H 67.7656 2.76813 -2.4941 0
M  V30 723 H 67.8786 2.15878 -4.27707 0
M  V30 724 H 66.2426 1.23321 -2.22854 0
M  V30 725 H 67.0256 0.0735544 -3.43221 0
M  V30 726 N 69.4707 1.49531 0.497807 0
M  V30 727 C 70.8867 1.36365 0.829266 0
M  V30 728 C 71.0867 0.399184 1.97506 0
M  V30 729 O 70.1427 -0.167977 2.51941 0
M  V30 730 C 71.4557 2.77153 1.16647 0
M  V30 731 C 73.0037 2.85877 1.27449 0
M  V30 732 C 73.4787 4.2744 1.64497 0
M  V30 733 N 74.9697 4.30265 1.7154 0
M  V30 734 C 75.7047 5.3677 2.01656 0
M  V30 735 N 75.2007 6.53516 2.29976 0
M  V30 736 N 76.9937 5.24189 2.02934 0
M  V30 737 H 69.1447 2.10831 -0.257703 0
M  V30 738 H 71.4077 0.946534 -0.0527091 0
M  V30 739 H 71.1137 3.49442 0.397872 0
M  V30 740 H 70.9877 3.12722 2.10915 0
M  V30 741 H 73.3747 2.13824 2.0338 0
M  V30 742 H 73.4557 2.53887 0.312244 0
M  V30 743 H 73.0997 5.00021 0.891151 0
M  V30 744 H 73.0297 4.56896 2.61827 0
M  V30 745 H 75.5207 3.4607 1.51802 0
M  V30 746 H 75.8337 7.30506 2.52153 0
M  V30 747 H 74.1787 6.56737 2.27425 0
M  V30 748 H 77.3697 4.31988 1.80289 0
M  V30 749 H 77.5427 6.07286 2.26071 0
M  V30 750 N 70.9488 -0.749086 1.3866 0
M  V30 751 C 71.8788 -1.8764 1.38973 0
M  V30 752 C 72.8598 -1.68178 0.255004 0
M  V30 753 O 74.0448 -1.88704 0.458754 0
M  V30 754 C 71.1748 -3.25222 1.21851 0
M  V30 755 C 70.1288 -3.59295 2.32575 0
M  V30 756 C 69.4548 -4.95663 2.00555 0
M  V30 757 C 70.7548 -3.63709 3.7485 0
M  V30 758 H 72.4488 -1.87635 2.3331 0
M  V30 759 H 69.9948 -0.901329 1.12303 0
M  V30 760 H 71.9478 -4.03746 1.20695 0
M  V30 761 H 70.6718 -3.25719 0.239775 0
M  V30 762 H 69.3308 -2.83093 2.32925 0
M  V30 763 H 68.9788 -4.92724 1.01154 0
M  V30 764 H 68.6788 -5.19429 2.74714 0
M  V30 765 H 70.2028 -5.7656 2.01024 0
M  V30 766 H 71.6168 -4.32338 3.76506 0
M  V30 767 H 70.0138 -3.98986 4.48252 0
M  V30 768 H 71.0838 -2.63834 4.06841 0
M  V30 769 N 72.4269 -1.23603 -0.977757 0
M  V30 770 C 73.3569 -1.04401 -2.0886 0
M  V30 771 C 74.3379 0.0399052 -1.70053 0
M  V30 772 O 75.5229 -0.125246 -1.93796 0
M  V30 773 C 72.6529 -0.637269 -3.41403 0
M  V30 774 C 71.6069 -1.66883 -3.94124 0
M  V30 775 C 70.9329 -1.11745 -5.22893 0
M  V30 776 C 72.2329 -3.06247 -4.23096 0
M  V30 777 H 73.9269 -1.97316 -2.25182 0
M  V30 778 H 71.4729 -0.950096 -1.08209 0
M  V30 779 H 73.4259 -0.48998 -4.18542 0
M  V30 780 H 72.1499 0.327557 -3.24953 0
M  V30 781 H 70.8089 -1.80416 -3.19133 0
M  V30 782 H 70.4569 -0.143527 -5.02795 0
M  V30 783 H 70.1569 -1.80672 -5.59134 0
M  V30 784 H 71.6809 -0.982067 -6.02651 0
M  V30 785 H 73.0949 -2.96001 -4.90975 0
M  V30 786 H 71.4919 -3.72436 -4.70544 0
M  V30 787 H 72.5619 -3.55041 -3.30263 0
M  V30 788 N 73.905 1.17692 -1.04816 0
M  V30 789 C 75.13 1.92327 -0.776207 0
M  V30 790 C 75.555 1.76082 0.661581 0
M  V30 791 O 74.913 1.076 1.45917 0
M  V30 792 C 74.961 3.41539 -1.15687 0
M  V30 793 O 74.065 4.11402 -0.286775 0
M  V30 794 H 73.406 0.599735 -0.284981 0
M  V30 795 H 75.936 1.49201 -1.4 0
M  V30 796 H 75.946 3.92269 -1.12202 0
M  V30 797 H 74.621 3.52684 -2.20425 0
M  V30 798 H 73.198 3.70939 -0.381903 0
M  V30 799 N 75.3831 0.828654 1.34056 0
M  V30 800 C 76.3151 0.212052 2.28217 0
M  V30 801 C 77.3281 -0.601362 1.51286 0
M  V30 802 O 78.5171 -0.430104 1.73241 0
M  V30 803 C 75.6171 -0.72088 3.31144 0
M  V30 804 C 74.7901 0.0509587 4.3737 0
M  V30 805 C 73.8491 -0.803766 5.20025 0
M  V30 806 O 72.8751 -0.246667 5.68665 0
M  V30 807 N 74.0771 -2.1227 5.40298 0
M  V30 808 H 76.8421 1.02105 2.81771 0
M  V30 809 H 74.4031 0.686153 1.46641 0
M  V30 810 H 76.3951 -1.29742 3.8334 0
M  V30 811 H 74.9651 -1.43061 2.77943 0
M  V30 812 H 74.1851 0.808831 3.85813 0
M  V30 813 H 75.4731 0.582065 5.0546 0
M  V30 814 H 74.8711 -2.59898 5.02464 0
M  V30 815 H 73.4281 -2.64796 5.95589 0
M  V30 816 N 76.8612 -1.46375 0.584142 0
M  V30 817 C 78.1072 -2.02678 0.0703716 0
M  V30 818 C 78.4402 -1.4545 -1.28678 0
M  V30 819 O 77.7152 -0.62014 -1.84349 0
M  V30 820 C 77.9982 -3.60099 0.00614674 0
M  V30 821 C 77.8512 -4.27709 1.3923 0
M  V30 822 C 79.1702 -4.34598 -0.693742 0
M  V30 823 H 76.2892 -0.736504 0.027047 0
M  V30 824 H 78.9312 -1.74501 0.751615 0
M  V30 825 H 77.0812 -3.84236 -0.574009 0
M  V30 826 H 78.7532 -4.14832 2.01773 0
M  V30 827 H 76.9962 -3.87016 1.95962 0
M  V30 828 H 77.6672 -5.36478 1.29982 0
M  V30 829 H 80.1432 -4.15615 -0.200869 0
M  V30 830 H 79.0192 -5.44318 -0.707714 0
M  V30 831 H 79.2802 -4.05759 -1.75533 0
M  V30 832 N 78.3393 -0.321999 -1.54275 0
M  V30 833 C 79.3023 0.531975 -2.22941 0
M  V30 834 C 80.3023 1.04478 -1.22234 0
M  V30 835 O 81.4923 0.937452 -1.46825 0
M  V30 836 C 78.6243 1.73874 -2.93224 0
M  V30 837 H 79.8173 -0.0682612 -2.99822 0
M  V30 838 H 77.3703 -0.0730644 -1.56129 0
M  V30 839 H 78.1053 2.37825 -2.20476 0
M  V30 840 H 77.8903 1.37847 -3.6707 0
M  V30 841 H 79.3803 2.34496 -3.45545 0
M  V30 842 N 79.8174 1.5752 -0.0501392 0
M  V30 843 C 81.0944 1.83996 0.663685 0
M  V30 844 C 81.4744 0.938339 1.89099 0
M  V30 845 O 80.8224 -0.00087759 2.285 0
M  V30 846 C 81.0324 3.33702 1.02196 0
M  V30 847 C 82.3804 4.00691 1.40469 0
M  V30 848 O 83.4044 3.38321 1.11433 0
M  V30 849 O 82.2634 5.10658 1.94654 0
M  V30 850 H 79.3574 0.759385 0.32751 0
M  V30 851 H 81.9034 1.69514 -0.0794238 0
M  V30 852 H 80.6754 3.91015 0.149364 0
M  V30 853 H 80.2984 3.53368 1.82255 0
M  V30 854 N 81.2955 -0.223234 1.56011 0
M  V30 855 C 82.5445 -0.945912 1.78144 0
M  V30 856 C 82.8575 -1.85567 0.618396 0
M  V30 857 O 84.0635 -2.61688 0.723318 0
M  V30 858 C 82.5195 -1.73216 3.15475 0
M  V30 859 C 82.1275 -0.868619 4.39499 0
M  V30 860 C 83.8715 -2.44615 3.46935 0
M  V30 861 C 81.7785 -1.65212 5.67855 0
M  V30 862 H 80.7085 -0.356929 0.664167 0
M  V30 863 H 83.3595 -0.199845 1.82409 0
M  V30 864 H 81.7415 -2.52107 3.05382 0
M  V30 865 H 82.9155 -0.120366 4.60643 0
M  V30 866 H 81.2305 -0.26683 4.15544 0
M  V30 867 H 83.8275 -3.03732 4.40058 0
M  V30 868 H 84.1705 -3.17417 2.69355 0
M  V30 869 H 84.7035 -1.72715 3.58349 0
M  V30 870 H 81.4425 -0.967407 6.48322 0
M  V30 871 H 80.9625 -2.37503 5.50774 0
M  V30 872 H 82.6415 -2.21322 6.07968 0
M  V30 873 N 82.7736 -1.49793 -0.48987 0
M  V30 874 C 83.7036 -1.70201 -1.59856 0
M  V30 875 C 84.6846 -0.55076 -1.60937 0
M  V30 876 O 85.8696 -0.787841 -1.77501 0
M  V30 877 C 82.9996 -1.77882 -2.98287 0
M  V30 878 C 81.9536 -2.92907 -3.12073 0
M  V30 879 C 81.2796 -2.85712 -4.51965 0
M  V30 880 C 82.5796 -4.3369 -2.91051 0
M  V30 881 H 84.2736 -2.63025 -1.43032 0
M  V30 882 H 81.8196 -1.26574 -0.686664 0
M  V30 883 H 83.7726 -1.90744 -3.75759 0
M  V30 884 H 82.4966 -0.816653 -3.16225 0
M  V30 885 H 81.1556 -2.79665 -2.37029 0
M  V30 886 H 80.8036 -1.8738 -4.66795 0
M  V30 887 H 80.5036 -3.62921 -4.62128 0
M  V30 888 H 82.0276 -3.00598 -5.31482 0
M  V30 889 H 83.4416 -4.47555 -3.58284 0
M  V30 890 H 81.8386 -5.12205 -3.12675 0
M  V30 891 H 82.9086 -4.47362 -1.87071 0
M  V30 892 N 84.2517 0.741722 -1.39055 0
M  V30 893 C 85.4987 1.50114 -1.35912 0
M  V30 894 C 85.8267 1.94443 0.0470937 0
M  V30 895 O 85.0817 1.66612 1.02659 0
M  V30 896 C 85.3807 2.7592 -2.27163 0
M  V30 897 C 85.0467 2.50493 -3.74919 0
M  V30 898 C 83.7087 2.43267 -4.1518 0
M  V30 899 C 86.0607 2.28585 -4.684 0
M  V30 900 C 83.3887 2.12166 -5.46994 0
M  V30 901 C 85.7407 1.99002 -6.00484 0
M  V30 902 C 84.4047 1.90241 -6.39816 0
M  V30 903 H 83.6747 0.549306 -0.497336 0
M  V30 904 H 86.3217 0.851896 -1.71508 0
M  V30 905 H 84.6267 3.45553 -1.84663 0
M  V30 906 H 86.3237 3.33923 -2.22028 0
M  V30 907 H 82.9137 2.56992 -3.43006 0
M  V30 908 H 87.0977 2.33139 -4.38132 0
M  V30 909 H 82.3537 2.03901 -5.76398 0
M  V30 910 H 86.5277 1.81057 -6.72452 0
M  V30 911 H 84.1547 1.65907 -7.41875 0
M  V30 912 N 85.7298 1.2412 0.971189 0
M  V30 913 C 86.6618 0.988349 2.06795 0
M  V30 914 C 87.6748 -0.0409541 1.62748 0
M  V30 915 O 88.8638 0.195673 1.77424 0
M  V30 916 C 85.9638 0.469023 3.35639 0
M  V30 917 C 85.1368 1.56065 4.08611 0
M  V30 918 C 84.1958 1.04458 5.15728 0
M  V30 919 O 83.2218 1.73553 5.42096 0
M  V30 920 N 84.4238 -0.122817 5.8037 0
M  V30 921 H 87.1888 1.93265 2.29061 0
M  V30 922 H 84.7498 1.15102 1.13856 0
M  V30 923 H 86.7418 0.108613 4.04554 0
M  V30 924 H 85.3118 -0.380919 3.1027 0
M  V30 925 H 84.5318 2.09341 3.34021 0
M  V30 926 H 85.8198 2.29449 4.54126 0
M  V30 927 H 85.2178 -0.700563 5.61345 0
M  V30 928 H 83.7748 -0.424404 6.50417 0
M  V30 929 N 87.2079 -1.17134 1.05439 0
M  V30 930 C 88.4359 -1.91372 0.786414 0
M  V30 931 C 88.8509 -1.76955 -0.658202 0
M  V30 932 O 88.2079 -1.10838 -1.44987 0
M  V30 933 C 88.2589 -3.42356 1.1608 0
M  V30 934 O 87.9799 -3.56332 2.54871 0
M  V30 935 C 89.4809 -4.33663 0.919322 0
M  V30 936 H 86.7009 -0.607118 0.285743 0
M  V30 937 H 89.2449 -1.48525 1.40572 0
M  V30 938 H 87.3999 -3.82939 0.586191 0
M  V30 939 H 87.8139 -4.49896 2.69618 0
M  V30 940 H 89.2879 -5.38099 1.231 0
M  V30 941 H 89.7649 -4.38959 -0.145359 0
M  V30 942 H 90.3709 -3.98796 1.47789 0
M  V30 943 N 88.686 -0.835752 -1.33615 0
M  V30 944 C 89.649 -0.272 -2.2758 0
M  V30 945 C 90.649 0.557487 -1.50827 0
M  V30 946 O 91.839 0.37173 -1.70188 0
M  V30 947 C 88.971 0.617173 -3.35267 0
M  V30 948 H 90.164 -1.10111 -2.78954 0
M  V30 949 H 87.717 -0.608594 -1.43965 0
M  V30 950 H 88.452 1.46884 -2.89129 0
M  V30 951 H 88.237 0.0237066 -3.92093 0
M  V30 952 H 89.727 1.005 -4.05326 0
M  V30 953 N 90.1641 1.46063 -0.591896 0
M  V30 954 C 91.0961 2.28539 0.174001 0
M  V30 955 C 92.1091 1.39047 0.846753 0
M  V30 956 O 93.2981 1.63564 0.714774 0
M  V30 957 C 90.3981 3.14347 1.26645 0
M  V30 958 C 89.5711 4.32021 0.683856 0
M  V30 959 C 88.6301 4.99157 1.66518 0
M  V30 960 O 87.6561 5.56458 1.19763 0
M  V30 961 N 88.8581 4.97005 2.99943 0
M  V30 962 H 91.6231 2.94911 -0.533633 0
M  V30 963 H 89.1841 1.56077 -0.430294 0
M  V30 964 H 91.1761 3.56125 1.92242 0
M  V30 965 H 89.7461 2.49988 1.87682 0
M  V30 966 H 88.9661 3.93915 -0.1498 0
M  V30 967 H 90.2541 5.08059 0.274567 0
M  V30 968 H 89.6521 4.51714 3.40545 0
M  V30 969 H 88.2091 5.42696 3.61004 0
M  V30 970 N 91.6422 0.330177 1.54103 0
M  V30 971 C 92.5902 -0.548226 2.26047 0
M  V30 972 C 93.5842 -1.11309 1.27698 0
M  V30 973 O 94.7902 -1.06036 1.45452 0
M  V30 974 H 91.1652 -0.195456 0.726155 0
M  V30 975 H 93.1362 0.0807567 2.98291 0
M  V30 976 C 91.8852 -1.69415 3.03634 0
M  V30 977 H 91.2082 -1.26876 3.79134 0
M  V30 978 H 92.6482 -2.28423 3.5721 0
M  V30 979 C 91.1072 -2.61569 2.12328 0
M  V30 980 O 91.6372 -3.63462 1.7105 0
M  V30 981 N 89.8432 -2.29952 1.77681 0
M  V30 982 H 89.3902 -1.47134 2.11446 0
M  V30 983 H 89.3482 -2.91871 1.16869 0
M  V30 984 N 93.1203 -1.57491 0.0584922 0
M  V30 985 C 94.0833 -2.1085 -0.898617 0
M  V30 986 C 95.0833 -1.02964 -1.23511 0
M  V30 987 O 96.2733 -1.29007 -1.17059 0
M  V30 988 C 93.4053 -2.59881 -2.20623 0
M  V30 989 H 94.5983 -2.96715 -0.435936 0
M  V30 990 H 92.1513 -1.55141 -0.190023 0
M  V30 991 H 92.8863 -1.77431 -2.71457 0
M  V30 992 H 92.6713 -3.38727 -1.97501 0
M  V30 993 H 94.1613 -3.01285 -2.89166 0
M  V30 994 N 94.5984 0.214957 -1.56127 0
M  V30 995 C 95.8464 0.936518 -1.79091 0
M  V30 996 C 96.1674 1.84606 -0.628148 0
M  V30 997 O 95.4374 1.92664 0.35462 0
M  V30 998 H 94.0174 0.3488 -0.660566 0
M  V30 999 H 96.6794 0.22523 -1.93594 0
M  V30 1000 H 95.7754 1.53943 -2.71492 0
M  V30 1001 N 96.0765 1.50051 0.48192 0
M  V30 1002 C 97.3255 1.59741 1.23149 0
M  V30 1003 C 97.6385 0.298163 1.93314 0
M  V30 1004 O 98.8445 0.273835 2.70116 0
M  V30 1005 C 97.3005 2.81926 2.23708 0
M  V30 1006 C 96.9085 4.18685 1.59396 0
M  V30 1007 C 98.6525 3.00956 2.99375 0
M  V30 1008 C 96.5595 5.3207 2.58178 0
M  V30 1009 H 95.4895 0.594838 0.46334 0
M  V30 1010 H 98.1405 1.76467 0.503169 0
M  V30 1011 H 96.5225 2.58736 2.99786 0
M  V30 1012 H 97.6965 4.52088 0.891811 0
M  V30 1013 H 96.0115 4.05171 0.960503 0
M  V30 1014 H 98.6085 3.82836 3.73283 0
M  V30 1015 H 98.9515 2.12258 3.58123 0
M  V30 1016 H 99.4845 3.24277 2.30411 0
M  V30 1017 H 96.2235 6.22888 2.04184 0
M  V30 1018 H 95.7435 5.03098 3.26577 0
M  V30 1019 H 97.4225 5.62196 3.20225 0
M  V30 1020 N 97.5546 -0.734337 1.39446 0
M  V30 1021 C 98.7796 -1.52866 1.40167 0
M  V30 1022 C 99.2046 -1.881 -0.00171513 0
M  V30 1023 O 98.5626 -1.51957 -0.988879 0
M  V30 1024 C 98.6106 -2.79235 2.28167 0
M  V30 1025 O 97.7146 -3.75185 1.71201 0
M  V30 1026 H 97.0556 -0.461618 0.477289 0
M  V30 1027 H 99.5856 -0.905949 1.8345 0
M  V30 1028 H 99.5956 -3.27963 2.42702 0
M  V30 1029 H 98.2706 -2.52923 3.30156 0
M  V30 1030 H 96.8476 -3.33958 1.65912 0
M  V30 1031 N 99.0327 -1.24633 -0.964593 0
M  V30 1032 C 100.28 -1.08788 -1.70796 0
M  V30 1033 C 100.608 0.372783 -1.90894 0
M  V30 1034 O 99.8627 1.29167 -1.47018 0
M  V30 1035 C 100.162 -1.7763 -3.10133 0
M  V30 1036 C 99.8277 -3.27557 -3.09866 0
M  V30 1037 C 98.4897 -3.6846 -3.09501 0
M  V30 1038 C 100.842 -4.23389 -3.03959 0
M  V30 1039 C 98.1697 -5.03624 -3.00965 0
M  V30 1040 C 100.522 -5.58565 -2.96965 0
M  V30 1041 C 99.1857 -5.98809 -2.9493 0
M  V30 1042 H 98.4557 -0.398084 -0.624988 0
M  V30 1043 H 101.103 -1.54777 -1.12767 0
M  V30 1044 H 99.4077 -1.24044 -3.71645 0
M  V30 1045 H 101.105 -1.62832 -3.66451 0
M  V30 1046 H 97.6947 -2.95006 -3.10917 0
M  V30 1047 H 101.879 -3.92787 -3.03368 0
M  V30 1048 H 97.1347 -5.33998 -2.97752 0
M  V30 1049 H 101.309 -6.32523 -2.91354 0
M  V30 1050 H 98.9357 -7.03505 -2.88071 0
M  V30 1051 N 100.511 1.16574 -1.06058 0
M  V30 1052 C 101.788 1.83048 -0.689416 0
M  V30 1053 C 102.168 1.94122 0.829443 0
M  V30 1054 O 101.516 1.48249 1.7388 0
M  V30 1055 C 101.726 3.20186 -1.38859 0
M  V30 1056 C 103.074 3.95989 -1.53226 0
M  V30 1057 O 104.098 3.29696 -1.3483 0
M  V30 1058 O 102.957 5.14813 -1.83384 0
M  V30 1059 H 100.051 0.790258 -0.243764 0
M  V30 1060 H 102.597 1.23797 -1.16071 0
M  V30 1061 H 101.369 3.07146 -2.4244 0
M  V30 1062 H 100.992 3.87112 -0.907216 0
M  V30 1063 N 101.989 0.842826 1.3317 0
M  V30 1064 C 103.217 0.454055 2.01856 0
M  V30 1065 C 103.632 -0.94587 1.63397 0
M  V30 1066 O 102.989 -1.61534 0.849302 0
M  V30 1067 C 103.04 0.569715 3.56982 0
M  V30 1068 O 102.761 1.91448 3.94055 0
M  V30 1069 C 104.262 0.178412 4.42941 0
M  V30 1070 H 101.482 0.17979 0.646465 0
M  V30 1071 H 104.026 1.1365 1.70012 0
M  V30 1072 H 102.181 -0.0648587 3.87346 0
M  V30 1073 H 102.595 1.90282 4.88767 0
M  V30 1074 H 104.069 0.310376 5.51127 0
M  V30 1075 H 104.546 -0.880056 4.30293 0
M  V30 1076 H 105.152 0.787579 4.17944 0
M  V30 1077 N 103.467 -1.45747 0.599634 0
M  V30 1078 C 104.713 -2.02592 0.0918643 0
M  V30 1079 C 105.046 -1.46806 -1.27128 0
M  V30 1080 O 104.321 -0.639658 -1.83681 0
M  V30 1081 C 104.604 -3.60073 0.0443398 0
M  V30 1082 C 104.457 -4.26208 1.43759 0
M  V30 1083 C 105.776 -4.35309 -0.647608 0
M  V30 1084 H 102.895 -0.736175 0.034857 0
M  V30 1085 H 105.537 -1.73694 0.770081 0
M  V30 1086 H 103.687 -3.84823 -0.533224 0
M  V30 1087 H 105.359 -4.12668 2.06162 0
M  V30 1088 H 103.602 -3.84916 2.00056 0
M  V30 1089 H 104.273 -5.35069 1.35665 0
M  V30 1090 H 106.749 -4.15805 -0.156776 0
M  V30 1091 H 105.625 -5.45038 -0.649942 0
M  V30 1092 H 105.886 -4.07598 -1.71219 0
M  V30 1093 N 104.945 -0.338344 -1.53925 0
M  V30 1094 C 106.185 0.260168 -2.02737 0
M  V30 1095 C 106.549 1.48181 -1.22092 0
M  V30 1096 O 107.75 2.15416 -1.60777 0
M  V30 1097 C 106.021 0.571627 -3.52799 0
M  V30 1098 S 107.58 1.14769 -4.23525 0
M  V30 1099 H 104.398 0.077791 -0.706732 0
M  V30 1100 H 107 -0.474899 -1.89644 0
M  V30 1101 H 105.704 -0.325392 -4.09108 0
M  V30 1102 H 105.235 1.3365 -3.70002 0
M  V30 1103 H 107.25 2.43372 -4.32417 0
M  V30 1104 N 106.423 1.57458 -0.0668435 0
M  V30 1105 C 107.671 1.92919 0.602214 0
M  V30 1106 C 107.992 0.947215 1.70449 0
M  V30 1107 O 107.262 -0.00544117 1.95899 0
M  V30 1108 H 105.842 0.71217 0.22544 0
M  V30 1109 H 108.504 1.94508 -0.123535 0
M  V30 1110 H 107.6 2.94589 1.03073 0
M  V30 1111 N 107.901 -0.206675 1.56239 0
M  V30 1112 C 109.147 -0.930218 1.80208 0
M  V30 1113 C 109.48 -1.83387 0.638981 0
M  V30 1114 O 108.755 -1.91119 -0.361066 0
M  V30 1115 C 109.038 -1.75641 3.1436 0
M  V30 1116 C 108.891 -0.878257 4.41142 0
M  V30 1117 C 110.21 -2.73129 3.45092 0
M  V30 1118 H 107.329 -0.336742 0.655571 0
M  V30 1119 H 109.971 -0.198222 1.88963 0
M  V30 1120 H 108.121 -2.38048 3.07027 0
M  V30 1121 H 109.793 -0.269787 4.6051 0
M  V30 1122 H 108.036 -0.184385 4.33408 0
M  V30 1123 H 108.707 -1.49106 5.3148 0
M  V30 1124 H 111.183 -2.20856 3.52649 0
M  V30 1125 H 110.059 -3.28028 4.40101 0
M  V30 1126 H 110.32 -3.51606 2.68003 0
M  V30 1127 N 109.379 -1.50304 -0.473955 0
M  V30 1128 C 110.79 -1.54042 -1.0549 0
M  V30 1129 C 111.141 -0.342248 -1.93192 0
M  V30 1130 O 110.266 0.545157 -2.09421 0
M  V30 1131 C 110.861 -2.79152 -1.91989 0
M  V30 1132 C 109.42 -2.8558 -2.45196 0
M  V30 1133 C 108.567 -2.48295 -1.2347 0
M  V30 1134 H 111.518 -1.5661 -0.256693 0
M  V30 1135 H 111.539 -2.60845 -2.7702 0
M  V30 1136 H 111.051 -3.66339 -1.28131 0
M  V30 1137 H 109.152 -2.02738 -3.12615 0
M  V30 1138 H 109.265 -3.88403 -2.80499 0
M  V30 1139 H 107.629 -2.00669 -1.56856 0
M  V30 1140 H 108.412 -3.37787 -0.612789 0
M  V30 1141 N 110.857 0.726932 -1.39834 0
M  V30 1142 C 112.087 1.51393 -1.40583 0
M  V30 1143 C 112.495 1.892 -0.000740625 0
M  V30 1144 O 111.838 1.55189 0.982951 0
M  V30 1145 C 111.9 2.82588 -2.22226 0
M  V30 1146 C 111.564 2.67169 -3.70769 0
M  V30 1147 C 112.561 2.3518 -4.63666 0
M  V30 1148 C 110.246 2.83788 -4.14451 0
M  V30 1149 C 112.24 2.20002 -5.98229 0
M  V30 1150 C 109.927 2.68229 -5.49087 0
M  V30 1151 C 110.925 2.36382 -6.4079 0
M  V30 1152 O 110.613 2.2093 -7.72946 0
M  V30 1153 H 110.345 0.474168 -0.48181 0
M  V30 1154 H 112.899 0.905247 -1.84376 0
M  V30 1155 H 111.129 3.45746 -1.73195 0
M  V30 1156 H 112.818 3.44247 -2.15055 0
M  V30 1157 H 113.584 2.21984 -4.31217 0
M  V30 1158 H 109.463 3.07566 -3.43401 0
M  V30 1159 H 113.007 1.95067 -6.69772 0
M  V30 1160 H 108.904 2.81006 -5.81125 0
M  V30 1161 H 109.672 2.35937 -7.83757 0
M  V30 1162 N 112.336 1.25143 0.95797 0
M  V30 1163 C 113.564 1.12424 1.73691 0
M  V30 1164 C 113.979 -0.322304 1.86029 0
M  V30 1165 O 113.336 -1.22186 1.35561 0
M  V30 1166 C 113.387 1.76933 3.15241 0
M  V30 1167 O 113.108 3.15932 3.03511 0
M  V30 1168 C 114.609 1.6995 4.09429 0
M  V30 1169 H 111.829 0.3923 0.544373 0
M  V30 1170 H 114.373 1.6544 1.20207 0
M  V30 1171 H 112.528 1.27895 3.6568 0
M  V30 1172 H 112.942 3.47598 3.9278 0
M  V30 1173 H 114.416 2.19753 5.06372 0
M  V30 1174 H 114.893 0.662619 4.34173 0
M  V30 1175 H 115.499 2.18461 3.64904 0
M  V30 1176 N 113.814 -1.1601 1.06675 0
M  V30 1177 C 114.777 -2.18724 0.685001 0
M  V30 1178 C 115.777 -1.58496 -0.271246 0
M  V30 1179 O 116.967 -1.74119 -0.0531156 0
M  V30 1180 C 114.099 -3.40899 0.00853648 0
M  V30 1181 H 115.292 -2.54011 1.59431 0
M  V30 1182 H 112.845 -1.30352 0.862441 0
M  V30 1183 H 113.58 -3.11173 -0.913337 0
M  V30 1184 H 113.365 -3.8587 0.696204 0
M  V30 1185 H 114.855 -4.16886 -0.24414 0
M  V30 1186 N 115.292 -0.849877 -1.32721 0
M  V30 1187 C 116.222 -0.306308 -2.31482 0
M  V30 1188 C 117.203 0.591952 -1.59468 0
M  V30 1189 O 118.388 0.513199 -1.87296 0
M  V30 1190 C 115.518 0.510204 -3.43532 0
M  V30 1191 C 114.472 -0.293209 -4.26994 0
M  V30 1192 C 113.798 0.647743 -5.30762 0
M  V30 1193 C 115.098 -1.51634 -4.99804 0
M  V30 1194 H 116.792 -1.13153 -2.77195 0
M  V30 1195 H 114.338 -0.545553 -1.33266 0
M  V30 1196 H 116.291 0.900856 -4.11658 0
M  V30 1197 H 115.015 1.36874 -2.96535 0
M  V30 1198 H 113.674 -0.665555 -3.60508 0
M  V30 1199 H 113.322 1.50299 -4.8002 0
M  V30 1200 H 113.022 0.11422 -5.87489 0
M  V30 1201 H 114.546 1.03567 -6.01753 0
M  V30 1202 H 115.96 -1.19824 -5.60638 0
M  V30 1203 H 114.357 -1.98745 -5.66234 0
M  V30 1204 H 115.427 -2.28018 -4.27943 0
M  V30 1205 N 116.77 1.45427 -0.607355 0
M  V30 1206 C 118.181 1.85756 -0.187535 0
M  V30 1207 C 118.532 1.5077 1.25551 0
M  V30 1208 O 117.657 0.93427 1.95193 0
M  V30 1209 C 118.252 3.37154 -0.333572 0
M  V30 1210 C 116.811 3.76387 0.0315542 0
M  V30 1211 C 115.958 2.69377 -0.658117 0
M  V30 1212 H 118.909 1.36231 -0.81405 0
M  V30 1213 H 118.93 3.78014 0.43428 0
M  V30 1214 H 118.442 3.62586 -1.38393 0
M  V30 1215 H 116.543 3.56571 1.0811 0
M  V30 1216 H 116.656 4.77731 -0.361935 0
M  V30 1217 H 115.02 2.5452 -0.0957873 0
M  V30 1218 H 115.803 2.97646 -1.7106 0
M  V30 1219 N 118.248 0.346503 1.53744 0
M  V30 1220 C 119.178 -0.501193 2.28058 0
M  V30 1221 C 120.159 -1.10014 1.29734 0
M  V30 1222 O 121.344 -1.12097 1.58581 0
M  V30 1223 C 118.474 -1.65078 3.05559 0
M  V30 1224 C 117.428 -1.18003 4.11411 0
M  V30 1225 C 116.754 -2.41837 4.76884 0
M  V30 1226 C 118.054 -0.278394 5.21558 0
M  V30 1227 H 119.748 0.11875 2.99164 0
M  V30 1228 H 117.294 0.0585531 1.43881 0
M  V30 1229 H 119.247 -2.25028 3.56287 0
M  V30 1230 H 117.971 -2.29767 2.32109 0
M  V30 1231 H 116.63 -0.603331 3.61601 0
M  V30 1232 H 116.278 -3.0494 4.00026 0
M  V30 1233 H 115.978 -2.1102 5.48402 0
M  V30 1234 H 117.502 -3.02508 5.30397 0
M  V30 1235 H 118.916 -0.784823 5.67903 0
M  V30 1236 H 117.313 -0.0619707 6.00068 0
M  V30 1237 H 118.383 0.684677 4.80042 0
M  V30 1238 N 119.726 -1.57421 0.075193 0
M  V30 1239 C 120.689 -2.11791 -0.876203 0
M  V30 1240 C 121.689 -1.04268 -1.22412 0
M  V30 1241 O 122.879 -1.30242 -1.15684 0
M  V30 1242 C 120.011 -2.62207 -2.17854 0
M  V30 1243 H 121.204 -2.9716 -0.40444 0
M  V30 1244 H 118.757 -1.55333 -0.173557 0
M  V30 1245 H 119.492 -1.803 -2.6956 0
M  V30 1246 H 119.277 -3.40802 -1.93897 0
M  V30 1247 H 120.767 -3.04335 -2.85955 0
M  V30 1248 N 121.204 0.198386 -1.56346 0
M  V30 1249 C 122.432 0.935572 -1.84539 0
M  V30 1250 C 122.847 1.76989 -0.657281 0
M  V30 1251 O 122.204 1.78626 0.374043 0
M  V30 1252 C 122.255 1.8344 -3.11499 0
M  V30 1253 O 121.976 1.03377 -4.25728 0
M  V30 1254 C 123.477 2.68355 -3.52846 0
M  V30 1255 H 120.697 0.273126 -0.612897 0
M  V30 1256 H 123.241 0.20663 -2.03453 0
M  V30 1257 H 121.396 2.51701 -2.94492 0
M  V30 1258 H 121.81 1.64599 -4.98003 0
M  V30 1259 H 123.284 3.27085 -4.44657 0
M  V30 1260 H 123.761 3.41901 -2.75681 0
M  V30 1261 H 124.367 2.05471 -3.72373 0
M  V30 1262 N 122.682 1.50554 0.465978 0
M  V30 1263 C 123.928 1.62038 1.21949 0
M  V30 1264 C 124.261 0.322116 1.9151 0
M  V30 1265 O 123.536 -0.676723 1.82348 0
M  V30 1266 C 123.819 2.80421 2.25912 0
M  V30 1267 C 123.672 4.20144 1.60622 0
M  V30 1268 C 124.991 2.94354 3.27176 0
M  V30 1269 H 122.11 0.589752 0.441998 0
M  V30 1270 H 124.752 1.82956 0.51257 0
M  V30 1271 H 122.902 2.62717 2.86203 0
M  V30 1272 H 124.574 4.49449 1.03889 0
M  V30 1273 H 122.817 4.24165 0.909211 0
M  V30 1274 H 123.488 4.98914 2.36196 0
M  V30 1275 H 125.964 3.10578 2.76913 0
M  V30 1276 H 124.84 3.788 3.97242 0
M  V30 1277 H 125.101 2.05186 3.916 0
M  V30 1278 N 124.16 -0.719506 1.40217 0
M  V30 1279 C 125.409 -1.47486 1.37589 0
M  V30 1280 C 125.722 -1.9559 -0.0201568 0
M  V30 1281 O 126.928 -2.70973 -0.169049 0
M  V30 1282 C 125.384 -2.66575 2.41796 0
M  V30 1283 C 124.992 -2.25358 3.87192 0
M  V30 1284 C 126.736 -3.4433 2.48269 0
M  V30 1285 C 124.643 -3.41262 4.83005 0
M  V30 1286 H 123.573 -0.553901 0.511576 0
M  V30 1287 H 126.224 -0.783427 1.65936 0
M  V30 1288 H 124.606 -3.3787 2.06543 0
M  V30 1289 H 125.78 -1.61509 4.31569 0
M  V30 1290 H 124.095 -1.60657 3.84159 0
M  V30 1291 H 126.692 -4.30569 3.17041 0
M  V30 1292 H 127.035 -3.87872 1.51198 0
M  V30 1293 H 127.568 -2.80076 2.82493 0
M  V30 1294 H 124.307 -3.02755 5.81394 0
M  V30 1295 H 123.827 -4.0404 4.43297 0
M  V30 1296 H 125.506 -4.07383 5.02641 0
M  V30 1297 N 125.638 -1.25649 -0.95132 0
M  V30 1298 C 126.878 -1.11802 -1.71113 0
M  V30 1299 C 127.242 0.334758 -1.89059 0
M  V30 1300 O 128.443 0.595121 -2.62129 0
M  V30 1301 C 126.714 -1.85512 -3.05483 0
M  V30 1302 S 128.273 -1.87597 -3.96677 0
M  V30 1303 H 125.091 -0.399552 -0.588115 0
M  V30 1304 H 127.693 -1.59222 -1.1344 0
M  V30 1305 H 126.397 -2.90299 -2.90094 0
M  V30 1306 H 125.928 -1.38493 -3.68216 0
M  V30 1307 H 127.943 -0.955389 -4.86916 0
M  V30 1308 N 127.117 1.15442 -1.07289 0
M  V30 1309 C 128.342 1.90638 -0.816828 0
M  V30 1310 C 128.767 1.77445 0.624083 0
M  V30 1311 O 128.125 1.10671 1.43602 0
M  V30 1312 C 128.173 3.39008 -1.22906 0
M  V30 1313 O 127.277 4.10701 -0.373975 0
M  V30 1314 H 126.618 0.593555 -0.297638 0
M  V30 1315 H 129.148 1.46198 -1.43134 0
M  V30 1316 H 129.158 3.89801 -1.20497 0
M  V30 1317 H 127.833 3.47929 -2.27856 0
M  V30 1318 H 126.41 3.70046 -0.460499 0
M  V30 1319 N 128.595 0.856903 1.32268 0
M  V30 1320 C 129.823 0.475439 2.01363 0
M  V30 1321 C 130.238 -0.928486 1.64392 0
M  V30 1322 O 129.595 -1.60624 0.866387 0
M  V30 1323 C 129.646 0.607545 3.56358 0
M  V30 1324 O 129.367 1.95617 3.92002 0
M  V30 1325 C 130.868 0.225382 4.42727 0
M  V30 1326 H 128.088 0.186636 0.644521 0
M  V30 1327 H 130.632 1.15446 1.68797 0
M  V30 1328 H 128.787 -0.0237719 3.87393 0
M  V30 1329 H 129.201 1.95455 4.86721 0
M  V30 1330 H 130.675 0.368813 5.50767 0
M  V30 1331 H 131.152 -0.834369 4.31202 0
M  V30 1332 H 131.758 0.831864 4.17085 0
M  V30 1333 N 130.073 -1.45103 0.615059 0
M  V30 1334 C 131.021 -2.32331 -0.111791 0
M  V30 1335 C 132.015 -1.46409 -0.852102 0
M  V30 1336 O 133.221 -1.62849 -0.766821 0
M  V30 1337 H 129.596 -0.749993 -0.0549072 0
M  V30 1338 H 131.567 -2.91407 0.642225 0
M  V30 1339 C 130.316 -3.3015 -1.09071 0
M  V30 1340 H 129.639 -3.96265 -0.530485 0
M  V30 1341 H 131.079 -3.93898 -1.56908 0
M  V30 1342 C 129.538 -2.57875 -2.168 0
M  V30 1343 O 130.068 -2.36567 -3.24652 0
M  V30 1344 N 128.274 -2.17884 -1.92289 0
M  V30 1345 H 127.821 -2.35413 -1.04587 0
M  V30 1346 H 127.779 -1.6985 -2.64572 0
M  V30 1347 N 131.551 -0.354651 -1.53558 0
M  V30 1348 C 132.483 0.5315 -2.22952 0
M  V30 1349 C 133.496 1.05503 -1.23988 0
M  V30 1350 O 134.685 0.963279 -1.50277 0
M  V30 1351 C 131.785 1.74538 -2.90499 0
M  V30 1352 C 130.958 1.35524 -4.15875 0
M  V30 1353 C 130.017 2.42999 -4.66731 0
M  V30 1354 O 129.043 2.05844 -5.30676 0
M  V30 1355 N 130.245 3.74423 -4.43608 0
M  V30 1356 H 133.01 -0.0628615 -2.99634 0
M  V30 1357 H 130.571 -0.179302 -1.60904 0
M  V30 1358 H 132.563 2.45892 -3.21433 0
M  V30 1359 H 131.133 2.24686 -2.17336 0
M  V30 1360 H 130.353 0.471998 -3.91364 0
M  V30 1361 H 131.641 1.07071 -4.97406 0
M  V30 1362 H 131.039 4.07391 -3.92491 0
M  V30 1363 H 129.596 4.41913 -4.7912 0
M  V30 1364 N 133.029 1.57378 -0.0835403 0
M  V30 1365 C 134.278 1.93106 0.582498 0
M  V30 1366 C 134.591 0.96651 1.70053 0
M  V30 1367 O 135.797 1.21705 2.42693 0
M  V30 1368 C 134.253 3.43076 1.08751 0
M  V30 1369 C 133.861 4.48 -0.000146404 0
M  V30 1370 C 135.605 3.87785 1.72694 0
M  V30 1371 C 133.512 5.89113 0.519568 0
M  V30 1372 H 132.442 0.720775 0.221358 0
M  V30 1373 H 135.093 1.82821 -0.157675 0
M  V30 1374 H 133.475 3.48474 1.88101 0
M  V30 1375 H 134.649 4.54233 -0.775199 0
M  V30 1376 H 132.964 4.1283 -0.54406 0
M  V30 1377 H 135.561 4.90604 2.1263 0
M  V30 1378 H 135.904 3.25796 2.59158 0
M  V30 1379 H 136.437 3.8504 0.999457 0
M  V30 1380 H 133.176 6.54775 -0.308186 0
M  V30 1381 H 132.696 5.86376 1.26188 0
M  V30 1382 H 134.375 6.39346 0.992237 0
M  V30 1383 N 134.507 -0.190092 1.56449 0
M  V30 1384 C 135.918 -0.754312 1.70784 0
M  V30 1385 C 136.269 -1.83631 0.690951 0
M  V30 1386 O 135.394 -2.15868 -0.151604 0
M  V30 1387 C 135.989 -1.37503 3.09642 0
M  V30 1388 C 134.548 -1.88628 3.25725 0
M  V30 1389 C 133.695 -0.758098 2.66736 0
M  V30 1390 H 136.646 0.0350524 1.58661 0
M  V30 1391 H 136.667 -2.2445 3.0725 0
M  V30 1392 H 136.179 -0.587302 3.83631 0
M  V30 1393 H 134.28 -2.70103 2.56661 0
M  V30 1394 H 134.393 -2.04462 4.3328 0
M  V30 1395 H 132.757 -1.17369 2.26046 0
M  V30 1396 H 133.54 0.0174705 3.43296 0
M  V30 1397 N 135.985 -1.50799 -0.457987 0
M  V30 1398 C 136.918 -1.65273 -1.57353 0
M  V30 1399 C 137.896 -0.500578 -1.54703 0
M  V30 1400 O 139.08 -0.721781 -1.74134 0
M  V30 1401 C 136.207 -1.64737 -2.95938 0
M  V30 1402 C 135.253 -2.8567 -3.16693 0
M  V30 1403 S 136.086 -4.46791 -2.95191 0
M  V30 1404 C 137.242 -4.48968 -4.36095 0
M  V30 1405 H 137.475 -2.59633 -1.44838 0
M  V30 1406 H 135.008 -1.40225 -0.64625 0
M  V30 1407 H 136.966 -1.65112 -3.7583 0
M  V30 1408 H 135.627 -0.715899 -3.05833 0
M  V30 1409 H 134.82 -2.81637 -4.17967 0
M  V30 1410 H 134.422 -2.8293 -2.44594 0
M  V30 1411 H 136.714 -4.23337 -5.28954 0
M  V30 1412 H 137.657 -5.50664 -4.45168 0
M  V30 1413 H 138.065 -3.78522 -4.18786 0
M  V30 1414 N 137.463 0.71206 -1.40597 0
M  V30 1415 C 138.393 1.83889 -1.43899 0
M  V30 1416 C 139.374 1.67442 -0.299504 0
M  V30 1417 O 140.559 1.87421 -0.508624 0
M  V30 1418 C 137.689 3.21877 -1.30431 0
M  V30 1419 C 136.643 3.53002 -2.42019 0
M  V30 1420 C 135.969 4.90172 -2.13626 0
M  V30 1421 C 137.269 3.53643 -3.84362 0
M  V30 1422 H 138.963 1.81383 -2.38203 0
M  V30 1423 H 136.509 0.871237 -1.14654 0
M  V30 1424 H 138.462 4.00404 -1.31357 0
M  V30 1425 H 137.186 3.24968 -0.326049 0
M  V30 1426 H 135.845 2.76818 -2.40349 0
M  V30 1427 H 135.493 4.89869 -1.14182 0
M  V30 1428 H 135.193 5.11962 -2.88389 0
M  V30 1429 H 136.717 5.71028 -2.1624 0
M  V30 1430 H 138.131 4.22203 -3.87837 0
M  V30 1431 H 136.528 3.86961 -4.58673 0
M  V30 1432 H 137.598 2.52954 -4.13693 0
M  V30 1433 N 138.941 1.26152 0.944643 0
M  V30 1434 C 140.19 1.10883 1.68487 0
M  V30 1435 C 140.503 -0.348153 1.92477 0
M  V30 1436 O 141.709 -0.621459 2.64292 0
M  V30 1437 C 140.165 1.93624 3.03377 0
M  V30 1438 C 139.773 3.43875 2.87148 0
M  V30 1439 C 141.517 1.86954 3.81115 0
M  V30 1440 C 139.424 4.18875 4.1749 0
M  V30 1441 H 138.354 0.41135 0.631907 0
M  V30 1442 H 141.005 1.50433 1.05082 0
M  V30 1443 H 139.387 1.46904 3.67743 0
M  V30 1444 H 140.561 3.98338 2.31653 0
M  V30 1445 H 138.876 3.51744 2.22856 0
M  V30 1446 H 141.473 2.40275 4.77673 0
M  V30 1447 H 141.816 0.839518 4.07747 0
M  V30 1448 H 142.349 2.31477 3.23517 0
M  V30 1449 H 139.088 5.22332 3.96043 0
M  V30 1450 H 138.608 3.69193 4.72712 0
M  V30 1451 H 140.287 4.27134 4.85968 0
M  V30 1452 N 140.419 -1.14872 1.07899 0
M  V30 1453 C 141.835 -1.37776 0.805606 0
M  V30 1454 C 142.035 -1.92743 -0.587555 0
M  V30 1455 O 141.091 -2.13678 -1.34528 0
M  V30 1456 C 142.404 -2.34361 1.88402 0
M  V30 1457 C 143.952 -2.48012 1.90942 0
M  V30 1458 C 144.427 -3.47893 2.97883 0
M  V30 1459 N 145.918 -3.55433 2.97021 0
M  V30 1460 C 146.653 -4.32553 3.76412 0
M  V30 1461 N 146.149 -5.12959 4.65666 0
M  V30 1462 N 147.942 -4.27697 3.64735 0
M  V30 1463 H 140.093 -0.775365 1.97742 0
M  V30 1464 H 142.356 -0.403521 0.857831 0
M  V30 1465 H 142.062 -2.01098 2.88535 0
M  V30 1466 H 141.936 -3.34206 1.74889 0
M  V30 1467 H 144.323 -2.8057 0.914579 0
M  V30 1468 H 144.404 -1.48147 2.08534 0
M  V30 1469 H 144.048 -3.16069 3.97571 0
M  V30 1470 H 143.978 -4.47527 2.77538 0
M  V30 1471 H 146.469 -2.98048 2.32326 0
M  V30 1472 H 146.782 -5.69065 5.22862 0
M  V30 1473 H 145.127 -5.12245 4.69712 0
M  V30 1474 H 148.318 -3.63949 2.94378 0
M  V30 1475 H 148.491 -4.8755 4.26848 0
M  V30 1476 N 141.898 -0.863906 -1.31812 0
M  V30 1477 C 143.314 -0.555004 -1.49639 0
M  V30 1478 C 143.514 0.912266 -1.79666 0
M  V30 1479 O 142.57 1.69479 -1.87171 0
M  V30 1480 C 143.883 -1.44998 -2.63431 0
M  V30 1481 C 145.431 -1.45138 -2.77316 0
M  V30 1482 C 145.906 -2.33179 -3.94197 0
M  V30 1483 N 147.397 -2.31025 -4.01474 0
M  V30 1484 C 148.132 -2.95871 -4.9117 0
M  V30 1485 N 147.628 -3.69863 -5.8581 0
M  V30 1486 N 149.421 -2.85211 -4.84367 0
M  V30 1487 H 141.572 -1.81339 -1.10589 0
M  V30 1488 H 143.835 -0.77505 -0.545895 0
M  V30 1489 H 143.541 -2.49377 -2.48 0
M  V30 1490 H 143.415 -1.14409 -3.59431 0
M  V30 1491 H 145.802 -0.415201 -2.92164 0
M  V30 1492 H 145.883 -1.79747 -1.82001 0
M  V30 1493 H 145.527 -3.3687 -3.80107 0
M  V30 1494 H 145.457 -1.95897 -4.88807 0
M  V30 1495 H 147.948 -1.77238 -3.33759 0
M  V30 1496 H 148.261 -4.16486 -6.50968 0
M  V30 1497 H 146.606 -3.73971 -5.85808 0
M  V30 1498 H 149.797 -2.26948 -4.09405 0
M  V30 1499 H 149.97 -3.36027 -5.54066 0
M  V30 1500 N 143.376 1.44774 -0.622745 0
M  V30 1501 C 144.323 2.30635 0.0871679 0
M  V30 1502 C 145.293 1.42994 0.845097 0
M  V30 1503 O 146.478 1.71907 0.827812 0
M  V30 1504 C 143.618 3.28144 1.06844 0
M  V30 1505 C 142.731 4.30888 0.309809 0
M  V30 1506 C 141.866 5.15494 1.28215 0
M  V30 1507 C 140.905 6.09953 0.512198 0
M  V30 1508 N 140.042 6.87287 1.43458 0
M  V30 1509 H 144.882 2.90803 -0.650974 0
M  V30 1510 H 142.419 1.43286 -0.33281 0
M  V30 1511 H 144.377 3.83157 1.65066 0
M  V30 1512 H 143.007 2.69695 1.77382 0
M  V30 1513 H 142.059 3.78414 -0.388181 0
M  V30 1514 H 143.371 4.97955 -0.290254 0
M  V30 1515 H 142.525 5.74983 1.93596 0
M  V30 1516 H 141.264 4.48481 1.91614 0
M  V30 1517 H 140.269 5.49581 -0.155151 0
M  V30 1518 H 141.494 6.78999 -0.116958 0
M  V30 1519 H 139.44 6.2295 2.05594 0
M  V30 1520 H 139.357 7.50763 0.888335 0
M  V30 1521 H 140.625 7.51306 2.07749 0
M  V30 1522 N 144.854 0.36279 1.53368 0
M  V30 1523 C 145.764 -0.492994 2.29362 0
M  V30 1524 C 146.78 -1.09507 1.35219 0
M  V30 1525 O 147.956 -1.10662 1.68273 0
M  V30 1526 C 145.021 -1.61855 3.066 0
M  V30 1527 C 144.082 -1.04429 4.16405 0
M  V30 1528 C 143.315 -2.11621 4.89951 0
M  V30 1529 O 143.538 -3.32684 4.63333 0
M  V30 1530 O 142.472 -1.74835 5.75948 0
M  V30 1531 H 146.298 0.125331 3.03441 0
M  V30 1532 H 143.883 0.127253 1.48857 0
M  V30 1533 H 145.765 -2.27302 3.54841 0
M  V30 1534 H 144.44 -2.22233 2.3536 0
M  V30 1535 H 143.347 -0.353819 3.72423 0
M  V30 1536 H 144.68 -0.485113 4.89804 0
M  V30 1537 N 146.332 -1.57332 0.0918853 0
M  V30 1538 C 147.56 -1.98574 -0.581048 0
M  V30 1539 C 147.975 -0.970903 -1.61923 0
M  V30 1540 O 147.332 0.0399054 -1.82456 0
M  V30 1541 C 147.383 -3.39872 -1.23164 0
M  V30 1542 O 147.104 -4.37469 -0.234989 0
M  V30 1543 C 148.605 -3.96099 -1.99049 0
M  V30 1544 H 145.825 -0.65261 -0.156018 0
M  V30 1545 H 148.369 -2.0379 0.170225 0
M  V30 1546 H 146.524 -3.35679 -1.93386 0
M  V30 1547 H 146.938 -5.19751 -0.70418 0
M  V30 1548 H 148.412 -4.97127 -2.39934 0
M  V30 1549 H 148.889 -3.3374 -2.85507 0
M  V30 1550 H 149.495 -4.03755 -1.3365 0
M  V30 1551 N 147.81 0.181792 -1.56548 0
M  V30 1552 C 148.757 1.22521 -1.95595 0
M  V30 1553 C 149.727 1.4454 -0.818373 0
M  V30 1554 O 150.912 1.57454 -1.07763 0
M  V30 1555 C 148.052 2.56193 -2.31212 0
M  V30 1556 C 147.165 2.41641 -3.58097 0
M  V30 1557 C 146.3 3.68108 -3.82975 0
M  V30 1558 C 145.339 3.48445 -5.03242 0
M  V30 1559 N 144.476 4.66956 -5.24306 0
M  V30 1560 H 149.316 0.885226 -2.84548 0
M  V30 1561 H 146.853 0.425718 -1.40805 0
M  V30 1562 H 148.811 3.34088 -2.49882 0
M  V30 1563 H 147.441 2.88208 -1.45382 0
M  V30 1564 H 146.493 1.54976 -3.474 0
M  V30 1565 H 147.805 2.23052 -4.46149 0
M  V30 1566 H 146.959 4.54441 -4.01956 0
M  V30 1567 H 145.698 3.89666 -2.93278 0
M  V30 1568 H 144.703 2.60499 -4.8417 0
M  V30 1569 H 145.928 3.2832 -5.9446 0
M  V30 1570 H 143.874 4.88752 -4.37559 0
M  V30 1571 H 143.791 4.51242 -6.06561 0
M  V30 1572 H 145.059 5.54602 -5.47756 0
M  V30 1573 N 149.288 1.51039 0.449983 0
M  V30 1574 C 150.565 1.53612 1.21089 0
M  V30 1575 C 150.945 0.292997 2.09057 0
M  V30 1576 O 150.293 -0.72259 2.16774 0
M  V30 1577 C 150.503 2.84337 2.0237 0
M  V30 1578 C 151.851 3.35807 2.59843 0
M  V30 1579 O 152.875 2.85802 2.12593 0
M  V30 1580 O 151.734 4.23029 3.45989 0
M  V30 1581 H 148.828 0.617057 0.550608 0
M  V30 1582 H 151.374 1.63344 0.460082 0
M  V30 1583 H 150.146 3.66278 1.37681 0
M  V30 1584 H 149.769 2.77708 2.84542 0
M  V30 1585 N 150.766 -0.704594 1.40972 0
M  V30 1586 C 151.996 -1.49138 1.42974 0
M  V30 1587 C 152.404 -1.89175 0.0308406 0
M  V30 1588 O 151.747 -1.56734 -0.958138 0
M  V30 1589 C 151.809 -2.79016 2.26694 0
M  V30 1590 C 151.473 -2.61236 3.74973 0
M  V30 1591 C 152.47 -2.27773 4.67349 0
M  V30 1592 C 150.155 -2.77158 4.18914 0
M  V30 1593 C 152.149 -2.10457 6.01653 0
M  V30 1594 C 149.836 -2.59459 5.53285 0
M  V30 1595 C 150.834 -2.26158 6.4447 0
M  V30 1596 O 150.522 -2.08605 7.76363 0
M  V30 1597 H 150.254 -0.466443 0.489292 0
M  V30 1598 H 152.808 -0.8758 1.85793 0
M  V30 1599 H 151.038 -3.42947 1.78673 0
M  V30 1600 H 152.727 -3.40782 2.20504 0
M  V30 1601 H 153.493 -2.15095 4.34694 0
M  V30 1602 H 149.372 -3.02064 3.48251 0
M  V30 1603 H 152.916 -1.84387 6.72791 0
M  V30 1604 H 148.813 -2.71725 5.85522 0
M  V30 1605 H 149.581 -2.23439 7.87412 0
M  V30 1606 N 152.244 -1.26651 -0.937939 0
M  V30 1607 C 153.492 -1.12165 -1.68118 0
M  V30 1608 C 153.813 0.334983 -1.92101 0
M  V30 1609 O 153.083 1.23583 -1.52 0
M  V30 1610 H 151.663 -0.412093 -0.623048 0
M  V30 1611 H 154.325 -1.59027 -1.12678 0
M  V30 1612 H 153.421 -1.64289 -2.6536 0
M  V30 1613 N 153.722 1.14298 -1.08507 0
M  V30 1614 C 154.95 1.89219 -0.836876 0
M  V30 1615 C 155.365 1.78638 0.611054 0
M  V30 1616 O 154.722 1.14643 1.41998 0
M  V30 1617 C 154.773 3.39158 -1.25116 0
M  V30 1618 O 154.494 3.49449 -2.64229 0
M  V30 1619 C 155.995 4.31073 -1.03398 0
M  V30 1620 H 153.215 0.599328 -0.301739 0
M  V30 1621 H 155.759 1.44746 -1.44461 0
M  V30 1622 H 153.914 3.81251 -0.687514 0
M  V30 1623 H 154.328 4.42589 -2.81452 0
M  V30 1624 H 155.802 5.34646 -1.37323 0
M  V30 1625 H 156.279 4.3919 0.0289259 0
M  V30 1626 H 156.885 3.94738 -1.58311 0
M  V30 1627 N 155.201 0.870884 1.31352 0
M  V30 1628 C 156.148 0.325425 2.28494 0
M  V30 1629 C 157.118 -0.576615 1.5577 0
M  V30 1630 O 158.303 -0.508059 1.83911 0
M  V30 1631 C 155.443 -0.466283 3.41935 0
M  V30 1632 C 154.556 0.463378 4.29508 0
M  V30 1633 C 153.691 -0.342544 5.30094 0
M  V30 1634 C 152.73 0.583486 6.09313 0
M  V30 1635 N 151.867 -0.186244 7.01853 0
M  V30 1636 H 156.707 1.15901 2.74538 0
M  V30 1637 H 154.244 0.58294 1.35056 0
M  V30 1638 H 156.202 -0.941085 4.06447 0
M  V30 1639 H 154.832 -1.26456 2.97 0
M  V30 1640 H 153.884 1.05663 3.65431 0
M  V30 1641 H 155.196 1.1734 4.84802 0
M  V30 1642 H 154.35 -0.879816 6.00287 0
M  V30 1643 H 153.089 -1.08585 4.75458 0
M  V30 1644 H 152.094 1.13251 5.3801 0
M  V30 1645 H 153.319 1.32566 6.66035 0
M  V30 1646 H 151.265 -0.912348 6.49625 0
M  V30 1647 H 151.182 0.464422 7.54572 0
M  V30 1648 H 152.45 -0.704716 7.76308 0
M  V30 1649 N 156.679 -1.44442 0.630414 0
M  V30 1650 C 158.095 -1.56832 0.295973 0
M  V30 1651 C 158.295 -1.61806 -1.20088 0
M  V30 1652 O 157.351 -1.5607 -1.9849 0
M  V30 1653 C 158.664 -2.84031 0.987264 0
M  V30 1654 C 160.212 -2.97742 0.96534 0
M  V30 1655 C 160.687 -4.27743 1.63708 0
M  V30 1656 N 162.178 -4.34555 1.60364 0
M  V30 1657 C 162.913 -5.33862 2.09234 0
M  V30 1658 N 162.409 -6.39578 2.66292 0
M  V30 1659 N 164.202 -5.25366 1.99867 0
M  V30 1660 H 156.353 -1.39457 1.60205 0
M  V30 1661 H 158.616 -0.668237 0.672431 0
M  V30 1662 H 158.322 -2.86338 2.04215 0
M  V30 1663 H 158.196 -3.73534 0.524588 0
M  V30 1664 H 160.583 -2.94989 -0.0810639 0
M  V30 1665 H 160.664 -2.09589 1.4665 0
M  V30 1666 H 160.308 -4.31255 2.68293 0
M  V30 1667 H 160.238 -5.14752 1.11076 0
M  V30 1668 H 162.729 -3.58772 1.18705 0
M  V30 1669 H 163.042 -7.11637 3.01317 0
M  V30 1670 H 161.387 -6.40265 2.70343 0
M  V30 1671 H 164.578 -4.41688 1.55013 0
M  V30 1672 H 164.751 -6.02606 2.38265 0
M  V30 1673 N 158.157 -0.370918 -1.53173 0
M  V30 1674 C 159.087 0.464847 -2.28826 0
M  V30 1675 C 160.068 1.07936 -1.31468 0
M  V30 1676 O 161.253 1.0956 -1.60344 0
M  V30 1677 C 158.383 1.60196 -3.08147 0
M  V30 1678 C 157.337 1.11443 -4.13237 0
M  V30 1679 C 156.663 2.3422 -4.80672 0
M  V30 1680 C 157.963 0.195384 -5.21934 0
M  V30 1681 H 159.657 -0.166329 -2.98938 0
M  V30 1682 H 157.203 -0.0814359 -1.4377 0
M  V30 1683 H 159.156 2.19332 -3.59822 0
M  V30 1684 H 157.88 2.26045 -2.35735 0
M  V30 1685 H 156.539 0.545727 -3.62515 0
M  V30 1686 H 156.187 2.98537 -4.04827 0
M  V30 1687 H 155.887 2.02269 -5.51689 0
M  V30 1688 H 157.411 2.94032 -5.35143 0
M  V30 1689 H 158.825 0.694375 -5.69079 0
M  V30 1690 H 157.222 -0.0335027 -6.00091 0
M  V30 1691 H 158.292 -0.760961 -4.78892 0
M  V30 1692 N 159.635 1.57281 -0.100228 0
M  V30 1693 C 160.881 1.94826 0.563101 0
M  V30 1694 C 161.214 0.982475 1.67514 0
M  V30 1695 O 160.489 0.0164069 1.94493 0
M  V30 1696 C 160.772 3.42453 1.11346 0
M  V30 1697 C 160.625 4.498 0.00612081 0
M  V30 1698 C 161.944 3.91506 2.01024 0
M  V30 1699 H 159.063 0.708428 0.203221 0
M  V30 1700 H 161.705 1.8922 -0.171979 0
M  V30 1701 H 159.855 3.47361 1.7399 0
M  V30 1702 H 161.527 4.57 -0.628357 0
M  V30 1703 H 159.77 4.28756 -0.659581 0
M  V30 1704 H 160.441 5.50306 0.432109 0
M  V30 1705 H 162.917 3.88784 1.48278 0
M  V30 1706 H 161.793 4.95358 2.36457 0
M  V30 1707 H 162.054 3.31099 2.92961 0
M  V30 1708 N 161.113 -0.173488 1.56642 0
M  V30 1709 C 162.023 -1.23482 1.99473 0
M  V30 1710 C 163.039 -1.48567 0.905752 0
M  V30 1711 O 164.215 -1.60758 1.21321 0
M  V30 1712 C 161.28 -2.55444 2.34413 0
M  V30 1713 C 160.341 -2.38241 3.57127 0
M  V30 1714 C 159.574 -3.63909 3.90392 0
M  V30 1715 O 159.797 -4.68996 3.24653 0
M  V30 1716 O 158.731 -3.58149 4.83749 0
M  V30 1717 H 162.557 -0.901279 2.90018 0
M  V30 1718 H 160.142 -0.380185 1.44482 0
M  V30 1719 H 162.024 -3.33292 2.57865 0
M  V30 1720 H 160.699 -2.88382 1.4703 0
M  V30 1721 H 159.606 -1.58431 3.38896 0
M  V30 1722 H 160.939 -2.10228 4.45045 0
M  V30 1723 N 162.591 -1.51276 -0.441967 0
M  V30 1724 C 163.839 -1.63392 -1.18943 0
M  V30 1725 C 164.16 -0.350159 -1.9183 0
M  V30 1726 O 163.43 0.633784 -1.85364 0
M  V30 1727 H 162.01 -0.602164 -0.442049 0
M  V30 1728 H 164.672 -1.88186 -0.507165 0
M  V30 1729 H 163.768 -2.45934 -1.92154 0
M  V30 1730 N 164.069 0.697108 -1.41344 0
M  V30 1731 C 165.297 1.48593 -1.43972 0
M  V30 1732 C 165.712 1.88747 -0.0445612 0
M  V30 1733 O 165.069 1.56682 0.935785 0
M  V30 1734 C 165.12 2.74946 -2.34706 0
M  V30 1735 O 164.841 2.36484 -3.68791 0
M  V30 1736 C 166.342 3.687 -2.46121 0
M  V30 1737 H 163.562 0.457964 -0.490418 0
M  V30 1738 H 166.106 0.858429 -1.8561 0
M  V30 1739 H 164.261 3.33937 -1.9638 0
M  V30 1740 H 164.675 3.17918 -4.17167 0
M  V30 1741 H 166.149 4.54145 -3.13777 0
M  V30 1742 H 166.626 4.13081 -1.49199 0
M  V30 1743 H 167.232 3.15613 -2.85076 0
M  V30 1744 N 165.547 1.27147 0.931209 0
M  V30 1745 C 166.796 1.12664 1.67302 0
M  V30 1746 C 167.109 -0.327718 1.92835 0
M  V30 1747 O 168.315 -0.593392 2.64936 0
M  V30 1748 C 166.771 1.9683 3.01307 0
M  V30 1749 C 166.379 3.46901 2.83485 0
M  V30 1750 C 168.123 1.90985 3.79111 0
M  V30 1751 C 166.03 4.23279 4.13024 0
M  V30 1752 H 164.96 0.41803 0.627509 0
M  V30 1753 H 167.611 1.51539 1.03481 0
M  V30 1754 H 165.993 1.50797 3.66164 0
M  V30 1755 H 167.167 4.00773 2.27415 0
M  V30 1756 H 165.482 3.54088 2.19113 0
M  V30 1757 H 168.079 2.45328 4.75098 0
M  V30 1758 H 168.422 0.882718 4.06834 0
M  V30 1759 H 168.955 2.34895 3.21044 0
M  V30 1760 H 165.694 5.26503 3.90481 0
M  V30 1761 H 165.214 3.74186 4.6877 0
M  V30 1762 H 166.893 4.32265 4.81411 0
M  V30 1763 N 167.025 -1.13721 1.09112 0
M  V30 1764 C 167.973 -2.21103 0.722219 0
M  V30 1765 C 168.967 -1.67147 -0.275374 0
M  V30 1766 O 170.173 -1.79477 -0.137176 0
M  V30 1767 H 166.548 -0.720445 0.215553 0
M  V30 1768 H 168.519 -2.49483 1.63709 0
M  V30 1769 C 167.268 -3.47352 0.15543 0
M  V30 1770 H 166.591 -3.89206 0.914246 0
M  V30 1771 H 168.031 -4.2395 -0.0647967 0
M  V30 1772 C 166.49 -3.1814 -1.10852 0
M  V30 1773 O 167.02 -3.36604 -2.19227 0
M  V30 1774 N 165.226 -2.72045 -1.02176 0
M  V30 1775 H 164.773 -2.57221 -0.139764 0
M  V30 1776 H 164.731 -2.52875 -1.8682 0
M  V30 1777 N 168.503 -0.877838 -1.30888 0
M  V30 1778 C 169.914 -0.544193 -1.78593 0
M  V30 1779 C 170.265 0.939301 -1.72254 0
M  V30 1780 O 169.39 1.7337 -1.29505 0
M  V30 1781 C 169.985 -0.98105 -3.24285 0
M  V30 1782 C 168.544 -0.698935 -3.69854 0
M  V30 1783 C 167.691 -1.168 -2.51502 0
M  V30 1784 H 170.642 -1.06278 -1.17859 0
M  V30 1785 H 170.663 -0.307009 -3.79259 0
M  V30 1786 H 170.175 -2.06079 -3.28866 0
M  V30 1787 H 168.276 0.369112 -3.70767 0
M  V30 1788 H 168.389 -1.28148 -4.61644 0
M  V30 1789 H 166.753 -0.587535 -2.47831 0
M  V30 1790 H 167.536 -2.25533 -2.58824 0
M  V30 1791 N 169.982 1.44106 -0.638065 0
M  V30 1792 C 171.23 2.01579 -0.145043 0
M  V30 1793 C 171.551 1.50496 1.24 0
M  V30 1794 O 170.821 0.711374 1.82527 0
M  V30 1795 H 169.401 0.745282 -0.05063 0
M  V30 1796 H 172.063 1.76516 -0.826327 0
M  V30 1797 H 171.159 3.11877 -0.118039 0
M  V30 1798 N 171.46 0.379036 1.52974 0
M  V30 1799 C 172.37 -0.468639 2.29872 0
M  V30 1800 C 173.386 -1.08067 1.36373 0
M  V30 1801 O 174.562 -1.08871 1.69438 0
M  V30 1802 C 171.627 -1.58594 3.083 0
M  V30 1803 C 170.688 -1.00007 4.17489 0
M  V30 1804 C 169.921 -2.06413 4.92168 0
M  V30 1805 O 170.144 -3.27751 4.66835 0
M  V30 1806 O 169.078 -1.68717 5.7777 0
M  V30 1807 H 172.904 0.157508 3.03291 0
M  V30 1808 H 170.489 0.143035 1.48714 0
M  V30 1809 H 172.371 -2.23525 3.57232 0
M  V30 1810 H 171.046 -2.19724 2.37703 0
M  V30 1811 H 169.953 -0.314299 3.72777 0
M  V30 1812 H 171.286 -0.433135 4.90291 0
M  V30 1813 N 172.938 -1.57226 0.108567 0
M  V30 1814 C 174.166 -1.99179 -0.559954 0
M  V30 1815 C 174.581 -0.988022 -1.60884 0
M  V30 1816 O 173.938 0.0205512 -1.82488 0
M  V30 1817 C 173.989 -3.41159 -1.19552 0
M  V30 1818 O 173.71 -4.37694 -0.188577 0
M  V30 1819 C 175.211 -3.98188 -1.94837 0
M  V30 1820 H 172.431 -0.654228 -0.149088 0
M  V30 1821 H 174.975 -2.03598 0.19183 0
M  V30 1822 H 173.13 -3.37711 -1.89815 0
M  V30 1823 H 173.544 -5.20469 -0.649014 0
M  V30 1824 H 175.018 -4.99644 -2.34648 0
M  V30 1825 H 175.495 -3.3675 -2.81951 0
M  V30 1826 H 176.101 -4.0515 -1.2936 0
M  V30 1827 N 174.416 0.165178 -1.56732 0
M  V30 1828 C 175.656 0.887231 -1.8414 0
M  V30 1829 C 176.02 1.79159 -0.690353 0
M  V30 1830 O 177.221 2.55172 -0.845032 0
M  V30 1831 C 175.492 1.65674 -3.16681 0
M  V30 1832 S 177.051 2.42671 -3.6559 0
M  V30 1833 H 173.869 0.297042 -0.645978 0
M  V30 1834 H 176.471 0.148439 -1.94936 0
M  V30 1835 H 175.175 0.983507 -3.98441 0
M  V30 1836 H 174.706 2.43679 -3.08843 0
M  V30 1837 H 176.721 3.67499 -3.33406 0
M  V30 1838 N 175.894 1.51508 0.433938 0
M  V30 1839 C 176.824 1.76016 1.53429 0
M  V30 1840 C 177.805 0.610112 1.58782 0
M  V30 1841 O 178.99 0.853177 1.74455 0
M  V30 1842 C 176.12 1.88831 2.9148 0
M  V30 1843 C 175.074 3.04288 3.00987 0
M  V30 1844 C 174.4 3.0229 4.4105 0
M  V30 1845 C 175.7 4.44193 2.74754 0
M  V30 1846 H 177.394 2.68152 1.33171 0
M  V30 1847 H 174.94 1.29035 0.639214 0
M  V30 1848 H 176.893 2.04559 3.6842 0
M  V30 1849 H 175.617 0.933455 3.12976 0
M  V30 1850 H 174.276 2.8827 2.26486 0
M  V30 1851 H 173.924 2.04576 4.59519 0
M  V30 1852 H 173.624 3.79822 4.4834 0
M  V30 1853 H 175.148 3.20116 5.1996 0
M  V30 1854 H 176.562 4.60544 3.41426 0
M  V30 1855 H 174.959 5.23457 2.9345 0
M  V30 1856 H 176.029 4.53996 1.70339 0
M  V30 1857 N 177.372 -0.689602 1.41712 0
M  V30 1858 C 178.621 -1.44534 1.40686 0
M  V30 1859 C 178.934 -1.95588 0.0213352 0
M  V30 1860 O 180.14 -2.71271 -0.111534 0
M  V30 1861 C 178.596 -2.61387 2.47396 0
M  V30 1862 C 178.204 -2.17094 3.91885 0
M  V30 1863 C 179.948 -3.38986 2.55517 0
M  V30 1864 C 177.855 -3.3094 4.90135 0
M  V30 1865 H 176.785 -0.542925 0.52321 0
M  V30 1866 H 179.436 -0.748054 1.6756 0
M  V30 1867 H 177.818 -3.33412 2.13664 0
M  V30 1868 H 178.992 -1.52318 4.34897 0
M  V30 1869 H 177.307 -1.52473 3.8748 0
M  V30 1870 H 179.904 -4.23747 3.26102 0
M  V30 1871 H 180.247 -3.84578 1.59391 0
M  V30 1872 H 180.78 -2.74021 2.8837 0
M  V30 1873 H 177.519 -2.90355 5.87685 0
M  V30 1874 H 177.039 -3.94546 4.51767 0
M  V30 1875 H 178.718 -3.9663 5.11169 0
M  V30 1876 N 178.85 -1.27639 -0.924453 0
M  V30 1877 C 180.099 -1.13549 -1.66702 0
M  V30 1878 C 180.412 0.317487 -1.93006 0
M  V30 1879 O 181.618 0.579333 -2.65247 0
M  V30 1880 C 180.074 -1.98426 -3.00259 0
M  V30 1881 C 179.682 -3.484 -2.81641 0
M  V30 1882 C 181.426 -1.92993 -3.78092 0
M  V30 1883 C 179.333 -4.25464 -4.10773 0
M  V30 1884 H 178.263 -0.421351 -0.625283 0
M  V30 1885 H 180.914 -1.52085 -1.02676 0
M  V30 1886 H 179.296 -1.52736 -3.6536 0
M  V30 1887 H 180.47 -4.01973 -2.25287 0
M  V30 1888 H 178.785 -3.55245 -2.17232 0
M  V30 1889 H 181.382 -2.47844 -4.7379 0
M  V30 1890 H 181.725 -0.904281 -4.0636 0
M  V30 1891 H 182.258 -2.36595 -3.19793 0
M  V30 1892 H 178.997 -5.28566 -3.87683 0
M  V30 1893 H 178.517 -3.76667 -4.66779 0
M  V30 1894 H 180.196 -4.34812 -4.79111 0
M  V30 1895 N 180.328 1.1314 -1.09713 0
M  V30 1896 C 181.238 2.22242 -0.751367 0
M  V30 1897 C 182.254 1.72224 0.247938 0
M  V30 1898 O 183.43 2.01205 0.0885463 0
M  V30 1899 C 180.495 3.46231 -0.180274 0
M  V30 1900 C 179.556 4.11125 -1.2359 0
M  V30 1901 C 178.789 5.29195 -0.691966 0
M  V30 1902 O 179.012 5.68342 0.48414 0
M  V30 1903 O 177.946 5.84214 -1.44838 0
M  V30 1904 H 181.772 2.54197 -1.66186 0
M  V30 1905 H 179.357 1.21331 -0.871735 0
M  V30 1906 H 181.239 4.21185 0.134739 0
M  V30 1907 H 179.914 3.1597 0.703185 0
M  V30 1908 H 178.821 3.37985 -1.60366 0
M  V30 1909 H 180.154 4.45524 -2.09211 0
M  V30 1910 N 181.806 0.884767 1.30421 0
M  V30 1911 C 183.083 0.423185 1.90967 0
M  V30 1912 C 183.463 -1.09605 1.80416 0
M  V30 1913 O 182.811 -1.93126 1.22125 0
M  V30 1914 C 183.021 0.921056 3.36627 0
M  V30 1915 C 184.369 0.955903 4.137 0
M  V30 1916 O 185.393 0.867706 3.4547 0
M  V30 1917 O 184.252 1.08614 5.35598 0
M  V30 1918 H 181.346 0.129369 0.816819 0
M  V30 1919 H 183.892 0.973653 1.3899 0
M  V30 1920 H 182.664 1.96489 3.3839 0
M  V30 1921 H 182.287 0.349741 3.96059 0
M  V30 1922 N 183.284 -1.43765 0.645699 0
M  V30 1923 C 184.53 -2.02197 0.156271 0
M  V30 1924 C 184.863 -1.50776 -1.22393 0
M  V30 1925 O 184.138 -0.697771 -1.81553 0
M  V30 1926 C 184.421 -3.59749 0.158872 0
M  V30 1927 C 184.274 -4.21419 1.57245 0
M  V30 1928 C 185.593 -4.37149 -0.50879 0
M  V30 1929 H 182.712 -0.734694 0.0582602 0
M  V30 1930 H 185.354 -1.71157 0.824951 0
M  V30 1931 H 183.504 -3.86325 -0.410525 0
M  V30 1932 H 185.176 -4.059 2.19186 0
M  V30 1933 H 183.419 -3.78356 2.122 0
M  V30 1934 H 184.09 -5.30482 1.52619 0
M  V30 1935 H 186.566 -4.16093 -0.024412 0
M  V30 1936 H 185.442 -5.4683 -0.476213 0
M  V30 1937 H 185.703 -4.12839 -1.58165 0
M  V30 1938 N 184.763 -0.387143 -1.52771 0
M  V30 1939 C 186.009 0.196025 -2.0185 0
M  V30 1940 C 186.342 1.46641 -1.27319 0
M  V30 1941 O 185.617 1.90889 -0.373032 0
M  V30 1942 C 185.9 0.466136 -3.5707 0
M  V30 1943 C 185.753 -0.819385 -4.42274 0
M  V30 1944 C 187.072 1.25768 -4.21747 0
M  V30 1945 H 184.191 0.0697708 -0.73369 0
M  V30 1946 H 186.833 -0.516286 -1.82851 0
M  V30 1947 H 184.983 1.07293 -3.7339 0
M  V30 1948 H 186.655 -1.4563 -4.37709 0
M  V30 1949 H 184.898 -1.43517 -4.09372 0
M  V30 1950 H 185.569 -0.585065 -5.48891 0
M  V30 1951 H 188.045 0.744167 -4.09391 0
M  V30 1952 H 186.921 1.41541 -5.30337 0
M  V30 1953 H 187.182 2.27228 -3.79236 0
M  V30 1954 N 186.241 1.57166 -0.116904 0
M  V30 1955 C 187.469 1.99473 0.549383 0
M  V30 1956 C 187.884 0.996541 1.60357 0
M  V30 1957 O 187.241 -0.0108731 1.82497 0
M  V30 1958 C 187.292 3.41788 1.17741 0
M  V30 1959 O 187.013 4.37788 0.165362 0
M  V30 1960 C 188.514 3.99216 1.92722 0
M  V30 1961 H 185.734 0.655009 0.145616 0
M  V30 1962 H 188.278 2.03494 -0.202625 0
M  V30 1963 H 186.433 3.38713 1.88021 0
M  V30 1964 H 186.847 5.20806 0.621403 0
M  V30 1965 H 188.321 5.00882 2.31995 0
M  V30 1966 H 188.798 3.3824 2.80161 0
M  V30 1967 H 189.404 4.0583 1.27209 0
M  V30 1968 N 187.719 -0.156864 1.56817 0
M  V30 1969 C 188.944 -0.890331 1.87318 0
M  V30 1970 C 189.369 -1.74394 0.704855 0
M  V30 1971 O 188.727 -1.77972 -0.345786 0
M  V30 1972 C 188.775 -1.73102 3.16336 0
M  V30 1973 O 187.879 -2.83422 2.99576 0
M  V30 1974 H 187.22 -0.24857 0.615718 0
M  V30 1975 H 189.75 -0.150649 2.04045 0
M  V30 1976 H 189.76 -2.12803 3.48107 0
M  V30 1977 H 188.435 -1.10412 4.00976 0
M  V30 1978 H 187.012 -2.47199 2.7919 0
M  V30 1979 N 189.197 -1.51736 -0.425897 0
M  V30 1980 C 190.445 -1.64644 -1.17204 0
M  V30 1981 C 190.766 -0.370486 -1.91448 0
M  V30 1982 O 190.036 0.614088 -1.86026 0
M  V30 1983 H 188.616 -0.606819 -0.435638 0
M  V30 1984 H 191.278 -1.88713 -0.487177 0
M  V30 1985 H 190.374 -2.47958 -1.89534 0
M  V30 1986 N 190.675 0.682077 -1.42076 0
M  V30 1987 C 191.9 1.47558 -1.45744 0
M  V30 1988 C 192.325 1.87977 -0.0680981 0
M  V30 1989 O 191.683 1.55522 0.9318 0
M  V30 1990 C 191.731 2.70575 -2.38373 0
M  V30 1991 O 190.835 3.68573 -1.85007 0
M  V30 1992 H 190.176 0.443585 -0.494093 0
M  V30 1993 H 192.706 0.837238 -1.86686 0
M  V30 1994 H 192.716 3.18729 -2.54707 0
M  V30 1995 H 191.391 2.40495 -3.39315 0
M  V30 1996 H 189.968 3.2757 -1.78192 0
M  V30 1997 N 192.153 1.28127 0.917671 0
M  V30 1998 C 193.378 1.18007 1.70555 0
M  V30 1999 C 193.803 -0.258257 1.86319 0
M  V30 2000 O 193.161 -1.1869 1.37049 0
M  V30 2001 C 193.209 1.87948 3.07746 0
M  V30 2002 O 192.313 1.18427 3.9503 0
M  V30 2003 H 191.654 0.409867 0.522403 0
M  V30 2004 H 194.184 1.69379 1.1477 0
M  V30 2005 H 194.194 1.95701 3.58001 0
M  V30 2006 H 192.869 2.92573 2.95591 0
M  V30 2007 H 191.446 1.18811 3.53466 0
M  V30 2008 N 193.631 -1.12557 1.10312 0
M  V30 2009 C 194.877 -1.84311 0.846011 0
M  V30 2010 C 195.21 -1.83805 -0.626859 0
M  V30 2011 O 194.485 -1.28268 -1.46211 0
M  V30 2012 C 194.768 -3.32048 1.39341 0
M  V30 2013 C 194.621 -3.41016 2.93305 0
M  V30 2014 C 195.94 -4.27764 1.03468 0
M  V30 2015 H 193.059 -0.669192 0.30879 0
M  V30 2016 H 195.701 -1.32057 1.36605 0
M  V30 2017 H 193.851 -3.76678 0.951087 0
M  V30 2018 H 195.523 -3.05031 3.46055 0
M  V30 2019 H 193.766 -2.81603 3.29973 0
M  V30 2020 H 194.437 -4.44948 3.26689 0
M  V30 2021 H 196.913 -3.91253 1.41633 0
M  V30 2022 H 195.789 -5.29549 1.44463 0
M  V30 2023 H 196.05 -4.42064 -0.0560404 0
M  V30 2024 N 195.109 -0.891671 -1.2995 0
M  V30 2025 C 196.039 -0.379797 -2.30391 0
M  V30 2026 C 197.02 0.540919 -1.6127 0
M  V30 2027 O 198.205 0.453352 -1.88834 0
M  V30 2028 C 195.335 0.400654 -3.44981 0
M  V30 2029 C 194.289 -0.428905 -4.25846 0
M  V30 2030 C 193.615 0.478557 -5.32554 0
M  V30 2031 C 194.915 -1.67458 -4.94727 0
M  V30 2032 H 196.609 -1.21914 -2.73454 0
M  V30 2033 H 194.155 -0.587675 -1.31462 0
M  V30 2034 H 196.108 0.769434 -4.14316 0
M  V30 2035 H 194.832 1.27371 -3.0074 0
M  V30 2036 H 193.491 -0.779911 -3.58208 0
M  V30 2037 H 193.139 1.34951 -4.84559 0
M  V30 2038 H 192.839 -0.0727433 -5.87555 0
M  V30 2039 H 194.363 0.843705 -6.04743 0
M  V30 2040 H 195.777 -1.376 -5.56542 0
M  V30 2041 H 194.174 -2.16659 -5.59624 0
M  V30 2042 H 195.244 -2.41518 -4.20473 0
M  V30 2043 N 196.587 1.43421 -0.653314 0
M  V30 2044 C 197.497 2.34568 0.0388565 0
M  V30 2045 C 198.513 1.53888 0.81207 0
M  V30 2046 O 199.689 1.86539 0.759294 0
M  V30 2047 C 196.754 3.32167 0.993269 0
M  V30 2048 C 195.815 4.28751 0.216977 0
M  V30 2049 C 195.048 5.21688 1.12593 0
M  V30 2050 O 195.271 5.19052 2.36519 0
M  V30 2051 O 194.205 5.98919 0.598284 0
M  V30 2052 H 198.031 2.95251 -0.711386 0
M  V30 2053 H 195.616 1.43564 -0.413502 0
M  V30 2054 H 197.498 3.92183 1.54176 0
M  V30 2055 H 196.173 2.73987 1.72374 0
M  V30 2056 H 195.08 3.72215 -0.375101 0
M  V30 2057 H 196.413 4.89913 -0.473924 0
M  V30 2058 N 198.065 0.39524 1.52563 0
M  V30 2059 C 199.293 -0.184943 2.06072 0
M  V30 2060 C 199.708 -1.40021 1.26647 0
M  V30 2061 O 199.065 -1.79767 0.314672 0
M  V30 2062 C 199.116 -0.549179 3.57304 0
M  V30 2063 O 198.837 0.617813 4.33722 0
M  V30 2064 C 200.338 -1.18459 4.2718 0
M  V30 2065 H 197.558 -0.0265025 0.670476 0
M  V30 2066 H 200.102 0.562184 1.96621 0
M  V30 2067 H 198.257 -1.2462 3.66809 0
M  V30 2068 H 198.671 0.317091 5.23541 0
M  V30 2069 H 200.145 -1.38976 5.34219 0
M  V30 2070 H 200.622 -2.15368 3.82771 0
M  V30 2071 H 201.228 -0.528163 4.22008 0
M  V30 2072 N 199.544 -1.57102 0.125237 0
M  V30 2073 C 200.79 -1.95697 -0.532035 0
M  V30 2074 C 201.123 -1.009 -1.6593 0
M  V30 2075 O 200.398 -0.047347 -1.94442 0
M  V30 2076 C 200.681 -3.44181 -1.05884 0
M  V30 2077 C 200.534 -4.49752 0.0654392 0
M  V30 2078 C 201.853 -3.94655 -1.9477 0
M  V30 2079 H 198.972 -0.711571 -0.191925 0
M  V30 2080 H 201.614 -1.88923 0.20206 0
M  V30 2081 H 199.764 -3.50085 -1.68442 0
M  V30 2082 H 201.436 -4.55943 0.700982 0
M  V30 2083 H 199.679 -4.27653 0.727709 0
M  V30 2084 H 200.35 -5.50924 -0.344505 0
M  V30 2085 H 202.826 -3.91094 -1.42074 0
M  V30 2086 H 201.702 -4.99057 -2.28546 0
M  V30 2087 H 201.963 -3.35718 -2.87656 0
M  V30 2088 N 201.022 0.148545 -1.56898 0
M  V30 2089 C 201.932 1.20293 -2.01412 0
M  V30 2090 C 202.948 1.47107 -0.929273 0
M  V30 2091 O 204.124 1.58807 -1.23863 0
M  V30 2092 C 201.189 2.51682 -2.38447 0
M  V30 2093 C 200.25 2.32529 -3.60872 0
M  V30 2094 C 199.483 3.57653 -3.96132 0
M  V30 2095 O 199.706 4.63771 -3.32073 0
M  V30 2096 O 198.64 3.50408 -4.89385 0
M  V30 2097 H 202.466 0.855025 -2.91416 0
M  V30 2098 H 200.051 0.357151 -1.45068 0
M  V30 2099 H 201.933 3.29147 -2.63135 0
M  V30 2100 H 200.608 2.86006 -1.51599 0
M  V30 2101 H 199.515 1.53019 -3.41373 0
M  V30 2102 H 200.848 2.03121 -4.48333 0
M  V30 2103 N 202.5 1.5196 0.417844 0
M  V30 2104 C 203.746 1.65836 1.16732 0
M  V30 2105 C 204.079 0.382881 1.90388 0
M  V30 2106 O 203.354 -0.618368 1.84408 0
M  V30 2107 C 203.637 2.87466 2.16876 0
M  V30 2108 C 203.49 4.25041 1.47174 0
M  V30 2109 C 204.809 3.04613 3.17646 0
M  V30 2110 H 201.928 0.603515 0.423011 0
M  V30 2111 H 204.57 1.84494 0.454105 0
M  V30 2112 H 202.72 2.71689 2.777 0
M  V30 2113 H 204.392 4.52527 0.895376 0
M  V30 2114 H 202.635 4.26843 0.773806 0
M  V30 2115 H 203.306 5.06176 2.20204 0
M  V30 2116 H 205.782 3.1923 2.66892 0
M  V30 2117 H 204.658 3.91247 3.8499 0
M  V30 2118 H 204.919 2.17541 3.84874 0
M  V30 2119 N 203.978 -0.674533 1.42435 0
M  V30 2120 C 204.908 -1.80009 1.48724 0
M  V30 2121 C 205.889 -1.6659 0.343793 0
M  V30 2122 O 207.074 -1.86007 0.558137 0
M  V30 2123 C 204.204 -3.18306 1.38919 0
M  V30 2124 C 203.158 -3.46461 2.51294 0
M  V30 2125 C 202.484 -4.84335 2.26547 0
M  V30 2126 C 203.784 -3.43328 3.93603 0
M  V30 2127 H 205.478 -1.75004 2.42928 0
M  V30 2128 H 203.024 -0.840533 1.16923 0
M  V30 2129 H 204.977 -3.9678 1.41927 0
M  V30 2130 H 203.701 -3.2399 0.412094 0
M  V30 2131 H 202.36 -2.70348 2.47604 0
M  V30 2132 H 202.008 -4.86669 1.2713 0
M  V30 2133 H 201.708 -5.04136 3.01861 0
M  V30 2134 H 203.232 -5.65094 2.31304 0
M  V30 2135 H 204.646 -4.11772 3.98894 0
M  V30 2136 H 203.043 -3.74664 4.68771 0
M  V30 2137 H 204.113 -2.41897 4.20255 0
M  V30 2138 N 205.456 -1.28612 -0.910864 0
M  V30 2139 C 206.388 -1.08589 -2.01844 0
M  V30 2140 C 207.401 -0.0367419 -1.62759 0
M  V30 2141 O 208.59 -0.280101 -1.76289 0
M  V30 2142 C 205.69 -0.628626 -3.33019 0
M  V30 2143 C 204.863 -1.75382 -4.00699 0
M  V30 2144 C 203.922 -1.28945 -5.10156 0
M  V30 2145 O 202.948 -1.9922 -5.33198 0
M  V30 2146 N 204.15 -0.154224 -5.80295 0
M  V30 2147 H 206.915 -2.03973 -2.19579 0
M  V30 2148 H 204.476 -1.20403 -1.08234 0
M  V30 2149 H 206.468 -0.301508 -4.03575 0
M  V30 2150 H 205.038 0.232451 -3.11735 0
M  V30 2151 H 204.258 -2.25039 -3.23653 0
M  V30 2152 H 205.546 -2.50854 -4.42662 0
M  V30 2153 H 204.944 0.43194 -5.64049 0
M  V30 2154 H 203.501 0.113599 -6.51701 0
M  V30 2155 N 206.934 1.1197 -1.10907 0
M  V30 2156 C 207.881 2.17846 -0.762345 0
M  V30 2157 C 208.851 1.63995 0.263599 0
M  V30 2158 O 210.036 1.90273 0.141773 0
M  V30 2159 C 207.176 3.44487 -0.205651 0
M  V30 2160 C 206.289 4.12369 -1.28748 0
M  V30 2161 C 205.424 5.26674 -0.691919 0
M  V30 2162 C 204.463 5.86431 -1.75399 0
M  V30 2163 N 203.6 6.92142 -1.17833 0
M  V30 2164 H 208.44 2.46851 -1.6694 0
M  V30 2165 H 205.977 1.21188 -0.833776 0
M  V30 2166 H 207.935 4.16981 0.135037 0
M  V30 2167 H 206.565 3.15884 0.664613 0
M  V30 2168 H 205.617 3.38003 -1.74522 0
M  V30 2169 H 206.929 4.52844 -2.09125 0
M  V30 2170 H 206.083 6.05953 -0.300963 0
M  V30 2171 H 204.822 4.8749 0.143232 0
M  V30 2172 H 203.827 5.05835 -2.15432 0
M  V30 2173 H 205.052 6.27685 -2.59208 0
M  V30 2174 H 202.998 6.54985 -0.364725 0
M  V30 2175 H 202.915 7.31242 -1.91887 0
M  V30 2176 H 204.183 7.75237 -0.81408 0
M  V30 2177 N 208.412 0.89855 1.29475 0
M  V30 2178 C 209.322 0.379974 2.31502 0
M  V30 2179 C 210.338 -0.524695 1.659 0
M  V30 2180 O 211.514 -0.414551 1.97087 0
M  V30 2181 C 208.579 -0.385138 3.44554 0
M  V30 2182 C 207.64 0.550914 4.2575 0
M  V30 2183 C 206.873 -0.177778 5.33404 0
M  V30 2184 O 207.096 -1.40189 5.52904 0
M  V30 2185 O 206.03 0.479106 5.9999 0
M  V30 2186 H 209.856 1.22639 2.77837 0
M  V30 2187 H 207.441 0.662834 1.33891 0
M  V30 2188 H 209.323 -0.817841 4.13388 0
M  V30 2189 H 207.998 -1.20763 3.0033 0
M  V30 2190 H 206.905 1.03271 3.59564 0
M  V30 2191 H 208.238 1.33979 4.73614 0
M  V30 2192 N 209.89 -1.43072 0.660911 0
M  V30 2193 C 211.138 -2.01323 0.177094 0
M  V30 2194 C 211.459 -1.5245 -1.2159 0
M  V30 2195 O 210.729 -0.740322 -1.81373 0
M  V30 2196 H 209.309 -0.744382 0.0624804 0
M  V30 2197 H 211.971 -1.75179 0.854305 0
M  V30 2198 H 211.067 -3.11649 0.167641 0
M  V30 2199 N 211.368 -0.403325 -1.52352 0
M  V30 2200 C 212.298 0.416205 -2.29761 0
M  V30 2201 C 213.279 1.05123 -1.33728 0
M  V30 2202 O 214.464 1.06134 -1.62632 0
M  V30 2203 C 211.594 1.53624 -3.11475 0
M  V30 2204 C 210.548 1.02653 -4.15507 0
M  V30 2205 C 209.874 2.23971 -4.85532 0
M  V30 2206 C 211.174 0.08463 -5.22231 0
M  V30 2207 H 212.868 -0.229701 -2.98518 0
M  V30 2208 H 210.414 -0.111913 -1.43564 0
M  V30 2209 H 212.367 2.1165 -3.64393 0
M  V30 2210 H 211.091 2.20994 -2.40477 0
M  V30 2211 H 209.75 0.46871 -3.63591 0
M  V30 2212 H 209.398 2.89883 -4.11068 0
M  V30 2213 H 209.098 1.90521 -5.55856 0
M  V30 2214 H 210.622 2.82614 -5.41259 0
M  V30 2215 H 212.036 0.573509 -5.70424 0
M  V30 2216 H 210.433 -0.160783 -5.99885 0
M  V30 2217 H 211.503 -0.86237 -4.7717 0
M  V30 2218 N 212.846 1.57033 -0.133567 0
M  V30 2219 C 213.793 2.16074 0.811208 0
M  V30 2220 C 214.763 1.08979 1.2535 0
M  V30 2221 O 215.948 1.36958 1.32843 0
M  V30 2222 C 213.088 2.77595 2.05024 0
M  V30 2223 C 212.201 3.99042 1.65498 0
M  V30 2224 C 211.336 4.48603 2.84479 0
M  V30 2225 C 210.375 5.62547 2.41262 0
M  V30 2226 N 209.512 6.06787 3.53206 0
M  V30 2227 H 214.352 2.96477 0.300906 0
M  V30 2228 H 211.889 1.46462 0.136822 0
M  V30 2229 H 213.847 3.11402 2.77642 0
M  V30 2230 H 212.477 1.99859 2.53488 0
M  V30 2231 H 211.529 3.71302 0.826981 0
M  V30 2232 H 212.841 4.81629 1.29748 0
M  V30 2233 H 211.995 4.84395 3.65303 0
M  V30 2234 H 210.734 3.64995 3.23465 0
M  V30 2235 H 209.739 5.26345 1.58874 0
M  V30 2236 H 210.964 6.47931 2.03377 0
M  V30 2237 H 208.91 5.26117 3.91838 0
M  V30 2238 H 208.827 6.84266 3.21427 0
M  V30 2239 H 210.095 6.4722 4.34427 0
M  V30 2240 N 214.325 -0.140222 1.56975 0
M  V30 2241 C 215.571 -0.852949 1.83991 0
M  V30 2242 C 215.904 -1.80512 0.716187 0
M  V30 2243 O 215.179 -1.92479 -0.279681 0
M  V30 2244 C 215.462 -1.6215 3.21527 0
M  V30 2245 C 215.315 -0.690363 4.4447 0
M  V30 2246 C 216.634 -2.58247 3.56366 0
M  V30 2247 H 213.753 -0.308634 0.669264 0
M  V30 2248 H 216.395 -0.117898 1.89634 0
M  V30 2249 H 214.545 -2.24812 3.16847 0
M  V30 2250 H 216.217 -0.0742264 4.6124 0
M  V30 2251 H 214.46 -0.000396433 4.338 0
M  V30 2252 H 215.131 -1.2643 5.37326 0
M  V30 2253 H 217.607 -2.05701 3.61699 0
M  V30 2254 H 216.483 -3.09067 4.53617 0
M  V30 2255 H 216.744 -3.39923 2.82674 0
M  V30 2256 N 215.803 -1.52179 -0.40978 0
M  V30 2257 C 217.031 -1.70054 -1.17853 0
M  V30 2258 C 217.446 -0.409735 -1.843 0
M  V30 2259 O 216.803 0.614183 -1.71855 0
M  V30 2260 C 216.854 -2.83568 -2.24213 0
M  V30 2261 O 216.575 -4.0765 -1.60478 0
M  V30 2262 C 218.076 -3.12947 -3.13973 0
M  V30 2263 H 215.296 -0.569917 -0.354169 0
M  V30 2264 H 217.84 -1.98734 -0.482198 0
M  V30 2265 H 215.995 -2.57409 -2.89516 0
M  V30 2266 H 216.409 -4.70899 -2.30986 0
M  V30 2267 H 217.883 -3.95889 -3.84677 0
M  V30 2268 H 218.36 -2.26472 -3.76307 0
M  V30 2269 H 218.966 -3.40868 -2.5434 0
M  V30 2270 N 217.281 0.66697 -1.42791 0
M  V30 2271 C 218.558 1.4234 -1.34159 0
M  V30 2272 C 218.938 2.11093 0.0172729 0
M  V30 2273 O 218.286 2.03808 1.03318 0
M  V30 2274 C 218.496 2.41942 -2.51526 0
M  V30 2275 C 219.844 3.06353 -2.93995 0
M  V30 2276 O 220.868 2.52269 -2.51473 0
M  V30 2277 O 219.727 4.04376 -3.67617 0
M  V30 2278 H 216.821 0.635277 -0.529483 0
M  V30 2279 H 219.367 0.695034 -1.54814 0
M  V30 2280 H 218.139 1.89991 -3.42081 0
M  V30 2281 H 217.762 3.22249 -2.32898 0
M  V30 2282 N 218.759 1.29093 0.90403 0
M  V30 2283 C 219.722 1.1386 1.98919 0
M  V30 2284 C 220.722 0.0753457 1.60623 0
M  V30 2285 O 221.912 0.321931 1.71199 0
M  V30 2286 C 219.044 0.740198 3.32767 0
M  V30 2287 H 220.237 2.10246 2.13861 0
M  V30 2288 H 217.79 1.12218 1.08797 0
M  V30 2289 H 218.525 -0.223997 3.23525 0
M  V30 2290 H 218.31 1.50838 3.61926 0
M  V30 2291 H 219.8 0.656546 4.12407 0
M  V30 2292 N 220.237 -1.11381 1.11499 0
M  V30 2293 C 221.486 -1.82494 0.858993 0
M  V30 2294 C 221.799 -1.85605 -0.617278 0
M  V30 2295 O 223.005 -2.52824 -0.989552 0
M  V30 2296 C 221.461 -3.27745 1.48699 0
M  V30 2297 C 221.069 -3.32961 2.99735 0
M  V30 2298 C 222.813 -4.03754 1.31085 0
M  V30 2299 C 220.72 -4.72612 3.55516 0
M  V30 2300 H 219.65 -0.683802 0.317696 0
M  V30 2301 H 222.301 -1.25331 1.34031 0
M  V30 2302 H 220.683 -3.84844 0.933339 0
M  V30 2303 H 221.857 -2.85741 3.61509 0
M  V30 2304 H 220.172 -2.70433 3.16631 0
M  V30 2305 H 222.769 -5.06891 1.70192 0
M  V30 2306 H 223.112 -4.15527 0.253496 0
M  V30 2307 H 223.645 -3.53043 1.83318 0
M  V30 2308 H 220.384 -4.66036 4.60967 0
M  V30 2309 H 219.904 -5.2024 2.98513 0
M  V30 2310 H 221.583 -5.4157 3.53992 0
M  V30 2311 N 221.715 -0.905404 -1.28997 0
M  V30 2312 C 222.961 -0.535039 -1.95615 0
M  V30 2313 C 223.294 0.917404 -1.71165 0
M  V30 2314 O 222.569 1.65123 -1.02785 0
M  V30 2315 C 222.852 -0.834918 -3.50287 0
M  V30 2316 C 222.705 -2.33948 -3.84172 0
M  V30 2317 C 224.024 -0.325318 -4.38896 0
M  V30 2318 H 221.143 -0.195861 -0.710498 0
M  V30 2319 H 223.785 -1.13313 -1.52513 0
M  V30 2320 H 221.935 -0.325904 -3.87131 0
M  V30 2321 H 223.607 -2.91847 -3.57243 0
M  V30 2322 H 221.85 -2.79789 -3.31513 0
M  V30 2323 H 222.521 -2.49987 -4.92149 0
M  V30 2324 H 224.997 -0.761256 -4.09077 0
M  V30 2325 H 223.873 -0.564295 -5.45992 0
M  V30 2326 H 224.134 0.774144 -4.35269 0
M  V30 2327 N 223.193 1.4272 -0.668489 0
M  V30 2328 C 224.123 2.335 -0.000100175 0
M  V30 2329 C 225.104 1.50328 0.795964 0
M  V30 2330 O 226.289 1.78949 0.754385 0
M  V30 2331 C 223.419 3.33874 0.956302 0
M  V30 2332 C 222.373 4.27152 0.269278 0
M  V30 2333 C 221.699 5.17684 1.33818 0
M  V30 2334 C 222.999 5.15373 -0.847805 0
M  V30 2335 H 224.693 2.89639 -0.758244 0
M  V30 2336 H 222.239 1.39269 -0.366079 0
M  V30 2337 H 224.192 3.9629 1.43292 0
M  V30 2338 H 222.916 2.76025 1.74579 0
M  V30 2339 H 221.575 3.66123 -0.187042 0
M  V30 2340 H 221.223 4.56165 2.1195 0
M  V30 2341 H 220.923 5.80918 0.883659 0
M  V30 2342 H 222.447 5.82974 1.81586 0
M  V30 2343 H 223.861 5.7151 -0.452681 0
M  V30 2344 H 222.258 5.87407 -1.22773 0
M  V30 2345 H 223.328 4.5415 -1.69929 0
M  V30 2346 N 224.671 0.411399 1.52136 0
M  V30 2347 C 225.601 -0.404015 2.29978 0
M  V30 2348 C 226.582 -1.04412 1.34284 0
M  V30 2349 O 227.767 -1.0527 1.63192 0
M  V30 2350 C 224.897 -1.5197 3.12286 0
M  V30 2351 C 223.851 -1.00448 4.16046 0
M  V30 2352 C 223.177 -2.21393 4.86712 0
M  V30 2353 C 224.477 -0.0569336 5.22269 0
M  V30 2354 H 226.171 0.245529 2.98392 0
M  V30 2355 H 223.717 0.119525 1.43503 0
M  V30 2356 H 225.67 -2.09715 3.6551 0
M  V30 2357 H 224.394 -2.19716 2.41646 0
M  V30 2358 H 223.053 -0.449421 3.63835 0
M  V30 2359 H 222.701 -2.87699 4.12599 0
M  V30 2360 H 222.401 -1.87571 5.56858 0
M  V30 2361 H 223.925 -2.7974 5.4275 0
M  V30 2362 H 225.339 -0.54325 5.7072 0
M  V30 2363 H 223.736 0.192594 5.99791 0
M  V30 2364 H 224.806 0.887663 4.76706 0
M  V30 2365 N 226.149 -1.5696 0.141893 0
M  V30 2366 C 227.426 -1.87553 -0.555281 0
M  V30 2367 C 227.806 -1.04699 -1.83306 0
M  V30 2368 O 227.154 -0.132346 -2.28116 0
M  V30 2369 C 227.364 -3.39093 -0.825664 0
M  V30 2370 C 228.712 -4.08199 -1.16869 0
M  V30 2371 O 229.736 -3.44242 -0.915185 0
M  V30 2372 O 228.595 -5.21139 -1.6455 0
M  V30 2373 H 225.689 -0.777188 -0.282679 0
M  V30 2374 H 228.235 -1.68763 0.17812 0
M  V30 2375 H 227.007 -3.91221 0.0788633 0
M  V30 2376 H 226.63 -3.63393 -1.61343 0
M  V30 2377 N 227.627 0.131896 -1.57047 0
M  V30 2378 C 229.043 0.485031 -1.52051 0
M  V30 2379 C 229.243 1.82563 -0.85281 0
M  V30 2380 O 228.299 2.48817 -0.429694 0
M  V30 2381 C 229.612 0.481409 -2.96821 0
M  V30 2382 C 231.16 0.565868 -3.07842 0
M  V30 2383 C 231.635 0.592762 -4.54148 0
M  V30 2384 N 233.126 0.654564 -4.58552 0
M  V30 2385 C 233.861 0.696608 -5.69153 0
M  V30 2386 N 233.357 0.697078 -6.89284 0
M  V30 2387 N 235.15 0.738639 -5.57226 0
M  V30 2388 H 227.301 -0.746664 -1.98843 0
M  V30 2389 H 229.564 -0.273999 -0.90754 0
M  V30 2390 H 229.27 -0.435731 -3.4899 0
M  V30 2391 H 229.144 1.3139 -3.53577 0
M  V30 2392 H 231.531 1.47343 -2.55684 0
M  V30 2393 H 231.612 -0.29406 -2.54104 0
M  V30 2394 H 231.256 -0.310701 -5.06949 0
M  V30 2395 H 231.186 1.46939 -5.05684 0
M  V30 2396 H 233.677 0.660887 -3.72076 0
M  V30 2397 H 233.99 0.731426 -7.69331 0
M  V30 2398 H 232.335 0.66471 -6.91814 0
M  V30 2399 H 235.526 0.735545 -4.62285 0
M  V30 2400 H 235.699 0.767938 -6.43434 0
M  V30 2401 N 229.106 1.52395 0.401703 0
M  V30 2402 C 230.016 1.7917 1.51444 0
M  V30 2403 C 231.032 0.677691 1.6026 0
M  V30 2404 O 232.208 0.963909 1.76835 0
M  V30 2405 C 229.273 1.94347 2.87107 0
M  V30 2406 C 228.334 3.18257 2.88116 0
M  V30 2407 C 227.567 3.32701 4.17308 0
M  V30 2408 O 227.79 2.52238 5.11598 0
M  V30 2409 O 226.724 4.25891 4.25324 0
M  V30 2410 H 230.55 2.73633 1.31752 0
M  V30 2411 H 228.135 1.3733 0.588296 0
M  V30 2412 H 230.017 2.06109 3.67555 0
M  V30 2413 H 228.692 1.03073 3.06851 0
M  V30 2414 H 227.599 3.11947 2.06494 0
M  V30 2415 H 228.932 4.09336 2.73322 0
M  V30 2416 N 230.584 -0.659388 1.43143 0
M  V30 2417 C 231.516 -1.7849 1.43784 0
M  V30 2418 C 232.529 -1.5932 0.334787 0
M  V30 2419 O 233.718 -1.68155 0.598842 0
M  V30 2420 C 230.818 -3.15828 1.22906 0
M  V30 2421 C 229.991 -3.61711 2.45934 0
M  V30 2422 C 229.05 -4.77831 2.20371 0
M  V30 2423 O 228.076 -4.87586 2.93681 0
M  V30 2424 N 229.278 -5.67611 1.21647 0
M  V30 2425 H 232.043 -1.7842 2.40803 0
M  V30 2426 H 229.604 -0.84302 1.3822 0
M  V30 2427 H 231.596 -3.91189 1.03697 0
M  V30 2428 H 230.166 -3.10707 0.343542 0
M  V30 2429 H 229.386 -2.76861 2.80609 0
M  V30 2430 H 230.674 -3.89112 3.27825 0
M  V30 2431 H 230.072 -5.62397 0.610449 0
M  V30 2432 H 228.629 -6.42719 1.08423 0
M  V30 2433 N 232.062 -1.29571 -0.897171 0
M  V30 2434 C 233.31 -1.17456 -1.64464 0
M  V30 2435 C 233.631 0.273698 -1.9307 0
M  V30 2436 O 232.901 1.18684 -1.55855 0
M  V30 2437 H 231.481 -0.431706 -0.609622 0
M  V30 2438 H 234.143 -1.62531 -1.07562 0
M  V30 2439 H 233.239 -1.72648 -2.59998 0
M  V30 2440 N 233.54 1.10788 -1.12088 0
M  V30 2441 C 234.788 1.8231 -0.872205 0
M  V30 2442 C 235.109 1.85419 0.603709 0
M  V30 2443 O 234.379 1.32963 1.43867 0
M  V30 2444 H 232.959 0.675137 -0.319686 0
M  V30 2445 H 235.621 1.34068 -1.41463 0
M  V30 2446 H 234.717 2.85955 -1.25045 0
M  V30 2447 N 235.018 0.912232 1.28515 0
M  V30 2448 C 235.965 0.397954 2.27343 0
M  V30 2449 C 236.935 -0.526766 1.57526 0
M  V30 2450 O 238.12 -0.449292 1.85435 0
M  V30 2451 C 235.26 -0.357263 3.43246 0
M  V30 2452 C 234.373 0.599788 4.27816 0
M  V30 2453 C 233.508 -0.173725 5.30916 0
M  V30 2454 C 232.547 0.777039 6.07148 0
M  V30 2455 N 231.684 0.0371398 7.0209 0
M  V30 2456 H 236.524 1.24577 2.70711 0
M  V30 2457 H 234.061 0.625612 1.33133 0
M  V30 2458 H 236.019 -0.8113 4.09236 0
M  V30 2459 H 234.649 -1.16943 3.00872 0
M  V30 2460 H 233.701 1.17235 3.61884 0
M  V30 2461 H 235.013 1.32704 4.80823 0
M  V30 2462 H 234.167 -0.688394 6.02782 0
M  V30 2463 H 232.906 -0.934041 4.78672 0
M  V30 2464 H 231.911 1.3031 5.34134 0
M  V30 2465 H 233.136 1.53689 6.61481 0
M  V30 2466 H 231.082 -0.705213 6.52198 0
M  V30 2467 H 230.999 0.704249 7.52713 0
M  V30 2468 H 232.267 -0.457383 7.78157 0
M  V30 2469 N 236.496 -1.42363 0.676048 0
M  V30 2470 C 237.773 -1.95183 0.127726 0
M  V30 2471 C 238.153 -1.61641 -1.35777 0
M  V30 2472 O 237.501 -0.913216 -2.09458 0
M  V30 2473 C 237.711 -3.46721 0.398199 0
M  V30 2474 C 239.059 -4.23427 0.315383 0
M  V30 2475 O 240.083 -3.54649 0.332016 0
M  V30 2476 O 238.942 -5.45888 0.25865 0
M  V30 2477 H 236.036 -0.826992 0.00359427 0
M  V30 2478 H 238.582 -1.52184 0.750864 0
M  V30 2479 H 237.354 -3.64344 1.4272 0
M  V30 2480 H 236.977 -3.96769 -0.256885 0
M  V30 2481 N 237.974 -0.419461 -1.51915 0
M  V30 2482 C 238.921 0.400927 -2.27291 0
M  V30 2483 C 239.891 1.03224 -1.30131 0
M  V30 2484 O 241.076 1.05455 -1.59009 0
M  V30 2485 C 238.216 1.50603 -3.10504 0
M  V30 2486 C 237.329 0.89462 -4.22635 0
M  V30 2487 C 236.464 1.97328 -4.93189 0
M  V30 2488 C 235.503 1.33935 -5.97267 0
M  V30 2489 N 234.64 2.3586 -6.61298 0
M  V30 2490 H 239.48 -0.248251 -2.96964 0
M  V30 2491 H 237.017 -0.134266 -1.46486 0
M  V30 2492 H 238.975 2.15783 -3.57062 0
M  V30 2493 H 237.605 2.12509 -2.42981 0
M  V30 2494 H 236.657 0.131583 -3.80172 0
M  V30 2495 H 237.969 0.391641 -4.9726 0
M  V30 2496 H 237.123 2.70211 -5.43204 0
M  V30 2497 H 235.862 2.50994 -4.18155 0
M  V30 2498 H 234.867 0.595896 -5.46561 0
M  V30 2499 H 236.092 0.810252 -6.74249 0
M  V30 2500 H 234.038 2.88639 -5.89087 0
M  V30 2501 H 233.955 1.90403 -7.3163 0
M  V30 2502 H 235.223 3.08282 -7.15949 0
M  V30 2503 N 239.452 1.56882 -0.150215 0
M  V30 2504 C 240.382 2.19935 0.784284 0
M  V30 2505 C 241.363 1.14854 1.25469 0
M  V30 2506 O 242.548 1.43209 1.31168 0
M  V30 2507 C 239.678 2.82349 2.02229 0
M  V30 2508 C 238.632 3.93285 1.68853 0
M  V30 2509 C 237.958 4.42649 2.99944 0
M  V30 2510 C 239.258 5.13904 0.932714 0
M  V30 2511 H 240.952 2.9828 0.258781 0
M  V30 2512 H 238.498 1.43473 0.123029 0
M  V30 2513 H 240.451 3.25126 2.68088 0
M  V30 2514 H 239.175 2.0134 2.57157 0
M  V30 2515 H 237.834 3.5113 1.05371 0
M  V30 2516 H 237.482 3.58458 3.52869 0
M  V30 2517 H 237.182 5.17476 2.78374 0
M  V30 2518 H 238.706 4.88099 3.66868 0
M  V30 2519 H 240.12 5.53506 1.49345 0
M  V30 2520 H 238.517 5.94515 0.81684 0
M  V30 2521 H 239.587 4.84842 -0.0749568 0
M  V30 2522 N 240.93 -0.123565 1.57115 0
M  V30 2523 C 241.862 -1.17739 1.96648 0
M  V30 2524 C 242.875 -1.37906 0.865201 0
M  V30 2525 O 244.064 -1.37062 1.14351 0
M  V30 2526 C 241.164 -2.53821 2.24562 0
M  V30 2527 C 240.337 -2.54317 3.55867 0
M  V30 2528 C 239.396 -3.72112 3.72047 0
M  V30 2529 O 238.422 -3.55907 4.44206 0
M  V30 2530 N 239.624 -4.90498 3.10471 0
M  V30 2531 H 242.389 -0.841147 2.87654 0
M  V30 2532 H 239.95 -0.31289 1.58848 0
M  V30 2533 H 241.942 -3.31175 2.32606 0
M  V30 2534 H 240.512 -2.79645 1.39705 0
M  V30 2535 H 239.732 -1.62711 3.59053 0
M  V30 2536 H 241.02 -2.51701 4.42181 0
M  V30 2537 H 240.418 -5.06567 2.51806 0
M  V30 2538 H 238.975 -5.65544 3.24043 0
M  V30 2539 N 242.408 -1.52605 -0.393616 0
M  V30 2540 C 243.371 -1.76415 -1.46323 0
M  V30 2541 C 244.371 -0.634126 -1.47768 0
M  V30 2542 O 245.561 -0.902142 -1.4902 0
M  V30 2543 C 242.693 -1.8607 -2.85641 0
M  V30 2544 H 243.886 -2.71916 -1.26498 0
M  V30 2545 H 241.439 -1.43257 -0.625073 0
M  V30 2546 H 242.174 -0.925378 -3.10817 0
M  V30 2547 H 241.959 -2.68235 -2.85993 0
M  V30 2548 H 243.449 -2.06179 -3.63153 0
M  V30 2549 N 243.887 0.651787 -1.4349 0
M  V30 2550 C 244.837 1.75783 -1.45205 0
M  V30 2551 C 245.821 1.57679 -0.320328 0
M  V30 2552 O 247.013 1.67767 -0.564211 0
M  V30 2553 C 244.142 3.14377 -1.3792 0
M  V30 2554 C 243.228 3.38023 -2.56127 0
M  V30 2555 N 243.619 3.32135 -3.81471 0
M  V30 2556 C 241.917 3.68747 -2.50882 0
M  V30 2557 C 242.618 3.55902 -4.60118 0
M  V30 2558 N 241.594 3.77783 -3.90872 0
M  V30 2559 H 245.396 1.69657 -2.39987 0
M  V30 2560 H 242.91 0.853508 -1.38163 0
M  V30 2561 H 244.907 3.93666 -1.37231 0
M  V30 2562 H 243.567 3.21683 -0.441596 0
M  V30 2563 H 244.578 3.11515 -4.13738 0
M  V30 2564 H 241.255 3.8316 -1.65816 0
M  V30 2565 H 242.645 3.57116 -5.69138 0
M  V30 2566 N 245.365 1.30045 0.890287 0
M  V30 2567 C 246.613 1.18327 1.63839 0
M  V30 2568 C 246.934 -0.263455 1.93212 0
M  V30 2569 O 246.204 -1.17856 1.56482 0
M  V30 2570 H 244.784 0.434933 0.607324 0
M  V30 2571 H 247.446 1.631 1.06698 0
M  V30 2572 H 246.542 1.74024 2.59079 0
M  V30 2573 N 246.843 -1.10192 1.12674 0
M  V30 2574 C 248.092 -1.81573 0.8783 0
M  V30 2575 C 248.405 -1.86249 -0.597557 0
M  V30 2576 O 249.611 -2.5386 -0.962681 0
M  V30 2577 C 248.067 -3.26149 1.52167 0
M  V30 2578 C 247.675 -3.29763 3.03249 0
M  V30 2579 C 249.419 -4.0234 1.3536 0
M  V30 2580 C 247.326 -4.68815 3.60508 0
M  V30 2581 H 246.256 -0.680394 0.324931 0
M  V30 2582 H 248.907 -1.23902 1.35353 0
M  V30 2583 H 247.289 -3.83832 0.974104 0
M  V30 2584 H 248.463 -2.8189 3.6452 0
M  V30 2585 H 246.778 -2.67059 3.19481 0
M  V30 2586 H 249.375 -5.05058 1.75559 0
M  V30 2587 H 249.718 -4.15235 0.297554 0
M  V30 2588 H 250.251 -3.51079 1.87052 0
M  V30 2589 H 246.99 -4.61121 4.65884 0
M  V30 2590 H 246.51 -5.17045 3.04014 0
M  V30 2591 H 248.189 -5.37785 3.59717 0
M  V30 2592 N 248.321 -0.919034 -1.28029 0
M  V30 2593 C 249.737 -0.617972 -1.4715 0
M  V30 2594 C 249.937 0.835242 -1.83374 0
M  V30 2595 O 248.993 1.61388 -1.94191 0
M  V30 2596 C 250.306 -1.56041 -2.57044 0
M  V30 2597 C 251.854 -1.56769 -2.7091 0
M  V30 2598 C 252.329 -2.49688 -3.83953 0
M  V30 2599 N 253.82 -2.47845 -3.91314 0
M  V30 2600 C 254.555 -3.16437 -4.78179 0
M  V30 2601 N 254.051 -3.94376 -5.69596 0
M  V30 2602 N 255.844 -3.05498 -4.71834 0
M  V30 2603 H 247.995 -1.85866 -1.02798 0
M  V30 2604 H 250.258 -0.797506 -0.512531 0
M  V30 2605 H 249.964 -2.59671 -2.372 0
M  V30 2606 H 249.838 -1.29551 -3.54255 0
M  V30 2607 H 252.225 -0.538745 -2.90141 0
M  V30 2608 H 252.306 -1.87305 -1.74214 0
M  V30 2609 H 251.95 -3.52688 -3.65477 0
M  V30 2610 H 251.88 -2.16453 -4.80058 0
M  V30 2611 H 254.371 -1.91234 -3.25941 0
M  V30 2612 H 254.684 -4.43721 -6.32718 0
M  V30 2613 H 253.029 -3.98481 -5.69419 0
M  V30 2614 H 256.22 -2.44108 -3.99411 0
M  V30 2615 H 256.393 -3.59225 -5.39316 0
M  V30 2616 N 249.799 1.42003 -0.683588 0
M  V30 2617 C 250.729 2.33487 -0.024866 0
M  V30 2618 C 251.71 1.51163 0.779975 0
M  V30 2619 O 252.895 1.79739 0.735362 0
M  V30 2620 C 250.025 3.3487 0.920836 0
M  V30 2621 C 248.979 4.27414 0.223958 0
M  V30 2622 C 248.305 5.19074 1.2832 0
M  V30 2623 C 249.605 5.14445 -0.90242 0
M  V30 2624 H 251.299 2.88819 -0.788921 0
M  V30 2625 H 248.845 1.38873 -0.38083 0
M  V30 2626 H 250.798 3.97787 1.39081 0
M  V30 2627 H 249.522 2.77861 1.71642 0
M  V30 2628 H 248.181 3.65904 -0.225864 0
M  V30 2629 H 247.829 4.58387 2.071 0
M  V30 2630 H 247.529 5.81822 0.821995 0
M  V30 2631 H 249.053 5.84867 1.75392 0
M  V30 2632 H 250.467 5.70998 -0.513272 0
M  V30 2633 H 248.864 5.86072 -1.28997 0
M  V30 2634 H 249.934 4.52322 -1.74737 0
M  V30 2635 N 251.277 0.427512 1.51691 0
M  V30 2636 C 252.227 -0.406604 2.24345 0
M  V30 2637 C 253.211 -0.998276 1.26187 0
M  V30 2638 O 254.403 -0.918045 1.51331 0
M  V30 2639 C 251.532 -1.51266 3.08177 0
M  V30 2640 C 250.618 -0.930868 4.13758 0
M  V30 2641 N 251.009 -0.0773552 5.05741 0
M  V30 2642 C 249.307 -1.19948 4.29568 0
M  V30 2643 C 250.008 0.248344 5.8117 0
M  V30 2644 N 248.984 -0.365535 5.4237 0
M  V30 2645 H 252.786 0.251581 2.92821 0
M  V30 2646 H 250.3 0.239003 1.60632 0
M  V30 2647 H 252.297 -2.123 3.58796 0
M  V30 2648 H 250.957 -2.17328 2.41244 0
M  V30 2649 H 251.968 0.288351 5.17097 0
M  V30 2650 H 248.645 -1.85832 3.73862 0
M  V30 2651 H 250.035 0.942286 6.6526 0
M  V30 2652 N 252.755 -1.56801 0.158532 0
M  V30 2653 C 253.98 -2.01295 -0.499516 0
M  V30 2654 C 254.405 -1.03799 -1.56867 0
M  V30 2655 O 253.763 -0.0155162 -1.81293 0
M  V30 2656 C 253.811 -3.44469 -1.06647 0
M  V30 2657 O 252.915 -3.50012 -2.18095 0
M  V30 2658 H 252.256 -0.652884 -0.12099 0
M  V30 2659 H 254.786 -2.02958 0.258661 0
M  V30 2660 H 254.796 -3.8351 -1.39227 0
M  V30 2661 H 253.471 -4.14932 -0.283581 0
M  V30 2662 H 252.048 -3.22822 -1.86656 0
M  V30 2663 N 254.233 0.115231 -1.57178 0
M  V30 2664 C 255.479 0.82357 -1.85325 0
M  V30 2665 C 255.812 1.79349 -0.744814 0
M  V30 2666 O 255.087 1.92899 0.249024 0
M  V30 2667 C 255.37 1.57014 -3.24066 0
M  V30 2668 C 255.223 0.619565 -4.45513 0
M  V30 2669 C 256.542 2.52545 -3.60429 0
M  V30 2670 H 253.661 0.297948 -0.674089 0
M  V30 2671 H 256.303 0.0877138 -1.89797 0
M  V30 2672 H 254.453 2.19742 -3.20383 0
M  V30 2673 H 256.125 0.000837639 -4.613 0
M  V30 2674 H 254.368 -0.0686174 -4.33746 0
M  V30 2675 H 255.039 1.17866 -5.3927 0
M  V30 2676 H 257.515 1.9992 -3.64926 0
M  V30 2677 H 256.391 3.01811 -4.58477 0
M  V30 2678 H 256.652 3.35383 -2.88047 0
M  V30 2679 N 255.711 1.52812 0.385517 0
M  V30 2680 C 256.951 1.69716 1.13911 0
M  V30 2681 C 257.315 0.42962 1.87132 0
M  V30 2682 O 258.516 0.475071 2.64569 0
M  V30 2683 C 256.787 2.90021 2.0886 0
M  V30 2684 S 258.346 3.27531 2.92009 0
M  V30 2685 H 255.164 0.59739 0.385547 0
M  V30 2686 H 257.766 1.90868 0.423061 0
M  V30 2687 H 256.47 3.80493 1.53797 0
M  V30 2688 H 256.001 2.71213 2.84969 0
M  V30 2689 H 258.016 2.77989 4.11019 0
M  V30 2690 N 257.189 -0.644168 1.43834 0
M  V30 2691 C 258.417 -1.43147 1.49387 0
M  V30 2692 C 258.832 -1.88452 0.114583 0
M  V30 2693 O 258.189 -1.60047 -0.876989 0
M  V30 2694 C 258.24 -2.66046 2.44748 0
M  V30 2695 O 257.961 -2.22633 3.77314 0
M  V30 2696 C 259.462 -3.59311 2.59635 0
M  V30 2697 H 256.682 -0.439447 0.507077 0
M  V30 2698 H 259.226 -0.78895 1.88669 0
M  V30 2699 H 257.381 -3.26418 2.08638 0
M  V30 2700 H 257.795 -3.02216 4.28679 0
M  V30 2701 H 259.269 -4.42187 3.30416 0
M  V30 2702 H 259.746 -4.07259 1.64427 0
M  V30 2703 H 260.352 -3.04816 2.96593 0
M  V30 2704 N 258.668 -1.30515 -0.883378 0
M  V30 2705 C 259.598 -1.19607 -2.00541 0
M  V30 2706 C 260.579 -0.086346 -1.69881 0
M  V30 2707 O 261.764 -0.268654 -1.92333 0
M  V30 2708 C 258.894 -0.888758 -3.35736 0
M  V30 2709 C 257.848 -1.95659 -3.8066 0
M  V30 2710 C 257.174 -1.50224 -5.13164 0
M  V30 2711 C 258.474 -3.36788 -3.99213 0
M  V30 2712 H 260.168 -2.13476 -2.09925 0
M  V30 2713 H 257.714 -1.02775 -1.00863 0
M  V30 2714 H 259.667 -0.799094 -4.13754 0
M  V30 2715 H 258.391 0.0856125 -3.26488 0
M  V30 2716 H 257.05 -2.03591 -3.04871 0
M  V30 2717 H 256.698 -0.516092 -5.00345 0
M  V30 2718 H 256.398 -2.2165 -5.44192 0
M  V30 2719 H 257.922 -1.42639 -5.93706 0
M  V30 2720 H 259.336 -3.31605 -4.67665 0
M  V30 2721 H 257.733 -4.06314 -4.41621 0
M  V30 2722 H 258.803 -3.78561 -3.03017 0
M  V30 2723 N 260.146 1.09593 -1.13257 0
M  V30 2724 C 261.371 1.8604 -0.916732 0
M  V30 2725 C 261.796 1.80504 0.529146 0
M  V30 2726 O 261.154 1.18127 1.37534 0
M  V30 2727 C 261.202 3.32017 -1.40703 0
M  V30 2728 O 260.306 4.08141 -0.591153 0
M  V30 2729 H 259.647 0.576943 -0.328683 0
M  V30 2730 H 262.177 1.38405 -1.50682 0
M  V30 2731 H 262.187 3.82865 -1.4099 0
M  V30 2732 H 260.862 3.35361 -2.45979 0
M  V30 2733 H 259.439 3.67084 -0.656005 0
M  V30 2734 N 261.624 0.925811 1.2754 0
M  V30 2735 C 262.571 0.422045 2.26908 0
M  V30 2736 C 263.541 -0.510029 1.58076 0
M  V30 2737 O 264.726 -0.429599 1.85901 0
M  V30 2738 C 261.866 -0.320837 3.43605 0
M  V30 2739 C 260.979 0.64513 4.27156 0
M  V30 2740 C 260.114 -0.117405 5.3107 0
M  V30 2741 C 259.153 0.841391 6.0629 0
M  V30 2742 N 258.29 0.111604 7.02011 0
M  V30 2743 H 263.13 1.27441 2.69375 0
M  V30 2744 H 260.667 0.639697 1.32462 0
M  V30 2745 H 262.625 -0.76785 4.10073 0
M  V30 2746 H 261.255 -1.13745 3.02096 0
M  V30 2747 H 260.307 1.21067 3.6062 0
M  V30 2748 H 261.619 1.37797 4.79389 0
M  V30 2749 H 260.773 -0.624422 6.03478 0
M  V30 2750 H 259.512 -0.883219 4.79636 0
M  V30 2751 H 258.517 1.35967 5.32722 0
M  V30 2752 H 259.742 1.60696 6.59813 0
M  V30 2753 H 257.688 -0.635999 6.5291 0
M  V30 2754 H 257.605 0.784044 7.51923 0
M  V30 2755 H 258.873 -0.374823 7.78598 0
M  V30 2756 N 263.102 -1.41638 0.69111 0
M  V30 2757 C 264.035 -2.28183 -0.0274913 0
M  V30 2758 C 265.013 -1.41984 -0.792424 0
M  V30 2759 O 266.197 -1.71415 -0.784169 0
M  V30 2760 C 263.324 -3.22135 -1.04628 0
M  V30 2761 C 262.37 -4.24848 -0.375037 0
M  V30 2762 S 263.203 -5.28231 0.879321 0
M  V30 2763 C 264.359 -6.25748 -0.137983 0
M  V30 2764 H 264.592 -2.88782 0.706553 0
M  V30 2765 H 262.125 -1.46709 0.481222 0
M  V30 2766 H 264.083 -3.76797 -1.62894 0
M  V30 2767 H 262.744 -2.6064 -1.75287 0
M  V30 2768 H 261.937 -4.90837 -1.14433 0
M  V30 2769 H 261.539 -3.73758 0.134434 0
M  V30 2770 H 263.831 -6.70188 -0.992659 0
M  V30 2771 H 264.774 -7.06417 0.487867 0
M  V30 2772 H 265.182 -5.62363 -0.490762 0
M  V30 2773 N 264.58 -0.43555 -1.51462 0
M  V30 2774 C 265.51 0.367376 -2.30592 0
M  V30 2775 C 266.491 1.02263 -1.35928 0
M  V30 2776 O 267.676 1.02661 -1.64847 0
M  V30 2777 C 264.806 1.46983 -3.14664 0
M  V30 2778 C 263.76 0.938161 -4.17591 0
M  V30 2779 C 263.086 2.13622 -4.90173 0
M  V30 2780 C 264.386 -0.0261621 -5.22293 0
M  V30 2781 H 266.08 -0.292969 -2.97963 0
M  V30 2782 H 263.626 -0.14234 -1.43295 0
M  V30 2783 H 265.579 2.03873 -3.688 0
M  V30 2784 H 264.303 2.15843 -2.4511 0
M  V30 2785 H 262.962 0.391481 -3.64504 0
M  V30 2786 H 262.61 2.81098 -4.17124 0
M  V30 2787 H 262.31 1.78688 -5.59772 0
M  V30 2788 H 263.834 2.7107 -5.47132 0
M  V30 2789 H 265.248 0.452384 -5.71512 0
M  V30 2790 H 263.645 -0.287992 -5.99409 0
M  V30 2791 H 264.715 -0.963391 -4.75233 0
M  V30 2792 N 266.058 1.56714 -0.166846 0
M  V30 2793 C 266.968 2.21331 0.777791 0
M  V30 2794 C 267.984 1.20358 1.25658 0
M  V30 2795 O 269.16 1.53005 1.30964 0
M  V30 2796 C 266.225 2.83787 1.99163 0
M  V30 2797 C 265.286 3.99947 1.56016 0
M  V30 2798 C 264.519 4.59415 2.71613 0
M  V30 2799 O 264.742 4.17769 3.88362 0
M  V30 2800 O 263.676 5.49359 2.45945 0
M  V30 2801 H 267.502 3.02605 0.257636 0
M  V30 2802 H 265.087 1.49275 0.0611393 0
M  V30 2803 H 266.969 3.23405 2.70161 0
M  V30 2804 H 265.644 2.05513 2.50092 0
M  V30 2805 H 264.551 3.65007 0.819809 0
M  V30 2806 H 265.884 4.79801 1.09782 0
M  V30 2807 N 267.536 -0.106894 1.57237 0
M  V30 2808 C 268.785 -0.811163 1.8467 0
M  V30 2809 C 269.098 -1.80469 0.754342 0
M  V30 2810 O 270.304 -2.55601 0.915439 0
M  V30 2811 C 268.76 -1.49337 3.27454 0
M  V30 2812 C 268.368 -0.540217 4.44731 0
M  V30 2813 C 270.112 -2.18206 3.64124 0
M  V30 2814 C 268.019 -1.22634 5.78545 0
M  V30 2815 H 266.949 -0.306679 0.688813 0
M  V30 2816 H 269.6 -0.0639887 1.83388 0
M  V30 2817 H 267.982 -2.2876 3.23241 0
M  V30 2818 H 269.156 0.221659 4.60267 0
M  V30 2819 H 267.471 0.042146 4.16379 0
M  V30 2820 H 270.068 -2.70253 4.61376 0
M  V30 2821 H 270.411 -2.96562 2.92158 0
M  V30 2822 H 270.944 -1.45658 3.70174 0
M  V30 2823 H 267.683 -0.483832 6.53712 0
M  V30 2824 H 267.203 -1.95993 5.66874 0
M  V30 2825 H 268.882 -1.75615 6.2271 0
M  V30 2826 N 269.014 -1.53014 -0.377408 0
M  V30 2827 C 269.944 -1.81589 -1.46791 0
M  V30 2828 C 270.925 -0.668622 -1.56408 0
M  V30 2829 O 272.11 -0.917337 -1.71168 0
M  V30 2830 C 269.24 -1.99519 -2.8427 0
M  V30 2831 C 268.194 -3.15249 -2.89486 0
M  V30 2832 C 267.52 -3.18451 -4.29527 0
M  V30 2833 C 268.82 -4.54084 -2.58079 0
M  V30 2834 H 270.514 -2.7291 -1.23127 0
M  V30 2835 H 268.06 -1.31319 -0.590883 0
M  V30 2836 H 270.013 -2.18092 -3.60575 0
M  V30 2837 H 268.737 -1.04897 -3.09296 0
M  V30 2838 H 267.396 -2.96477 -2.15631 0
M  V30 2839 H 267.044 -2.2149 -4.5161 0
M  V30 2840 H 266.744 -3.962 -4.33934 0
M  V30 2841 H 268.268 -3.39193 -5.07721 0
M  V30 2842 H 269.682 -4.72899 -3.24098 0
M  V30 2843 H 268.079 -5.33987 -2.7382 0
M  V30 2844 H 269.149 -4.60006 -1.53372 0
M  V30 2845 N 270.492 0.636531 -1.44174 0
M  V30 2846 C 271.402 1.77754 -1.53103 0
M  V30 2847 C 272.418 1.68928 -0.417034 0
M  V30 2848 O 273.594 1.89801 -0.6736 0
M  V30 2849 C 270.659 3.14115 -1.46741 0
M  V30 2850 C 269.72 3.34612 -2.68948 0
M  V30 2851 C 268.953 4.64467 -2.6288 0
M  V30 2852 O 269.176 5.44919 -1.68581 0
M  V30 2853 O 268.11 4.87049 -3.53648 0
M  V30 2854 H 271.936 1.73174 -2.49489 0
M  V30 2855 H 269.521 0.79709 -1.2636 0
M  V30 2856 H 271.403 3.95412 -1.45696 0
M  V30 2857 H 270.078 3.19249 -0.534975 0
M  V30 2858 H 268.985 2.53014 -2.75562 0
M  V30 2859 H 270.318 3.34336 -3.61221 0
M  V30 2860 N 271.97 1.30982 0.876444 0
M  V30 2861 C 272.902 1.13902 1.98894 0
M  V30 2862 C 273.915 0.0798815 1.62604 0
M  V30 2863 O 275.104 0.326743 1.75484 0
M  V30 2864 C 272.204 0.716699 3.31235 0
M  V30 2865 C 271.377 1.85945 3.95908 0
M  V30 2866 C 270.436 1.42426 5.06558 0
M  V30 2867 O 269.462 2.13287 5.27729 0
M  V30 2868 N 270.664 0.308025 5.79682 0
M  V30 2869 H 273.429 2.09724 2.14094 0
M  V30 2870 H 270.99 1.2323 1.05004 0
M  V30 2871 H 272.982 0.408403 4.02634 0
M  V30 2872 H 271.552 -0.149719 3.12241 0
M  V30 2873 H 270.772 2.33541 3.17573 0
M  V30 2874 H 272.06 2.62503 4.35855 0
M  V30 2875 H 271.458 -0.282241 5.64995 0
M  V30 2876 H 270.015 0.0592282 6.51773 0
M  V30 2877 N 273.449 -1.08991 1.13837 0
M  V30 2878 C 274.381 -2.15606 0.777612 0
M  V30 2879 C 275.394 -1.61533 -0.202739 0
M  V30 2880 O 276.583 -1.78491 0.0181055 0
M  V30 2881 C 273.683 -3.3864 0.132623 0
M  V30 2882 C 272.856 -4.22115 1.1462 0
M  V30 2883 C 271.915 -5.23564 0.526074 0
M  V30 2884 O 270.941 -5.56678 1.18735 0
M  V30 2885 N 272.143 -5.76266 -0.699866 0
M  V30 2886 H 274.908 -2.47159 1.69506 0
M  V30 2887 H 272.469 -1.24747 1.03198 0
M  V30 2888 H 274.461 -4.03626 -0.29459 0
M  V30 2889 H 273.031 -3.04938 -0.687849 0
M  V30 2890 H 272.251 -3.53199 1.75055 0
M  V30 2891 H 273.539 -4.74709 1.83109 0
M  V30 2892 H 272.937 -5.51585 -1.25581 0
M  V30 2893 H 271.494 -6.42963 -1.06968 0
M  V30 2894 N 274.927 -0.932562 -1.27047 0
M  V30 2895 C 275.874 -0.434072 -2.26681 0
M  V30 2896 C 276.844 0.501639 -1.58344 0
M  V30 2897 O 278.029 0.419734 -1.86126 0
M  V30 2898 C 275.169 0.30261 -3.43771 0
M  V30 2899 C 274.282 -0.667774 -4.26808 0
M  V30 2900 C 273.417 0.0892393 -5.31125 0
M  V30 2901 C 272.456 -0.873532 -6.05835 0
M  V30 2902 N 271.593 -0.148832 -7.01942 0
M  V30 2903 H 276.433 -1.28868 -2.68695 0
M  V30 2904 H 273.97 -0.646713 -1.32121 0
M  V30 2905 H 275.928 0.746092 -4.10474 0
M  V30 2906 H 274.558 1.12142 -3.02695 0
M  V30 2907 H 273.61 -1.22978 -3.59973 0
M  V30 2908 H 274.922 -1.40337 -4.78651 0
M  V30 2909 H 274.076 0.592409 -6.03801 0
M  V30 2910 H 272.815 0.85777 -4.80097 0
M  V30 2911 H 271.82 -1.38791 -5.31994 0
M  V30 2912 H 273.045 -1.64193 -6.58952 0
M  V30 2913 H 270.991 0.601365 -6.53238 0
M  V30 2914 H 270.908 -0.82391 -7.51497 0
M  V30 2915 H 272.176 0.333527 -7.78786 0
M  V30 2916 N 276.405 1.4127 -0.698611 0
M  V30 2917 C 277.352 2.30773 -0.0352094 0
M  V30 2918 C 278.322 1.47273 0.768111 0
M  V30 2919 O 279.507 1.76053 0.735524 0
M  V30 2920 C 276.647 3.33346 0.893 0
M  V30 2921 C 275.76 4.31924 0.0809695 0
M  V30 2922 C 274.895 5.21566 1.0071 0
M  V30 2923 C 273.934 6.11811 0.188155 0
M  V30 2924 N 273.071 6.93926 1.06825 0
M  V30 2925 H 277.911 2.86943 -0.804207 0
M  V30 2926 H 275.448 1.4132 -0.408294 0
M  V30 2927 H 277.406 3.91368 1.44523 0
M  V30 2928 H 276.036 2.78719 1.62836 0
M  V30 2929 H 275.088 3.75825 -0.588224 0
M  V30 2930 H 276.4 4.95716 -0.553801 0
M  V30 2931 H 275.554 5.84437 1.62845 0
M  V30 2932 H 274.293 4.58008 1.67572 0
M  V30 2933 H 273.298 5.47986 -0.446254 0
M  V30 2934 H 274.523 6.77425 -0.476716 0
M  V30 2935 H 272.469 6.32973 1.72283 0
M  V30 2936 H 272.386 7.54416 0.489123 0
M  V30 2937 H 273.654 7.61262 1.67632 0
M  V30 2938 N 277.883 0.443576 1.51229 0
M  V30 2939 C 279.129 -0.120975 2.02439 0
M  V30 2940 C 279.462 -1.41815 1.32674 0
M  V30 2941 O 278.737 -1.89373 0.443622 0
M  V30 2942 C 279.02 -0.333291 3.58554 0
M  V30 2943 C 278.873 0.982968 4.38928 0
M  V30 2944 C 280.192 -1.10028 4.26124 0
M  V30 2945 H 277.311 -0.0424923 0.735774 0
M  V30 2946 H 279.953 0.583794 1.80809 0
M  V30 2947 H 278.103 -0.933614 3.77115 0
M  V30 2948 H 279.775 1.61775 4.32003 0
M  V30 2949 H 278.018 1.58611 4.03763 0
M  V30 2950 H 278.689 0.788379 5.46341 0
M  V30 2951 H 281.165 -0.591711 4.11871 0
M  V30 2952 H 280.041 -1.21761 5.35225 0
M  V30 2953 H 280.302 -2.12996 3.87408 0
M  V30 2954 N 279.361 -1.56624 0.175154 0
M  V30 2955 C 280.638 -1.88688 -0.515373 0
M  V30 2956 C 281.018 -1.08564 -1.81044 0
M  V30 2957 O 280.366 -0.180703 -2.27784 0
M  V30 2958 C 280.576 -3.40768 -0.753552 0
M  V30 2959 C 281.924 -4.10587 -1.08184 0
M  V30 2960 O 282.948 -3.46106 -0.841961 0
M  V30 2961 O 281.807 -5.24512 -1.53459 0
M  V30 2962 H 278.901 -0.78301 -0.26613 0
M  V30 2963 H 281.447 -1.68347 0.213877 0
M  V30 2964 H 280.219 -3.90965 0.161829 0
M  V30 2965 H 279.842 -3.66733 -1.53598 0
M  V30 2966 N 280.839 0.0985539 -1.57292 0
M  V30 2967 C 281.802 1.10402 -2.00858 0
M  V30 2968 C 282.802 1.33146 -0.901593 0
M  V30 2969 O 283.992 1.29318 -1.16716 0
M  V30 2970 C 281.124 2.45394 -2.36632 0
M  V30 2971 H 282.317 0.729099 -2.90902 0
M  V30 2972 H 279.87 0.343495 -1.52479 0
M  V30 2973 H 280.605 2.87769 -1.49531 0
M  V30 2974 H 280.39 2.30235 -3.17387 0
M  V30 2975 H 281.88 3.17718 -2.71007 0
M  V30 2976 N 282.317 1.53212 0.369288 0
M  V30 2977 C 283.227 1.82342 1.47609 0
M  V30 2978 C 284.243 0.711532 1.58787 0
M  V30 2979 O 285.419 1.0012 1.74751 0
M  V30 2980 C 282.484 2.00393 2.8292 0
M  V30 2981 C 281.545 3.24297 2.81301 0
M  V30 2982 C 280.778 3.41478 4.10157 0
M  V30 2983 O 281.001 2.63033 5.06132 0
M  V30 2984 O 279.935 4.34817 4.16194 0
M  V30 2985 H 283.761 2.76366 1.25918 0
M  V30 2986 H 281.346 1.38547 0.559034 0
M  V30 2987 H 283.228 2.13859 3.63101 0
M  V30 2988 H 281.903 1.09559 3.04596 0
M  V30 2989 H 280.81 3.16257 1.99831 0
M  V30 2990 H 282.143 4.15041 2.64578 0
M  V30 2991 N 283.795 -0.628877 1.44509 0
M  V30 2992 C 285.023 -1.41554 1.50897 0
M  V30 2993 C 285.438 -1.8832 0.134564 0
M  V30 2994 O 284.795 -1.60969 -0.859965 0
M  V30 2995 C 284.846 -2.63435 2.47556 0
M  V30 2996 O 284.567 -2.18619 3.79654 0
M  V30 2997 C 286.068 -3.56537 2.63431 0
M  V30 2998 H 283.288 -0.434044 0.511709 0
M  V30 2999 H 285.832 -0.768895 1.89495 0
M  V30 3000 H 283.987 -3.24187 2.12089 0
M  V30 3001 H 284.401 -2.97652 4.31861 0
M  V30 3002 H 285.875 -4.38657 3.35088 0
M  V30 3003 H 286.352 -4.05493 1.68738 0
M  V30 3004 H 286.958 -3.01653 2.9981 0
M  V30 3005 N 285.273 -1.31445 -0.869486 0
M  V30 3006 C 286.519 -1.21337 -1.62496 0
M  V30 3007 C 286.852 0.227872 -1.92858 0
M  V30 3008 O 286.127 1.16094 -1.56053 0
M  V30 3009 C 286.41 -2.05814 -2.95487 0
M  V30 3010 C 286.263 -3.5824 -2.72 0
M  V30 3011 C 287.582 -1.9079 -3.96594 0
M  V30 3012 H 284.701 -0.442135 -0.589649 0
M  V30 3013 H 287.343 -1.6124 -1.00507 0
M  V30 3014 H 285.493 -1.71913 -3.48394 0
M  V30 3015 H 287.165 -4.0228 -2.25762 0
M  V30 3016 H 285.408 -3.81647 -2.06224 0
M  V30 3017 H 286.079 -4.12657 -3.66631 0
M  V30 3018 H 288.555 -2.20459 -3.52898 0
M  V30 3019 H 287.431 -2.52199 -4.87531 0
M  V30 3020 H 287.692 -0.871341 -4.33428 0
M  V30 3021 N 286.751 1.08385 -1.14413 0
M  V30 3022 C 287.999 1.80419 -0.910679 0
M  V30 3023 C 288.32 1.86658 0.564243 0
M  V30 3024 O 287.59 1.35985 1.41014 0
M  V30 3025 H 286.17 0.668204 -0.333934 0
M  V30 3026 H 288.832 1.31037 -1.44275 0
M  V30 3027 H 287.928 2.83238 -1.31082 0
M  V30 3028 N 288.23 0.939286 1.26551 0
M  V30 3029 C 289.646 0.641304 1.46149 0
M  V30 3030 C 289.846 -0.805964 1.84679 0
M  V30 3031 O 288.902 -1.58278 1.96734 0
M  V30 3032 C 290.215 1.6011 2.54529 0
M  V30 3033 C 291.763 1.6106 2.68382 0
M  V30 3034 C 292.238 2.55765 3.79932 0
M  V30 3035 N 293.729 2.5404 3.87322 0
M  V30 3036 C 294.464 3.24004 4.73085 0
M  V30 3037 N 293.96 4.03388 5.63249 0
M  V30 3038 N 295.753 3.12965 4.66914 0
M  V30 3039 H 287.904 1.87478 0.998285 0
M  V30 3040 H 290.167 0.805559 0.499779 0
M  V30 3041 H 289.873 2.63412 2.33039 0
M  V30 3042 H 289.747 1.35171 3.52149 0
M  V30 3043 H 292.134 0.584835 2.89247 0
M  V30 3044 H 292.215 1.90053 1.71212 0
M  V30 3045 H 291.859 3.58458 3.5982 0
M  V30 3046 H 291.789 2.24063 4.76554 0
M  V30 3047 H 294.28 1.96396 3.22858 0
M  V30 3048 H 294.593 4.5373 6.25579 0
M  V30 3049 H 292.938 4.07489 5.63008 0
M  V30 3050 H 296.129 2.50432 3.95476 0
M  V30 3051 H 296.302 3.67759 5.33533 0
M  V30 3052 N 289.708 -1.40897 0.706093 0
M  V30 3053 C 290.954 -2.01352 0.241889 0
M  V30 3054 C 291.287 -1.55832 -1.15888 0
M  V30 3055 O 290.562 -0.774145 -1.7843 0
M  V30 3056 C 290.845 -3.58752 0.311311 0
M  V30 3057 C 290.698 -4.1437 1.74978 0
M  V30 3058 C 292.017 -4.38914 -0.322922 0
M  V30 3059 H 289.136 -0.731562 0.0893687 0
M  V30 3060 H 291.778 -1.67504 0.896802 0
M  V30 3061 H 289.928 -3.87718 -0.246302 0
M  V30 3062 H 291.6 -3.96239 2.36205 0
M  V30 3063 H 289.843 -3.69016 2.28057 0
M  V30 3064 H 290.514 -5.23532 1.74981 0
M  V30 3065 H 292.99 -4.15822 0.152089 0
M  V30 3066 H 291.866 -5.48358 -0.243855 0
M  V30 3067 H 292.127 -4.19176 -1.40513 0
M  V30 3068 N 291.186 -0.45159 -1.50991 0
M  V30 3069 C 292.133 0.352625 -2.2809 0
M  V30 3070 C 293.103 1.0044 -1.32291 0
M  V30 3071 O 294.288 1.02058 -1.6121 0
M  V30 3072 C 291.428 1.43983 -3.13629 0
M  V30 3073 C 290.541 0.804772 -4.24438 0
M  V30 3074 C 289.676 1.86822 -4.97263 0
M  V30 3075 C 288.715 1.21236 -5.99973 0
M  V30 3076 N 287.852 2.2178 -6.66152 0
M  V30 3077 H 292.692 -0.311186 -2.96371 0
M  V30 3078 H 290.229 -0.165308 -1.46168 0
M  V30 3079 H 292.187 2.08161 -3.61559 0
M  V30 3080 H 290.817 2.07307 -2.47434 0
M  V30 3081 H 289.869 0.0509129 -3.80366 0
M  V30 3082 H 291.181 0.286076 -4.97979 0
M  V30 3083 H 290.335 2.58628 -5.48813 0
M  V30 3084 H 289.074 2.42068 -4.23385 0
M  V30 3085 H 288.079 0.479828 -5.47702 0
M  V30 3086 H 289.304 0.667051 -6.75816 0
M  V30 3087 H 287.25 2.76079 -5.95077 0
M  V30 3088 H 287.167 1.74841 -7.35504 0
M  V30 3089 H 288.435 2.93026 -7.22327 0
M  V30 3090 N 292.664 1.56529 -0.183458 0
M  V30 3091 C 294.08 1.58664 0.172554 0
M  V30 3092 C 294.28 1.19925 1.61926 0
M  V30 3093 O 293.336 0.916534 2.35278 0
M  V30 3094 C 294.649 3.00463 -0.119262 0
M  V30 3095 C 296.197 3.12945 -0.0584396 0
M  V30 3096 C 296.672 4.56857 -0.323408 0
M  V30 3097 N 298.163 4.62403 -0.271612 0
M  V30 3098 C 298.898 5.71626 -0.450639 0
M  V30 3099 N 298.394 6.89362 -0.689384 0
M  V30 3100 N 300.187 5.60775 -0.385701 0
M  V30 3101 H 292.338 1.79994 -1.12765 0
M  V30 3102 H 294.601 0.834808 -0.449222 0
M  V30 3103 H 294.307 3.33326 -1.12192 0
M  V30 3104 H 294.181 3.72659 0.583544 0
M  V30 3105 H 296.568 2.79902 0.934805 0
M  V30 3106 H 296.649 2.4316 -0.794144 0
M  V30 3107 H 296.293 4.9061 -1.31392 0
M  V30 3108 H 296.223 5.24816 0.43305 0
M  V30 3109 H 298.714 3.77785 -0.0932256 0
M  V30 3110 H 299.027 7.68489 -0.815113 0
M  V30 3111 H 297.372 6.91196 -0.726142 0
M  V30 3112 H 300.563 4.67674 -0.199687 0
M  V30 3113 H 300.736 6.4584 -0.528646 0
M  V30 3114 N 294.142 -0.090211 1.57342 0
M  V30 3115 C 295.389 -0.792807 1.86335 0
M  V30 3116 C 295.717 -1.78494 0.772662 0
M  V30 3117 O 294.972 -1.94305 -0.233258 0
M  V30 3118 C 295.271 -1.55222 3.21933 0
M  V30 3119 C 294.937 -0.701765 4.45406 0
M  V30 3120 C 293.599 -0.467334 4.78925 0
M  V30 3121 C 295.951 -0.11086 5.21082 0
M  V30 3122 C 293.279 0.367785 5.85546 0
M  V30 3123 C 295.631 0.711609 6.28585 0
M  V30 3124 C 294.295 0.956086 6.60617 0
M  V30 3125 H 293.565 -0.290109 0.681849 0
M  V30 3126 H 296.212 -0.0541332 1.91423 0
M  V30 3127 H 294.517 -2.3626 3.12551 0
M  V30 3128 H 296.214 -2.10032 3.41595 0
M  V30 3129 H 292.804 -0.894598 4.1916 0
M  V30 3130 H 296.988 -0.279129 4.95514 0
M  V30 3131 H 292.244 0.566128 6.08773 0
M  V30 3132 H 296.418 1.17632 6.86393 0
M  V30 3133 H 294.045 1.60499 7.43064 0
M  V30 3134 N 295.62 -1.53406 -0.361157 0
M  V30 3135 C 296.869 -1.69022 -1.10066 0
M  V30 3136 C 297.182 -0.450838 -1.90333 0
M  V30 3137 O 298.388 -0.487617 -2.67085 0
M  V30 3138 C 296.844 -2.98812 -2.00598 0
M  V30 3139 C 296.452 -4.30027 -1.25621 0
M  V30 3140 C 298.196 -3.23795 -2.74513 0
M  V30 3141 C 296.103 -5.50903 -2.1508 0
M  V30 3142 H 295.033 -0.629776 -0.414606 0
M  V30 3143 H 297.684 -1.79907 -0.361348 0
M  V30 3144 H 296.066 -2.8174 -2.78278 0
M  V30 3145 H 297.24 -4.57745 -0.529739 0
M  V30 3146 H 295.555 -4.11522 -0.635496 0
M  V30 3147 H 298.152 -4.11289 -3.41681 0
M  V30 3148 H 298.495 -2.40045 -3.40123 0
M  V30 3149 H 299.028 -3.41561 -2.03914 0
M  V30 3150 H 295.767 -6.37143 -1.54041 0
M  V30 3151 H 295.287 -5.27459 -2.85565 0
M  V30 3152 H 296.966 -5.85865 -2.74538 0
M  V30 3153 N 297.098 0.621204 -1.44841 0
M  V30 3154 C 298.03 1.74615 -1.48466 0
M  V30 3155 C 299.043 1.58377 -0.37691 0
M  V30 3156 O 300.232 1.66508 -0.643215 0
M  V30 3157 C 297.332 3.12459 -1.31236 0
M  V30 3158 C 296.505 3.55064 -2.55438 0
M  V30 3159 C 295.564 4.71821 -2.32963 0
M  V30 3160 O 294.59 4.79628 -3.06505 0
M  V30 3161 N 295.792 5.64186 -1.36654 0
M  V30 3162 H 298.557 1.71973 -2.45449 0
M  V30 3163 H 296.118 0.806077 -1.40407 0
M  V30 3164 H 298.11 3.88302 -1.14032 0
M  V30 3165 H 296.68 3.09686 -0.4258 0
M  V30 3166 H 295.9 2.69324 -2.87851 0
M  V30 3167 H 297.188 3.80284 -3.38026 0
M  V30 3168 H 296.586 5.6058 -0.759344 0
M  V30 3169 H 295.143 6.39618 -1.25425 0
M  V30 3170 N 298.576 1.31904 0.862503 0
M  V30 3171 C 299.486 1.22161 2.00285 0
M  V30 3172 C 300.502 0.136785 1.73462 0
M  V30 3173 O 301.678 0.355994 1.98229 0
M  V30 3174 C 298.743 0.937093 3.33796 0
M  V30 3175 C 297.804 2.10957 3.73893 0
M  V30 3176 C 297.037 1.83853 5.01033 0
M  V30 3177 O 297.26 0.777274 5.65079 0
M  V30 3178 O 296.194 2.69741 5.38074 0
M  V30 3179 H 300.02 2.18008 2.11439 0
M  V30 3180 H 297.605 1.11716 0.991957 0
M  V30 3181 H 299.487 0.794583 4.13841 0
M  V30 3182 H 298.162 0.00871894 3.23699 0
M  V30 3183 H 297.069 2.30752 2.94456 0
M  V30 3184 H 298.402 3.02046 3.88625 0
M  V30 3185 N 300.054 -1.07777 1.14986 0
M  V30 3186 C 301.002 -2.16964 0.838406 0
M  V30 3187 C 301.996 -1.68372 -0.186386 0
M  V30 3188 O 303.202 -1.79951 -0.0418465 0
M  V30 3189 H 299.577 -0.708006 0.253439 0
M  V30 3190 H 301.548 -2.40454 1.76704 0
M  V30 3191 C 300.297 -3.4604 0.339335 0
M  V30 3192 H 299.62 -3.83813 1.11927 0
M  V30 3193 H 301.06 -4.23698 0.160021 0
M  V30 3194 C 299.519 -3.23569 -0.938325 0
M  V30 3195 O 300.049 -3.47752 -2.01077 0
M  V30 3196 N 298.255 -2.77079 -0.876117 0
M  V30 3197 H 297.802 -2.576 -0.00322037 0
M  V30 3198 H 297.76 -2.62422 -1.73153 0
M  V30 3199 N 301.532 -0.945985 -1.26051 0
M  V30 3200 C 302.778 -0.597002 -1.93814 0
M  V30 3201 C 303.111 0.862484 -1.73997 0
M  V30 3202 O 302.386 1.61769 -1.07986 0
M  V30 3203 C 302.669 -0.945937 -3.47454 0
M  V30 3204 C 302.522 -2.46052 -3.76535 0
M  V30 3205 C 303.841 -0.464785 -4.37639 0
M  V30 3206 H 300.96 -0.218366 -0.703907 0
M  V30 3207 H 303.602 -1.18107 -1.48831 0
M  V30 3208 H 301.752 -0.448902 -3.85898 0
M  V30 3209 H 303.424 -3.03065 -3.47778 0
M  V30 3210 H 301.667 -2.90194 -3.22444 0
M  V30 3211 H 302.338 -2.65517 -4.83947 0
M  V30 3212 H 304.814 -0.891016 -4.06448 0
M  V30 3213 H 303.69 -0.737712 -5.4392 0
M  V30 3214 H 303.951 0.635274 -4.37512 0
M  V30 3215 N 303.011 1.40521 -0.713556 0
M  V30 3216 C 304.258 2.00923 -0.25219 0
M  V30 3217 C 304.586 1.56571 1.15395 0
M  V30 3218 O 303.841 0.775874 1.79663 0
M  V30 3219 C 304.14 3.56317 -0.278 0
M  V30 3220 C 303.806 4.20246 -1.63415 0
M  V30 3221 C 302.468 4.37422 -2.00538 0
M  V30 3222 C 304.82 4.55923 -2.52554 0
M  V30 3223 C 302.148 4.87558 -3.2635 0
M  V30 3224 C 304.5 5.07458 -3.77716 0
M  V30 3225 C 303.164 5.22843 -4.14959 0
M  V30 3226 H 302.434 0.735231 -0.0922829 0
M  V30 3227 H 305.081 1.68161 -0.916188 0
M  V30 3228 H 303.386 3.88976 0.469567 0
M  V30 3229 H 305.083 4.00883 0.0967819 0
M  V30 3230 H 301.673 4.07263 -1.33546 0
M  V30 3231 H 305.857 4.42291 -2.25149 0
M  V30 3232 H 301.113 4.97654 -3.55176 0
M  V30 3233 H 305.287 5.34041 -4.4696 0
M  V30 3234 H 302.914 5.61454 -5.12516 0
M  V30 3235 N 304.489 0.459591 1.5075 0
M  V30 3236 C 305.735 -0.0994966 2.02556 0
M  V30 3237 C 306.068 -1.40399 1.3417 0
M  V30 3238 O 305.343 -1.88892 0.463683 0
M  V30 3239 C 305.626 -0.295242 3.58888 0
M  V30 3240 C 305.479 1.02947 4.37861 0
M  V30 3241 C 306.798 -1.05502 4.27267 0
M  V30 3242 H 303.917 -0.034686 0.736183 0
M  V30 3243 H 306.559 0.602938 1.8018 0
M  V30 3244 H 304.709 -0.893563 3.78084 0
M  V30 3245 H 306.381 1.66348 4.30263 0
M  V30 3246 H 304.624 1.62885 4.02058 0
M  V30 3247 H 305.295 0.846281 5.45474 0
M  V30 3248 H 307.771 -0.547993 4.12476 0
M  V30 3249 H 306.647 -1.16077 5.36486 0
M  V30 3250 H 306.908 -2.08875 3.89645 0
M  V30 3251 N 305.967 -1.56429 0.191757 0
M  V30 3252 C 306.93 -2.17707 -0.716688 0
M  V30 3253 C 307.93 -1.13061 -1.14341 0
M  V30 3254 O 309.12 -1.38464 -1.05704 0
M  V30 3255 C 306.252 -2.77644 -1.97804 0
M  V30 3256 H 307.445 -2.99342 -0.1829 0
M  V30 3257 H 304.998 -1.56193 -0.0578566 0
M  V30 3258 H 305.733 -1.99799 -2.55443 0
M  V30 3259 H 305.518 -3.54246 -1.68083 0
M  V30 3260 H 307.008 -3.24708 -2.62592 0
M  V30 3261 N 307.445 0.0818655 -1.57387 0
M  V30 3262 C 308.408 1.08265 -2.02018 0
M  V30 3263 C 309.408 1.32183 -0.915664 0
M  V30 3264 O 310.598 1.28073 -1.18081 0
M  V30 3265 C 307.73 2.42871 -2.39221 0
M  V30 3266 H 308.923 0.698204 -2.91659 0
M  V30 3267 H 306.476 0.327303 -1.52835 0
M  V30 3268 H 307.211 2.86167 -1.52575 0
M  V30 3269 H 306.996 2.26855 -3.19811 0
M  V30 3270 H 308.486 3.14826 -2.74362 0
M  V30 3271 N 308.923 1.53595 0.353017 0
M  V30 3272 C 309.871 1.81605 1.45335 0
M  V30 3273 C 310.865 0.685923 1.54892 0
M  V30 3274 O 312.071 0.869095 1.57628 0
M  V30 3275 H 308.446 0.575204 0.484401 0
M  V30 3276 H 310.417 2.73679 1.18921 0
M  V30 3277 C 309.166 2.03406 2.81995 0
M  V30 3278 H 308.489 2.89814 2.75405 0
M  V30 3279 H 309.929 2.26975 3.58132 0
M  V30 3280 C 308.388 0.816794 3.26849 0
M  V30 3281 O 308.918 0.0115856 4.01698 0
M  V30 3282 N 307.124 0.636682 2.8354 0
M  V30 3283 H 306.671 1.2931 2.22793 0
M  V30 3284 H 306.629 -0.176336 3.13905 0
M  V30 3285 N 310.401 -0.613514 1.45168 0
M  V30 3286 C 311.351 -1.71871 1.49815 0
M  V30 3287 C 312.335 -1.56774 0.362021 0
M  V30 3288 O 313.527 -1.66212 0.608493 0
M  V30 3289 C 310.656 -3.1061 1.46207 0
M  V30 3290 C 309.742 -3.31114 2.64999 0
M  V30 3291 N 310.133 -3.21904 3.90143 0
M  V30 3292 C 308.431 -3.61966 2.6057 0
M  V30 3293 C 309.132 -3.43577 4.69393 0
M  V30 3294 N 308.108 -3.67287 4.00751 0
M  V30 3295 H 311.91 -1.63235 2.444 0
M  V30 3296 H 309.424 -0.816577 1.40377 0
M  V30 3297 H 311.421 -3.8989 1.4762 0
M  V30 3298 H 310.081 -3.20399 0.52673 0
M  V30 3299 H 311.092 -3.00436 4.21852 0
M  V30 3300 H 307.769 -3.78629 1.75916 0
M  V30 3301 H 309.159 -3.41901 5.78406 0
M  V30 3302 N 311.879 -1.3236 -0.855495 0
M  V30 3303 C 312.827 -1.2118 -1.9854 0
M  V30 3304 C 313.821 -0.116788 -1.68997 0
M  V30 3305 O 315.027 -0.279657 -1.77814 0
M  V30 3306 H 311.402 -0.375608 -0.651477 0
M  V30 3307 H 313.373 -2.16743 -2.05098 0
M  V30 3308 C 312.122 -0.950849 -3.34446 0
M  V30 3309 H 311.445 -1.78563 -3.57708 0
M  V30 3310 H 312.885 -0.912863 -4.14057 0
M  V30 3311 C 311.344 0.346404 -3.35114 0
M  V30 3312 O 311.874 1.35855 -3.7803 0
M  V30 3313 N 310.08 0.36808 -2.88259 0
M  V30 3314 H 309.627 -0.456102 -2.5353 0
M  V30 3315 H 309.585 1.23591 -2.89089 0
M  V30 3316 N 313.357 1.07166 -1.15556 0
M  V30 3317 C 314.605 1.79443 -0.929764 0
M  V30 3318 C 314.926 1.87246 0.544414 0
M  V30 3319 O 314.196 1.37473 1.39564 0
M  V30 3320 H 312.776 0.664625 -0.341003 0
M  V30 3321 H 315.438 1.29499 -1.45657 0
M  V30 3322 H 314.534 2.81832 -1.34079 0
M  V30 3323 N 314.835 0.952656 1.25548 0
M  V30 3324 C 316.06 0.623025 1.97821 0
M  V30 3325 C 316.485 -0.7976 1.70352 0
M  V30 3326 O 315.843 -1.53905 0.958283 0
M  V30 3327 C 315.891 0.885532 3.49558 0
M  V30 3328 O 314.995 -0.0366641 4.12384 0
M  V30 3329 H 314.336 0.237082 0.620232 0
M  V30 3330 H 316.866 1.27871 1.59719 0
M  V30 3331 H 316.876 0.811009 3.99858 0
M  V30 3332 H 315.551 1.92094 3.6888 0
M  V30 3333 H 314.128 0.0898954 3.72792 0
M  V30 3334 N 316.313 -1.40141 0.720998 0
M  V30 3335 C 317.724 -1.83678 0.334553 0
M  V30 3336 C 318.075 -1.6027 -1.13173 0
M  V30 3337 O 317.2 -1.08643 -1.87152 0
M  V30 3338 C 317.795 -3.33437 0.600437 0
M  V30 3339 C 316.354 -3.75447 0.267642 0
M  V30 3340 C 315.501 -2.63296 0.870097 0
M  V30 3341 H 318.452 -1.29331 0.919732 0
M  V30 3342 H 318.473 -3.80269 -0.132517 0
M  V30 3343 H 317.985 -3.50442 1.66768 0
M  V30 3344 H 316.086 -3.64035 -0.794329 0
M  V30 3345 H 316.199 -4.73344 0.74042 0
M  V30 3346 H 314.563 -2.52954 0.297739 0
M  V30 3347 H 315.346 -2.83112 1.94172 0
M  V30 3348 N 317.792 -0.46758 -1.50504 0
M  V30 3349 C 318.722 0.318381 -2.31319 0
M  V30 3350 C 319.703 0.993564 -1.38066 0
M  V30 3351 O 320.888 0.991411 -1.66987 0
M  V30 3352 C 318.018 1.40275 -3.17711 0
M  V30 3353 C 316.972 0.849373 -4.19487 0
M  V30 3354 C 316.298 2.03177 -4.94594 0
M  V30 3355 C 317.598 -0.136942 -5.2212 0
M  V30 3356 H 319.292 -0.356106 -2.97275 0
M  V30 3357 H 316.838 -0.172703 -1.42961 0
M  V30 3358 H 318.791 1.96004 -3.73042 0
M  V30 3359 H 317.515 2.10596 -2.49634 0
M  V30 3360 H 316.174 0.314076 -3.65252 0
M  V30 3361 H 315.822 2.72187 -4.22993 0
M  V30 3362 H 315.522 1.66774 -5.63436 0
M  V30 3363 H 317.046 2.59403 -5.52759 0
M  V30 3364 H 318.46 0.331056 -5.72343 0
M  V30 3365 H 316.857 -0.41507 -5.98663 0
M  V30 3366 H 317.927 -1.06398 -4.73083 0
M  V30 3367 N 319.27 1.56325 -0.20005 0
M  V30 3368 C 320.495 2.02548 0.44597 0
M  V30 3369 C 320.92 1.07922 1.5406 0
M  V30 3370 O 320.278 0.0635775 1.81188 0
M  V30 3371 C 320.326 3.47175 0.974761 0
M  V30 3372 O 319.43 3.55671 2.08739 0
M  V30 3373 H 318.771 0.655862 0.103638 0
M  V30 3374 H 321.301 2.02201 -0.312381 0
M  V30 3375 H 321.311 3.87067 1.2901 0
M  V30 3376 H 319.986 4.15538 0.17347 0
M  V30 3377 H 318.563 3.27657 1.78032 0
M  V30 3378 N 320.748 -0.0735177 1.57428 0
M  V30 3379 C 321.997 -0.771809 1.86349 0
M  V30 3380 C 322.31 -1.78828 0.792452 0
M  V30 3381 O 323.516 -2.53602 0.96945 0
M  V30 3382 C 321.972 -1.42358 3.30548 0
M  V30 3383 C 321.58 -0.445761 4.45777 0
M  V30 3384 C 323.324 -2.10434 3.6867 0
M  V30 3385 C 321.231 -1.10335 5.81016 0
M  V30 3386 H 320.161 -0.291999 0.695164 0
M  V30 3387 H 322.812 -0.0250749 1.83483 0
M  V30 3388 H 321.194 -2.21852 3.28021 0
M  V30 3389 H 322.368 0.319239 4.59693 0
M  V30 3390 H 320.683 0.130457 4.16196 0
M  V30 3391 H 323.28 -2.60405 4.67004 0
M  V30 3392 H 323.623 -2.90298 2.98383 0
M  V30 3393 H 324.156 -1.37773 3.7318 0
M  V30 3394 H 320.895 -0.345061 6.54591 0
M  V30 3395 H 320.415 -1.83925 5.70904 0
M  V30 3396 H 322.094 -1.62367 6.26295 0
M  V30 3397 N 322.226 -1.5378 -0.344866 0
M  V30 3398 C 323.173 -1.81676 -1.42346 0
M  V30 3399 C 324.143 -0.662376 -1.52321 0
M  V30 3400 O 325.328 -0.906675 -1.67881 0
M  V30 3401 C 322.468 -2.03087 -2.79015 0
M  V30 3402 C 321.581 -3.30799 -2.77842 0
M  V30 3403 C 320.716 -3.42285 -4.0622 0
M  V30 3404 C 319.755 -4.6395 -3.9927 0
M  V30 3405 N 318.892 -4.72477 -5.19336 0
M  V30 3406 H 323.732 -2.73703 -1.17858 0
M  V30 3407 H 321.269 -1.35568 -0.570949 0
M  V30 3408 H 323.227 -2.1349 -3.58438 0
M  V30 3409 H 321.857 -1.14375 -3.01858 0
M  V30 3410 H 320.909 -3.29244 -1.90533 0
M  V30 3411 H 322.221 -4.20314 -2.68584 0
M  V30 3412 H 321.375 -3.52113 -4.94066 0
M  V30 3413 H 320.114 -2.50823 -4.18258 0
M  V30 3414 H 319.119 -4.54201 -3.09809 0
M  V30 3415 H 320.344 -5.56775 -3.88817 0
M  V30 3416 H 318.29 -3.83924 -5.3192 0
M  V30 3417 H 318.207 -5.55927 -5.12329 0
M  V30 3418 H 319.475 -4.86613 -6.08957 0
M  V30 3419 N 323.704 0.605807 -1.45491 0
M  V30 3420 C 324.614 1.74466 -1.56839 0
M  V30 3421 C 325.63 1.68006 -0.452772 0
M  V30 3422 O 326.806 1.8833 -0.713708 0
M  V30 3423 C 323.871 3.10931 -1.53371 0
M  V30 3424 C 322.932 3.28832 -2.75986 0
M  V30 3425 C 322.165 4.58787 -2.72673 0
M  V30 3426 O 322.388 5.4122 -1.80102 0
M  V30 3427 O 321.322 4.79438 -3.63899 0
M  V30 3428 H 325.148 1.67843 -2.53106 0
M  V30 3429 H 322.733 0.770108 -1.28022 0
M  V30 3430 H 324.615 3.92233 -1.54051 0
M  V30 3431 H 323.29 3.18042 -0.602572 0
M  V30 3432 H 322.197 2.47112 -2.80867 0
M  V30 3433 H 323.53 3.26599 -3.68231 0
M  V30 3434 N 325.182 1.32811 0.848464 0
M  V30 3435 C 326.145 1.22194 1.9391 0
M  V30 3436 C 327.145 0.143404 1.60159 0
M  V30 3437 O 328.335 0.394253 1.6968 0
M  V30 3438 C 325.467 0.88067 3.29328 0
M  V30 3439 H 326.66 2.19127 2.04752 0
M  V30 3440 H 324.213 1.16731 1.0394 0
M  V30 3441 H 324.948 -0.0865776 3.24184 0
M  V30 3442 H 324.733 1.66052 3.55203 0
M  V30 3443 H 326.223 0.830871 4.09251 0
M  V30 3444 N 326.66 -1.06551 1.16123 0
M  V30 3445 C 328.071 -1.60768 0.949232 0
M  V30 3446 C 328.422 -1.89523 -0.507508 0
M  V30 3447 O 327.547 -1.66671 -1.38021 0
M  V30 3448 C 328.142 -2.92086 1.71671 0
M  V30 3449 C 326.701 -3.43015 1.54977 0
M  V30 3450 C 325.848 -2.16947 1.72711 0
M  V30 3451 H 328.799 -0.895354 1.31031 0
M  V30 3452 H 328.82 -3.6138 1.19099 0
M  V30 3453 H 328.332 -2.71127 2.7769 0
M  V30 3454 H 326.433 -3.69039 0.513873 0
M  V30 3455 H 326.546 -4.18516 2.33198 0
M  V30 3456 H 324.91 -2.27041 1.15431 0
M  V30 3457 H 325.693 -1.98473 2.80113 0
M  V30 3458 N 328.138 -0.959301 -1.25041 0
M  V30 3459 C 329.085 -0.482057 -2.2571 0
M  V30 3460 C 330.055 0.467939 -1.59372 0
M  V30 3461 O 331.24 0.380159 -1.86974 0
M  V30 3462 C 328.38 0.229623 -3.44335 0
M  V30 3463 C 327.493 -0.758156 -4.25295 0
M  V30 3464 C 326.628 -0.0234403 -5.31195 0
M  V30 3465 C 325.667 -1.00184 -6.03846 0
M  V30 3466 N 324.804 -0.29769 -7.01469 0
M  V30 3467 H 329.644 -1.34538 -2.65901 0
M  V30 3468 H 327.181 -0.674592 -1.3072 0
M  V30 3469 H 329.139 0.658856 -4.11965 0
M  V30 3470 H 327.769 1.05696 -3.05005 0
M  V30 3471 H 326.821 -1.30586 -3.57284 0
M  V30 3472 H 328.133 -1.50458 -4.75567 0
M  V30 3473 H 327.287 0.464201 -6.04922 0
M  V30 3474 H 326.026 0.755741 -4.81809 0
M  V30 3475 H 325.031 -1.50044 -5.2893 0
M  V30 3476 H 326.256 -1.78133 -6.55321 0
M  V30 3477 H 324.202 0.462668 -6.54366 0
M  V30 3478 H 324.119 -0.983128 -7.4958 0
M  V30 3479 H 325.387 0.16826 -7.79318 0
M  V30 3480 N 329.616 1.39756 -0.72842 0
M  V30 3481 C 330.526 2.34444 -0.0855374 0
M  V30 3482 C 331.542 1.57976 0.729356 0
M  V30 3483 O 332.718 1.90301 0.659346 0
M  V30 3484 C 329.783 3.36965 0.815798 0
M  V30 3485 C 328.844 4.29299 -0.0105996 0
M  V30 3486 C 328.077 5.26923 0.84781 0
M  V30 3487 O 328.3 5.30859 2.08673 0
M  V30 3488 O 327.234 6.01249 0.279969 0
M  V30 3489 H 331.06 2.91065 -0.866892 0
M  V30 3490 H 328.645 1.4117 -0.48902 0
M  V30 3491 H 330.527 3.99804 1.33171 0
M  V30 3492 H 329.202 2.82739 1.57608 0
M  V30 3493 H 328.109 3.69703 -0.571877 0
M  V30 3494 H 329.442 4.86712 -0.73295 0
M  V30 3495 N 331.094 0.475555 1.50254 0
M  V30 3496 C 332.024 -0.30611 2.31485 0
M  V30 3497 C 333.005 -0.986228 1.38591 0
M  V30 3498 O 334.19 -0.982541 1.67511 0
M  V30 3499 C 331.32 -1.38588 3.1845 0
M  V30 3500 C 330.274 -0.827115 4.19932 0
M  V30 3501 C 329.6 -2.00551 4.95665 0
M  V30 3502 C 330.9 0.16463 5.2204 0
M  V30 3503 H 332.594 0.371866 2.97082 0
M  V30 3504 H 330.14 0.180282 1.42867 0
M  V30 3505 H 332.093 -1.94023 3.74076 0
M  V30 3506 H 330.817 -2.09269 2.50747 0
M  V30 3507 H 329.476 -0.294702 3.65414 0
M  V30 3508 H 329.124 -2.6994 4.2443 0
M  V30 3509 H 328.824 -1.63784 5.64313 0
M  V30 3510 H 330.348 -2.56468 5.54127 0
M  V30 3511 H 331.762 -0.300699 5.72511 0
M  V30 3512 H 330.159 0.446813 5.98434 0
M  V30 3513 H 331.229 1.08905 4.72512 0
M  V30 3514 N 332.573 -1.56217 0.208337 0
M  V30 3515 C 333.798 -2.02782 -0.435222 0
M  V30 3516 C 334.223 -1.08738 -1.53485 0
M  V30 3517 O 333.581 -0.0731855 -1.81152 0
M  V30 3518 C 333.629 -3.47687 -0.956335 0
M  V30 3519 O 332.733 -3.56773 -2.06849 0
M  V30 3520 H 332.074 -0.656403 -0.100158 0
M  V30 3521 H 334.604 -2.02033 0.3231 0
M  V30 3522 H 334.614 -3.87745 -1.26955 0
M  V30 3523 H 333.289 -4.15624 -0.15143 0
M  V30 3524 H 331.866 -3.28597 -1.76292 0
M  V30 3525 N 334.051 0.0651679 -1.57465 0
M  V30 3526 C 335.298 0.763063 -1.87573 0
M  V30 3527 C 335.626 1.77242 -0.800961 0
M  V30 3528 O 334.881 1.94651 0.202316 0
M  V30 3529 C 335.18 1.50081 -3.24362 0
M  V30 3530 C 334.846 0.630816 -4.46466 0
M  V30 3531 C 333.508 0.391082 -4.79608 0
M  V30 3532 C 335.86 0.0279465 -5.21193 0
M  V30 3533 C 333.188 -0.460894 -5.84887 0
M  V30 3534 C 335.54 -0.811522 -6.27373 0
M  V30 3535 C 334.204 -1.06106 -6.59013 0
M  V30 3536 H 333.474 0.279224 -0.686378 0
M  V30 3537 H 336.121 0.0236726 -1.91485 0
M  V30 3538 H 334.426 2.31258 -3.16271 0
M  V30 3539 H 336.123 2.04571 -3.44894 0
M  V30 3540 H 332.713 0.8278 -4.2053 0
M  V30 3541 H 336.897 0.200262 -4.95896 0
M  V30 3542 H 332.153 -0.662907 -6.07796 0
M  V30 3543 H 336.327 -1.28537 -6.84435 0
M  V30 3544 H 333.954 -1.723 -7.40417 0
M  V30 3545 N 335.529 1.53961 0.336706 0
M  V30 3546 C 336.777 1.71197 1.07405 0
M  V30 3547 C 337.098 0.481475 1.88962 0
M  V30 3548 O 336.368 -0.504585 1.8929 0
M  V30 3549 H 334.948 0.631185 0.399517 0
M  V30 3550 H 337.61 1.91232 0.376323 0
M  V30 3551 H 336.706 2.58587 1.74755 0
M  V30 3552 N 337.007 -0.598083 1.45811 0
M  V30 3553 C 337.97 -1.69018 1.54808 0
M  V30 3554 C 338.97 -1.55037 0.426652 0
M  V30 3555 O 340.16 -1.59932 0.690456 0
M  V30 3556 C 337.292 -3.0835 1.45371 0
M  V30 3557 H 338.485 -1.62403 2.52121 0
M  V30 3558 H 336.038 -0.814626 1.33392 0
M  V30 3559 H 336.773 -3.20534 0.492793 0
M  V30 3560 H 336.558 -3.19907 2.26721 0
M  V30 3561 H 338.048 -3.8788 1.54721 0
M  V30 3562 N 338.485 -1.33259 -0.841409 0
M  V30 3563 C 339.901 -1.12538 -1.13169 0
M  V30 3564 C 340.101 0.0854037 -2.01319 0
M  V30 3565 O 339.157 0.766417 -2.40587 0
M  V30 3566 C 340.47 -2.41156 -1.79623 0
M  V30 3567 C 342.018 -2.47038 -1.922 0
M  V30 3568 C 342.493 -3.7561 -2.6207 0
M  V30 3569 N 343.984 -3.76667 -2.69585 0
M  V30 3570 C 344.719 -4.72861 -3.2433 0
M  V30 3571 N 344.215 -5.79428 -3.79783 0
M  V30 3572 N 346.008 -4.6034 -3.22558 0
M  V30 3573 H 338.159 -2.10868 -0.254676 0
M  V30 3574 H 340.422 -0.931615 -0.175493 0
M  V30 3575 H 340.128 -3.29747 -1.22311 0
M  V30 3576 H 340.002 -2.53114 -2.79666 0
M  V30 3577 H 342.389 -1.58898 -2.48667 0
M  V30 3578 H 342.47 -2.39022 -0.911148 0
M  V30 3579 H 342.114 -4.64131 -2.06263 0
M  V30 3580 H 342.044 -3.80902 -3.63622 0
M  V30 3581 H 344.535 -2.99648 -2.30259 0
M  V30 3582 H 344.848 -6.48867 -4.19752 0
M  V30 3583 H 343.193 -5.83166 -3.78078 0
M  V30 3584 H 346.384 -3.76244 -2.78492 0
M  V30 3585 H 346.557 -5.35478 -3.64921 0
M  V30 3586 N 339.963 1.05934 -1.16686 0
M  V30 3587 C 340.926 2.11669 -0.879144 0
M  V30 3588 C 341.926 1.60294 0.127445 0
M  V30 3589 O 343.116 1.7389 -0.103865 0
M  V30 3590 C 340.248 3.39438 -0.315425 0
M  V30 3591 H 341.441 2.38626 -1.81653 0
M  V30 3592 H 338.994 1.22058 -0.976299 0
M  V30 3593 H 339.729 3.18132 0.629468 0
M  V30 3594 H 339.514 3.78034 -1.04079 0
M  V30 3595 H 341.004 4.17391 -0.132189 0
M  V30 3596 N 341.441 0.965919 1.2453 0
M  V30 3597 C 342.351 0.502154 2.29163 0
M  V30 3598 C 343.367 -0.436017 1.68448 0
M  V30 3599 O 344.543 -0.309497 1.99008 0
M  V30 3600 C 341.608 -0.201956 3.46111 0
M  V30 3601 C 340.669 0.775821 4.22232 0
M  V30 3602 C 339.902 0.105217 5.33596 0
M  V30 3603 O 340.125 -1.10683 5.59558 0
M  V30 3604 O 339.059 0.796475 5.96607 0
M  V30 3605 H 342.885 1.37194 2.70946 0
M  V30 3606 H 340.47 0.732875 1.30189 0
M  V30 3607 H 342.352 -0.597564 4.17142 0
M  V30 3608 H 341.027 -1.04673 3.06309 0
M  V30 3609 H 339.934 1.22185 3.53584 0
M  V30 3610 H 341.267 1.58896 4.65846 0
M  V30 3611 N 342.919 -1.39368 0.735821 0
M  V30 3612 C 343.849 -2.33234 0.111506 0
M  V30 3613 C 344.83 -1.53954 -0.723334 0
M  V30 3614 O 346.015 -1.82344 -0.668147 0
M  V30 3615 C 343.145 -3.38057 -0.795917 0
M  V30 3616 C 342.099 -4.2795 -0.065172 0
M  V30 3617 C 341.425 -5.23479 -1.08967 0
M  V30 3618 C 342.725 -5.10741 1.09273 0
M  V30 3619 H 344.419 -2.85692 0.895571 0
M  V30 3620 H 341.965 -1.37364 0.432109 0
M  V30 3621 H 343.918 -4.02675 -1.24221 0
M  V30 3622 H 342.642 -2.8404 -1.61211 0
M  V30 3623 H 341.301 -3.64813 0.361511 0
M  V30 3624 H 340.949 -4.65758 -1.89944 0
M  V30 3625 H 340.649 -5.84472 -0.605489 0
M  V30 3626 H 342.173 -5.90974 -1.53565 0
M  V30 3627 H 343.587 -5.68699 0.724841 0
M  V30 3628 H 341.984 -5.8088 1.50659 0
M  V30 3629 H 343.054 -4.45525 1.91404 0
M  V30 3630 N 344.397 -0.483516 -1.5 0
M  V30 3631 C 345.808 -0.0314176 -1.86674 0
M  V30 3632 C 346.159 1.37728 -1.39733 0
M  V30 3633 O 345.284 2.02327 -0.767635 0
M  V30 3634 C 345.879 -0.0502376 -3.38763 0
M  V30 3635 C 344.438 0.346442 -3.74802 0
M  V30 3636 C 343.585 -0.430366 -2.7394 0
M  V30 3637 H 346.536 -0.697182 -1.42566 0
M  V30 3638 H 346.557 0.749116 -3.73053 0
M  V30 3639 H 346.069 -1.07563 -3.72897 0
M  V30 3640 H 344.17 1.37572 -3.46273 0
M  V30 3641 H 344.283 0.0391486 -4.79084 0
M  V30 3642 H 342.647 0.117557 -2.54429 0
M  V30 3643 H 343.43 -1.4555 -3.10918 0
M  V30 3644 N 345.875 1.56104 -0.216619 0
M  V30 3645 C 347.291 1.58995 0.13886 0
M  V30 3646 C 347.491 1.23333 1.59346 0
M  V30 3647 O 346.547 0.966234 2.33281 0
M  V30 3648 C 347.86 3.00143 -0.182968 0
M  V30 3649 C 349.408 3.12751 -0.124807 0
M  V30 3650 C 349.883 4.56068 -0.420241 0
M  V30 3651 N 351.374 4.61723 -0.369634 0
M  V30 3652 C 352.109 5.70542 -0.571789 0
M  V30 3653 N 351.605 6.87744 -0.835453 0
M  V30 3654 N 353.398 5.59831 -0.504563 0
M  V30 3655 H 345.549 1.77562 -1.16557 0
M  V30 3656 H 347.812 0.825091 -0.466828 0
M  V30 3657 H 347.518 3.30871 -1.19237 0
M  V30 3658 H 347.392 3.73813 0.504367 0
M  V30 3659 H 349.779 2.81822 0.875223 0
M  V30 3660 H 349.86 2.41421 -0.845544 0
M  V30 3661 H 349.504 4.87713 -1.41769 0
M  V30 3662 H 349.434 5.25617 0.321631 0
M  V30 3663 H 351.925 3.77502 -0.173338 0
M  V30 3664 H 352.238 7.66587 -0.977938 0
M  V30 3665 H 350.583 6.895 -0.872592 0
M  V30 3666 H 353.774 4.67145 -0.298842 0
M  V30 3667 H 353.947 6.44573 -0.665519 0
M  V30 3668 N 347.353 -0.0568162 1.57498 0
M  V30 3669 C 348.602 -0.752001 1.87157 0
M  V30 3670 C 348.915 -1.77978 0.811375 0
M  V30 3671 O 350.121 -2.52559 0.996293 0
M  V30 3672 C 348.577 -1.38844 3.3204 0
M  V30 3673 C 348.185 -0.398456 4.46225 0
M  V30 3674 C 349.929 -2.06512 3.70882 0
M  V30 3675 C 347.836 -1.04166 5.82154 0
M  V30 3676 H 346.766 -0.28461 0.698222 0
M  V30 3677 H 349.417 -0.00561272 1.83499 0
M  V30 3678 H 347.799 -2.1836 3.30356 0
M  V30 3679 H 348.973 0.367977 4.59328 0
M  V30 3680 H 347.288 0.174592 4.16034 0
M  V30 3681 H 349.885 -2.55437 4.6974 0
M  V30 3682 H 350.228 -2.87117 3.01445 0
M  V30 3683 H 350.761 -1.33808 3.7462 0
M  V30 3684 H 347.5 -0.275614 6.5492 0
M  V30 3685 H 347.02 -1.7786 5.72823 0
M  V30 3686 H 348.699 -1.55715 6.27982 0
M  V30 3687 N 348.832 -1.54138 -0.328536 0
M  V30 3688 C 349.782 -1.79557 -1.4051 0
M  V30 3689 C 350.766 -0.651373 -1.47126 0
M  V30 3690 O 351.958 -0.911226 -1.51742 0
M  V30 3691 C 349.087 -2.02196 -2.77438 0
M  V30 3692 C 348.173 -3.22724 -2.75155 0
M  V30 3693 N 348.564 -4.43881 -2.42494 0
M  V30 3694 C 346.862 -3.24196 -3.06289 0
M  V30 3695 C 347.563 -5.25797 -2.48822 0
M  V30 3696 N 346.539 -4.62862 -2.8506 0
M  V30 3697 H 350.341 -2.70814 -1.1418 0
M  V30 3698 H 347.855 -1.53265 -0.536991 0
M  V30 3699 H 349.852 -2.18546 -3.55026 0
M  V30 3700 H 348.512 -1.12191 -3.04702 0
M  V30 3701 H 349.523 -4.70969 -2.15428 0
M  V30 3702 H 346.2 -2.44208 -3.38627 0
M  V30 3703 H 347.59 -6.32535 -2.26603 0
M  V30 3704 N 350.31 0.590341 -1.46126 0
M  V30 3705 C 351.721 1.17243 -1.45296 0
M  V30 3706 C 352.072 1.95281 -0.189723 0
M  V30 3707 O 351.197 2.04502 0.707674 0
M  V30 3708 C 351.792 2.13284 -2.6324 0
M  V30 3709 C 350.351 2.66832 -2.65476 0
M  V30 3710 C 349.498 1.42557 -2.3785 0
M  V30 3711 H 352.449 0.378692 -1.54116 0
M  V30 3712 H 352.47 2.96619 -2.38323 0
M  V30 3713 H 351.982 1.56459 -3.55165 0
M  V30 3714 H 350.083 3.27548 -1.77603 0
M  V30 3715 H 350.196 3.10088 -3.65215 0
M  V30 3716 H 348.56 1.72107 -1.87753 0
M  V30 3717 H 349.343 0.875741 -3.31942 0
M  V30 3718 N 351.788 1.33704 0.83433 0
M  V30 3719 C 353.034 1.25603 1.59222 0
M  V30 3720 C 353.367 -0.176659 1.93395 0
M  V30 3721 O 352.642 -1.11915 1.59076 0
M  V30 3722 C 352.925 2.13576 2.89926 0
M  V30 3723 C 352.778 3.65326 2.62406 0
M  V30 3724 C 354.097 2.01238 3.91397 0
M  V30 3725 H 351.216 0.457613 0.577719 0
M  V30 3726 H 353.858 1.63848 0.961972 0
M  V30 3727 H 352.008 1.8109 3.43713 0
M  V30 3728 H 353.68 4.08124 2.15017 0
M  V30 3729 H 351.923 3.8698 1.96033 0
M  V30 3730 H 352.594 4.22232 3.55562 0
M  V30 3731 H 355.07 2.29738 3.46929 0
M  V30 3732 H 353.946 2.65036 4.80673 0
M  V30 3733 H 354.207 0.985951 4.30966 0
M  V30 3734 N 353.266 -1.05314 1.17247 0
M  V30 3735 C 354.229 -2.112 0.890357 0
M  V30 3736 C 355.229 -1.60359 -0.118943 0
M  V30 3737 O 356.419 -1.73833 0.113086 0
M  V30 3738 C 353.551 -3.39266 0.333422 0
M  V30 3739 H 354.744 -2.37659 1.82916 0
M  V30 3740 H 352.297 -1.21538 0.982758 0
M  V30 3741 H 353.032 -3.18462 -0.612587 0
M  V30 3742 H 352.817 -3.77477 1.06082 0
M  V30 3743 H 354.307 -4.17315 0.154322 0
M  V30 3744 N 354.744 -0.972509 -1.24016 0
M  V30 3745 C 355.969 -0.654417 -1.96805 0
M  V30 3746 C 356.394 0.770398 -1.716 0
M  V30 3747 O 355.752 1.52361 -0.982647 0
M  V30 3748 C 355.8 -0.941031 -3.48105 0
M  V30 3749 O 354.904 -0.0289472 -4.1239 0
M  V30 3750 H 354.245 -0.24692 -0.616382 0
M  V30 3751 H 356.775 -1.30396 -1.57664 0
M  V30 3752 H 356.785 -0.87452 -3.98517 0
M  V30 3753 H 355.46 -1.97939 -3.65777 0
M  V30 3754 H 354.037 -0.149192 -3.72601 0
M  V30 3755 N 356.222 1.38976 -0.743202 0
M  V30 3756 C 357.169 2.30544 -0.10861 0
M  V30 3757 C 358.139 1.49642 0.720869 0
M  V30 3758 O 359.324 1.78304 0.679142 0
M  V30 3759 C 356.464 3.36018 0.786496 0
M  V30 3760 C 355.577 4.31963 -0.0564849 0
M  V30 3761 C 354.712 5.24506 0.840657 0
M  V30 3762 C 353.751 6.121 -0.00658363 0
M  V30 3763 N 352.888 6.96973 0.846943 0
M  V30 3764 H 357.728 2.8424 -0.895088 0
M  V30 3765 H 355.265 1.3995 -0.453048 0
M  V30 3766 H 357.223 3.95768 1.31999 0
M  V30 3767 H 355.853 2.83758 1.53887 0
M  V30 3768 H 354.905 3.73763 -0.707492 0
M  V30 3769 H 356.217 4.93703 -0.711229 0
M  V30 3770 H 355.371 5.89322 1.4417 0
M  V30 3771 H 354.11 4.63107 1.52916 0
M  V30 3772 H 353.115 5.46289 -0.620366 0
M  V30 3773 H 354.34 6.75565 -0.691992 0
M  V30 3774 H 352.286 6.38133 1.52059 0
M  V30 3775 H 352.203 7.5559 0.248864 0
M  V30 3776 H 353.471 7.6621 1.43328 0
M  V30 3777 N 357.7 0.491464 1.49741 0
M  V30 3778 C 358.63 -0.28154 2.31796 0
M  V30 3779 C 359.611 -0.971473 1.3963 0
M  V30 3780 O 360.796 -0.964719 1.68543 0
M  V30 3781 C 357.926 -1.35203 3.19902 0
M  V30 3782 C 356.88 -0.782529 4.20786 0
M  V30 3783 C 356.206 -1.95283 4.97764 0
M  V30 3784 C 357.506 0.21999 5.21837 0
M  V30 3785 H 359.2 0.403355 2.96671 0
M  V30 3786 H 356.746 0.195425 1.42668 0
M  V30 3787 H 358.699 -1.90045 3.76113 0
M  V30 3788 H 357.423 -2.06598 2.52953 0
M  V30 3789 H 356.082 -0.255928 3.65706 0
M  V30 3790 H 355.73 -2.65423 4.2727 0
M  V30 3791 H 355.43 -1.57789 5.66018 0
M  V30 3792 H 356.954 -2.50577 5.56816 0
M  V30 3793 H 358.368 -0.23996 5.72798 0
M  V30 3794 H 356.765 0.51026 5.97927 0
M  V30 3795 H 357.835 1.13911 4.7133 0
M  V30 3796 N 359.178 -1.55987 0.224894 0
M  V30 3797 C 360.108 -2.23426 -0.678457 0
M  V30 3798 C 361.089 -1.20709 -1.19847 0
M  V30 3799 O 362.274 -1.49304 -1.24186 0
M  V30 3800 C 359.404 -2.91676 -1.88527 0
M  V30 3801 C 358.358 -4.00893 -1.49896 0
M  V30 3802 C 357.684 -4.56455 -2.78483 0
M  V30 3803 C 358.984 -5.17769 -0.686461 0
M  V30 3804 H 360.678 -2.99175 -0.116173 0
M  V30 3805 H 358.224 -1.43897 -0.054436 0
M  V30 3806 H 360.177 -3.37547 -2.5227 0
M  V30 3807 H 358.901 -2.1338 -2.47258 0
M  V30 3808 H 357.56 -3.55758 -0.884985 0
M  V30 3809 H 357.208 -3.74886 -3.35365 0
M  V30 3810 H 356.908 -5.30169 -2.53368 0
M  V30 3811 H 358.432 -5.05047 -3.43162 0
M  V30 3812 H 359.846 -5.60001 -1.22767 0
M  V30 3813 H 358.243 -5.97735 -0.532259 0
M  V30 3814 H 359.313 -4.83932 0.306196 0
M  V30 3815 N 360.656 0.0484629 -1.57525 0
M  V30 3816 C 362.072 0.40375 -1.54409 0
M  V30 3817 C 362.272 1.77786 -0.948384 0
M  V30 3818 O 361.328 2.46189 -0.560983 0
M  V30 3819 C 362.641 0.323394 -2.98956 0
M  V30 3820 C 364.189 0.401892 -3.10409 0
M  V30 3821 C 364.664 0.351195 -4.56652 0
M  V30 3822 N 366.155 0.410576 -4.61377 0
M  V30 3823 C 366.89 0.393933 -5.72045 0
M  V30 3824 N 366.386 0.330724 -6.9201 0
M  V30 3825 N 368.179 0.442227 -5.60358 0
M  V30 3826 H 360.33 -0.851016 -1.94606 0
M  V30 3827 H 362.593 -0.321721 -0.89174 0
M  V30 3828 H 362.299 -0.62011 -3.4619 0
M  V30 3829 H 362.173 1.12463 -3.60044 0
M  V30 3830 H 364.56 1.33582 -2.63134 0
M  V30 3831 H 364.641 -0.428342 -2.52188 0
M  V30 3832 H 364.285 -0.578987 -5.04589 0
M  V30 3833 H 364.215 1.19928 -5.12762 0
M  V30 3834 H 366.706 0.462729 -3.75056 0
M  V30 3835 H 367.019 0.322592 -7.72126 0
M  V30 3836 H 365.364 0.29706 -6.94365 0
M  V30 3837 H 368.555 0.489464 -4.65534 0
M  V30 3838 H 368.728 0.425788 -6.466 0
M  V30 3839 N 362.134 1.5431 0.320358 0
M  V30 3840 C 363.064 1.86912 1.3995 0
M  V30 3841 C 364.045 0.726211 1.53819 0
M  V30 3842 O 365.23 0.980233 1.67646 0
M  V30 3843 C 362.36 2.09932 2.7667 0
M  V30 3844 C 361.314 3.25776 2.77586 0
M  V30 3845 C 360.64 3.34173 4.17412 0
M  V30 3846 C 361.94 4.6335 2.41048 0
M  V30 3847 H 363.634 2.77292 1.12914 0
M  V30 3848 H 361.18 1.33421 0.541738 0
M  V30 3849 H 363.133 2.31324 3.52232 0
M  V30 3850 H 361.857 1.16304 3.0519 0
M  V30 3851 H 360.516 3.04276 2.04479 0
M  V30 3852 H 360.164 2.38098 4.43078 0
M  V30 3853 H 359.864 4.12033 4.18931 0
M  V30 3854 H 361.388 3.57803 4.94782 0
M  V30 3855 H 362.802 4.84602 3.06324 0
M  V30 3856 H 361.199 5.43782 2.53813 0
M  V30 3857 H 362.269 4.65381 1.36193 0
M  V30 3858 N 363.613 -0.582584 1.46437 0
M  V30 3859 C 364.546 -1.70633 1.51524 0
M  V30 3860 C 365.524 -1.58349 0.369351 0
M  V30 3861 O 366.708 -1.79563 0.573516 0
M  V30 3862 C 363.835 -3.08687 1.39392 0
M  V30 3863 C 362.881 -3.3949 2.58164 0
M  V30 3864 S 363.714 -3.31548 4.20519 0
M  V30 3865 C 364.87 -4.72139 4.10896 0
M  V30 3866 H 365.103 -1.66058 2.46601 0
M  V30 3867 H 362.636 -0.761337 1.34324 0
M  V30 3868 H 364.594 -3.8833 1.33079 0
M  V30 3869 H 363.255 -3.10751 0.457436 0
M  V30 3870 H 362.448 -4.40071 2.45669 0
M  V30 3871 H 362.05 -2.67415 2.61468 0
M  V30 3872 H 364.342 -5.62527 3.77584 0
M  V30 3873 H 365.285 -4.89692 5.11476 0
M  V30 3874 H 365.693 -4.48995 3.42146 0
M  V30 3875 N 365.091 -1.34144 -0.827227 0
M  V30 3876 C 366.023 -1.21206 -1.9453 0
M  V30 3877 C 367.036 -0.140176 -1.62195 0
M  V30 3878 O 368.225 -0.391647 -1.7415 0
M  V30 3879 C 365.325 -0.839141 -3.28347 0
M  V30 3880 C 364.498 -2.0051 -3.88734 0
M  V30 3881 C 363.557 -1.61128 -5.00923 0
M  V30 3882 O 362.583 -2.32726 -5.19449 0
M  V30 3883 N 363.785 -0.522958 -5.7814 0
M  V30 3884 H 366.55 -2.17525 -2.06162 0
M  V30 3885 H 364.111 -1.27043 -1.00358 0
M  V30 3886 H 366.103 -0.557556 -4.00841 0
M  V30 3887 H 364.673 0.0337293 -3.12582 0
M  V30 3888 H 363.893 -2.45166 -3.08686 0
M  V30 3889 H 365.181 -2.78498 -4.25812 0
M  V30 3890 H 364.579 0.0723518 -5.65654 0
M  V30 3891 H 363.136 -0.301089 -6.51104 0
M  V30 3892 N 366.569 1.04691 -1.17803 0
M  V30 3893 C 367.516 2.12557 -0.899343 0
M  V30 3894 C 368.486 1.65339 0.158771 0
M  V30 3895 O 369.671 1.90789 0.0204797 0
M  V30 3896 C 366.811 3.42481 -0.424315 0
M  V30 3897 C 365.924 4.03346 -1.54713 0
M  V30 3898 C 365.059 5.21208 -1.02546 0
M  V30 3899 C 364.098 5.74089 -2.12339 0
M  V30 3900 N 363.235 6.83247 -1.61612 0
M  V30 3901 H 368.075 2.35734 -1.823 0
M  V30 3902 H 365.612 1.1564 -0.909159 0
M  V30 3903 H 367.57 4.16996 -0.130421 0
M  V30 3904 H 366.2 3.19471 0.462377 0
M  V30 3905 H 365.252 3.2622 -1.95664 0
M  V30 3906 H 366.564 4.38628 -2.37501 0
M  V30 3907 H 365.718 6.02812 -0.685718 0
M  V30 3908 H 364.457 4.87414 -0.167084 0
M  V30 3909 H 363.462 4.91111 -2.47165 0
M  V30 3910 H 364.687 6.0993 -2.98601 0
M  V30 3911 H 362.633 6.5134 -0.780533 0
M  V30 3912 H 362.55 7.17559 -2.38003 0
M  V30 3913 H 363.818 7.68491 -1.30545 0
M  V30 3914 N 368.047 0.979072 1.23499 0
M  V30 3915 C 368.994 0.517904 2.24914 0
M  V30 3916 C 369.964 -0.442525 1.60097 0
M  V30 3917 O 371.149 -0.350365 1.87556 0
M  V30 3918 C 368.289 -0.174813 3.44657 0
M  V30 3919 C 367.402 0.825721 4.24035 0
M  V30 3920 C 366.537 0.107946 5.3109 0
M  V30 3921 C 365.576 1.09778 6.02175 0
M  V30 3922 N 364.713 0.40925 7.00906 0
M  V30 3923 H 369.553 1.38751 2.63727 0
M  V30 3924 H 367.09 0.695303 1.2963 0
M  V30 3925 H 369.048 -0.593233 4.12961 0
M  V30 3926 H 367.678 -1.0083 3.06648 0
M  V30 3927 H 366.73 1.36253 3.55161 0
M  V30 3928 H 368.042 1.58005 4.73113 0
M  V30 3929 H 367.196 -0.367904 6.05583 0
M  V30 3930 H 365.935 -0.678994 4.8295 0
M  V30 3931 H 364.94 1.5844 5.26476 0
M  V30 3932 H 366.165 1.88536 6.52404 0
M  V30 3933 H 364.111 -0.358506 6.5502 0
M  V30 3934 H 364.028 1.10226 7.47921 0
M  V30 3935 H 365.296 -0.0442557 7.79487 0
M  V30 3936 N 369.525 -1.3858 0.750561 0
M  V30 3937 C 370.435 -2.34278 0.122825 0
M  V30 3938 C 371.451 -1.59116 -0.704131 0
M  V30 3939 O 372.627 -1.91326 -0.628987 0
M  V30 3940 C 369.692 -3.38221 -0.762086 0
M  V30 3941 C 368.753 -4.29227 0.078896 0
M  V30 3942 C 367.986 -5.28205 -0.763874 0
M  V30 3943 O 368.209 -5.34112 -2.00201 0
M  V30 3944 O 367.143 -6.01618 -0.18428 0
M  V30 3945 H 370.969 -2.89649 0.913088 0
M  V30 3946 H 368.554 -1.40374 0.511417 0
M  V30 3947 H 370.436 -4.01872 -1.26793 0
M  V30 3948 H 369.111 -2.85211 -1.5309 0
M  V30 3949 H 368.018 -3.68747 0.630621 0
M  V30 3950 H 369.351 -4.85484 0.810289 0
M  V30 3951 N 371.003 -0.499398 -1.49478 0
M  V30 3952 C 372.231 0.0425456 -2.06856 0
M  V30 3953 C 372.646 1.30964 -1.35992 0
M  V30 3954 O 372.003 1.77172 -0.437762 0
M  V30 3955 C 372.054 0.301735 -3.60239 0
M  V30 3956 O 371.775 -0.915127 -4.28436 0
M  V30 3957 C 373.276 0.887499 -4.34325 0
M  V30 3958 H 370.496 -0.0197482 -0.670709 0
M  V30 3959 H 373.04 -0.696297 -1.92281 0
M  V30 3960 H 371.195 0.990556 -3.74522 0
M  V30 3961 H 371.609 -0.676993 -5.20113 0
M  V30 3962 H 373.083 1.01845 -5.42523 0
M  V30 3963 H 373.56 1.88488 -3.96698 0
M  V30 3964 H 374.166 0.236196 -4.24644 0
M  V30 3965 N 372.481 1.55866 -0.233164 0
M  V30 3966 C 373.429 2.22176 0.68851 0
M  V30 3967 C 374.423 1.20487 1.19076 0
M  V30 3968 O 375.629 1.38536 1.14925 0
M  V30 3969 H 372.004 0.712511 0.240483 0
M  V30 3970 H 373.975 2.98212 0.105935 0
M  V30 3971 C 372.724 2.92446 1.88071 0
M  V30 3972 H 372.047 3.70458 1.50337 0
M  V30 3973 H 373.487 3.42226 2.50314 0
M  V30 3974 C 371.946 1.95555 2.74335 0
M  V30 3975 O 372.476 1.47986 3.73447 0
M  V30 3976 N 370.682 1.62953 2.40613 0
M  V30 3977 H 370.229 2.01831 1.60069 0
M  V30 3978 H 370.187 0.983886 2.98609 0
M  V30 3979 N 373.959 -0.0401083 1.57549 0
M  V30 3980 C 374.889 -1.04384 2.08869 0
M  V30 3981 C 375.87 -1.38407 0.988817 0
M  V30 3982 O 377.055 -1.47483 1.26342 0
M  V30 3983 C 374.185 -2.34808 2.55895 0
M  V30 3984 C 373.139 -2.15057 3.70047 0
M  V30 3985 C 372.465 -3.51145 4.03239 0
M  V30 3986 C 373.765 -1.54576 4.98902 0
M  V30 3987 H 375.459 -0.616666 2.92981 0
M  V30 3988 H 373.005 -0.295184 1.40942 0
M  V30 3989 H 374.958 -3.05346 2.90417 0
M  V30 3990 H 373.682 -2.79565 1.68853 0
M  V30 3991 H 372.341 -1.46954 3.35857 0
M  V30 3992 H 371.989 -3.93529 3.13279 0
M  V30 3993 H 371.689 -3.38758 4.80122 0
M  V30 3994 H 373.213 -4.23062 4.40285 0
M  V30 3995 H 374.627 -2.15017 5.31451 0
M  V30 3996 H 373.024 -1.52796 5.80322 0
M  V30 3997 H 374.094 -0.51039 4.82206 0
M  V30 3998 N 375.437 -1.54477 -0.31217 0
M  V30 3999 C 376.677 -1.74958 -1.05684 0
M  V30 4000 C 377.041 -0.518414 -1.84869 0
M  V30 4001 O 378.242 -0.600759 -2.62001 0
M  V30 4002 C 376.513 -2.99656 -1.94785 0
M  V30 4003 S 378.072 -3.4109 -2.76049 0
M  V30 4004 H 374.89 -0.615104 -0.356606 0
M  V30 4005 H 377.492 -1.92669 -0.331514 0
M  V30 4006 H 376.196 -3.87397 -1.35468 0
M  V30 4007 H 375.727 -2.845 -2.71704 0
M  V30 4008 H 377.742 -2.97283 -3.97287 0
M  V30 4009 N 376.915 0.57481 -1.46744 0
M  V30 4010 C 377.845 1.69337 -1.60771 0
M  V30 4011 C 378.826 1.63825 -0.457736 0
M  V30 4012 O 380.011 1.8172 -0.684947 0
M  V30 4013 C 377.141 3.0798 -1.60517 0
M  V30 4014 C 376.095 3.28327 -2.74564 0
M  V30 4015 C 375.421 4.67578 -2.59373 0
M  V30 4016 C 376.721 3.15398 -4.16319 0
M  V30 4017 H 378.415 1.57853 -2.54407 0
M  V30 4018 H 375.961 0.75799 -1.22436 0
M  V30 4019 H 377.914 3.86061 -1.68923 0
M  V30 4020 H 376.638 3.20381 -0.634305 0
M  V30 4021 H 375.297 2.52649 -2.65639 0
M  V30 4022 H 374.945 4.76755 -1.60353 0
M  V30 4023 H 374.645 4.82144 -3.35873 0
M  V30 4024 H 376.169 5.47817 -2.69682 0
M  V30 4025 H 377.583 3.83315 -4.26313 0
M  V30 4026 H 375.98 3.41482 -4.93468 0
M  V30 4027 H 377.05 2.12372 -4.3592 0
M  V30 4028 N 378.394 1.34581 0.820102 0
M  V30 4029 C 379.619 1.30333 1.61332 0
M  V30 4030 C 380.044 -0.119339 1.87721 0
M  V30 4031 O 379.402 -1.08197 1.45475 0
M  V30 4032 C 379.45 2.10258 2.92957 0
M  V30 4033 O 378.554 1.47404 3.85157 0
M  V30 4034 H 377.895 0.447488 0.490561 0
M  V30 4035 H 380.425 1.77425 1.01889 0
M  V30 4036 H 380.435 2.21718 3.42498 0
M  V30 4037 H 379.11 3.13693 2.73074 0
M  V30 4038 H 377.687 1.44703 3.43679 0
M  V30 4039 N 379.872 -1.04064 1.18357 0
M  V30 4040 C 380.835 -2.10243 0.912707 0
M  V30 4041 C 381.835 -1.60477 -0.101928 0
M  V30 4042 O 383.025 -1.73703 0.131517 0
M  V30 4043 C 380.157 -3.38893 0.369387 0
M  V30 4044 H 381.35 -2.35706 1.85426 0
M  V30 4045 H 378.903 -1.20489 0.995594 0
M  V30 4046 H 379.638 -3.19094 -0.578776 0
M  V30 4047 H 379.423 -3.76331 1.1008 0
M  V30 4048 H 380.913 -4.17128 0.198575 0
M  V30 4049 N 381.35 -0.985608 -1.22978 0
M  V30 4050 C 382.627 -0.573599 -1.87001 0
M  V30 4051 C 383.007 0.949213 -1.88555 0
M  V30 4052 O 382.355 1.82811 -1.37086 0
M  V30 4053 C 382.565 -1.18564 -3.28243 0
M  V30 4054 C 383.913 -1.28163 -4.04796 0
M  V30 4055 O 384.937 -1.13949 -3.37482 0
M  V30 4056 O 383.796 -1.50832 -5.25273 0
M  V30 4057 H 380.89 -0.193868 -0.803955 0
M  V30 4058 H 383.436 -1.08102 -1.30813 0
M  V30 4059 H 382.208 -2.22758 -3.21706 0
M  V30 4060 H 381.831 -0.663363 -3.92027 0
M  V30 4061 N 382.828 1.3818 -0.7579 0
M  V30 4062 C 384.074 2.00316 -0.316453 0
M  V30 4063 C 384.407 1.60026 1.10025 0
M  V30 4064 O 383.682 0.839835 1.75434 0
M  V30 4065 C 383.965 3.57349 -0.444245 0
M  V30 4066 C 383.818 4.07591 -1.90236 0
M  V30 4067 C 385.137 4.3981 0.1598 0
M  V30 4068 H 382.256 0.727741 -0.116459 0
M  V30 4069 H 384.898 1.6406 -0.958352 0
M  V30 4070 H 383.048 3.88365 0.102233 0
M  V30 4071 H 384.72 3.87199 -2.50748 0
M  V30 4072 H 382.963 3.60297 -2.41595 0
M  V30 4073 H 383.634 5.16677 -1.94291 0
M  V30 4074 H 386.11 4.14971 -0.306314 0
M  V30 4075 H 384.986 5.48885 0.0401675 0
M  V30 4076 H 385.247 4.24102 1.24859 0
M  V30 4077 N 384.306 0.507319 1.49211 0
M  V30 4078 C 385.531 -0.033725 2.07373 0
M  V30 4079 C 385.956 -1.29485 1.36437 0
M  V30 4080 O 385.314 -1.76294 0.423087 0
M  V30 4081 C 385.362 -0.263945 3.59633 0
M  V30 4082 O 384.466 -1.33737 3.90113 0
M  V30 4083 H 383.807 0.0290331 0.663365 0
M  V30 4084 H 386.337 0.708749 1.91932 0
M  V30 4085 H 386.347 -0.493536 4.05004 0
M  V30 4086 H 385.022 0.657424 4.10671 0
M  V30 4087 H 383.599 -1.09224 3.56545 0
M  V30 4088 N 385.784 -1.5574 0.241426 0
M  V30 4089 C 386.714 -2.24133 -0.654722 0
M  V30 4090 C 387.695 -1.21974 -1.1856 0
M  V30 4091 O 388.88 -1.50612 -1.22595 0
M  V30 4092 C 386.01 -2.93659 -1.85423 0
M  V30 4093 C 384.964 -4.0246 -1.45636 0
M  V30 4094 C 384.29 -4.59383 -2.73626 0
M  V30 4095 C 385.59 -5.18468 -0.631506 0
M  V30 4096 H 387.284 -2.99281 -0.0844353 0
M  V30 4097 H 384.83 -1.43947 -0.0391707 0
M  V30 4098 H 386.783 -3.40203 -2.48676 0
M  V30 4099 H 385.507 -2.15991 -2.44981 0
M  V30 4100 H 384.166 -3.56676 -0.847202 0
M  V30 4101 H 383.814 -3.78422 -3.3137 0
M  V30 4102 H 383.514 -5.32826 -2.4773 0
M  V30 4103 H 385.038 -5.08658 -3.37786 0
M  V30 4104 H 386.452 -5.61272 -1.1682 0
M  V30 4105 H 384.849 -5.98266 -0.468831 0
M  V30 4106 H 385.919 -4.8358 0.357506 0
M  V30 4107 N 387.262 0.0317525 -1.57568 0
M  V30 4108 C 388.225 1.01783 -2.0536 0
M  V30 4109 C 389.225 1.29203 -0.957253 0
M  V30 4110 O 390.415 1.24251 -1.22095 0
M  V30 4111 C 387.547 2.35137 -2.46827 0
M  V30 4112 H 388.74 0.605062 -2.93733 0
M  V30 4113 H 386.293 0.278514 -1.53799 0
M  V30 4114 H 387.028 2.81168 -1.61602 0
M  V30 4115 H 386.813 2.16566 -3.26866 0
M  V30 4116 H 388.303 3.05938 -2.84239 0
M  V30 4117 N 388.74 1.54641 0.303973 0
M  V30 4118 C 390.156 1.45788 0.649463 0
M  V30 4119 C 390.356 0.64666 1.90842 0
M  V30 4120 O 389.412 0.153183 2.52035 0
M  V30 4121 C 390.725 2.89718 0.805227 0
M  V30 4122 C 392.273 2.99742 0.901305 0
M  V30 4123 C 392.748 4.44863 1.08909 0
M  V30 4124 N 394.239 4.48559 1.15536 0
M  V30 4125 C 394.974 5.58026 1.3189 0
M  V30 4126 N 394.47 6.77422 1.45161 0
M  V30 4127 N 396.263 5.45708 1.34755 0
M  V30 4128 H 388.414 2.05854 -0.523237 0
M  V30 4129 H 390.677 0.932186 -0.172431 0
M  V30 4130 H 390.383 3.51666 -0.0489108 0
M  V30 4131 H 390.257 3.36964 1.69513 0
M  V30 4132 H 392.644 2.3791 1.74593 0
M  V30 4133 H 392.725 2.55797 -0.0125531 0
M  V30 4134 H 392.369 5.07288 0.249241 0
M  V30 4135 H 392.299 4.86436 2.01713 0
M  V30 4136 H 394.79 3.6254 1.06646 0
M  V30 4137 H 395.103 7.56604 1.57387 0
M  V30 4138 H 393.448 6.80292 1.42223 0
M  V30 4139 H 396.639 4.51378 1.23996 0
M  V30 4140 H 396.812 6.3107 1.47157 0
M  V30 4141 N 390.218 -0.567019 1.47046 0
M  V30 4142 C 391.128 -1.70247 1.6141 0
M  V30 4143 C 392.144 -1.66746 0.497157 0
M  V30 4144 O 393.32 -1.86371 0.763389 0
M  V30 4145 C 390.385 -3.06756 1.61561 0
M  V30 4146 C 389.446 -3.21399 2.84607 0
M  V30 4147 C 388.679 -4.51396 2.84741 0
M  V30 4148 O 388.902 -5.36255 1.94388 0
M  V30 4149 O 387.836 -4.69621 3.76483 0
M  V30 4150 H 391.662 -1.61073 2.57467 0
M  V30 4151 H 389.247 -0.735894 1.30019 0
M  V30 4152 H 391.129 -3.8801 1.64396 0
M  V30 4153 H 389.804 -3.16333 0.686684 0
M  V30 4154 H 388.711 -2.39579 2.8732 0
M  V30 4155 H 390.044 -3.16721 3.76761 0
M  V30 4156 N 391.696 -1.35014 -0.812953 0
M  V30 4157 C 392.626 -1.30069 -1.93919 0
M  V30 4158 C 393.607 -0.176275 -1.69184 0
M  V30 4159 O 394.792 -0.370227 -1.90638 0
M  V30 4160 C 391.922 -1.06547 -3.30552 0
M  V30 4161 C 390.876 -2.15561 -3.69753 0
M  V30 4162 C 390.202 -1.77214 -5.04479 0
M  V30 4163 C 391.502 -3.57476 -3.808 0
M  V30 4164 H 393.196 -2.24303 -1.98314 0
M  V30 4165 H 390.742 -1.07977 -0.952736 0
M  V30 4166 H 392.695 -1.01729 -4.08937 0
M  V30 4167 H 391.419 -0.0875719 -3.26483 0
M  V30 4168 H 390.078 -2.19466 -2.9365 0
M  V30 4169 H 389.726 -0.780589 -4.96906 0
M  V30 4170 H 389.426 -2.50184 -5.31678 0
M  V30 4171 H 390.95 -1.7391 -5.8531 0
M  V30 4172 H 392.364 -3.55929 -4.4943 0
M  V30 4173 H 390.761 -4.29152 -4.19462 0
M  V30 4174 H 391.831 -3.94091 -2.82525 0
M  V30 4175 N 393.175 1.03435 -1.18907 0
M  V30 4176 C 394.105 2.13503 -0.945448 0
M  V30 4177 C 395.086 1.69682 0.119189 0
M  V30 4178 O 396.271 1.94169 -0.034707 0
M  V30 4179 C 393.401 3.44004 -0.477316 0
M  V30 4180 C 392.355 4.0148 -1.48316 0
M  V30 4181 C 391.681 5.27537 -0.872311 0
M  V30 4182 C 392.981 4.36921 -2.86177 0
M  V30 4183 H 394.675 2.34141 -1.86597 0
M  V30 4184 H 392.221 1.12523 -0.898584 0
M  V30 4185 H 394.174 4.20372 -0.294204 0
M  V30 4186 H 392.898 3.23072 0.478786 0
M  V30 4187 H 391.557 3.27201 -1.65332 0
M  V30 4188 H 391.205 5.02917 0.0911752 0
M  V30 4189 H 390.905 5.66954 -1.54393 0
M  V30 4190 H 392.429 6.06576 -0.699871 0
M  V30 4191 H 393.843 5.04248 -2.72776 0
M  V30 4192 H 392.24 4.87405 -3.50081 0
M  V30 4193 H 393.31 3.46466 -3.39248 0
M  V30 4194 N 394.653 0.992116 1.22453 0
M  V30 4195 C 395.585 0.500024 2.23679 0
M  V30 4196 C 396.598 -0.404463 1.57696 0
M  V30 4197 O 397.787 -0.206722 1.77299 0
M  V30 4198 C 394.887 -0.294711 3.37616 0
M  V30 4199 C 394.06 0.605723 4.33186 0
M  V30 4200 C 393.119 -0.13717 5.26021 0
M  V30 4201 O 392.145 0.477164 5.67196 0
M  V30 4202 N 393.347 -1.4197 5.62872 0
M  V30 4203 H 396.112 1.37045 2.66531 0
M  V30 4204 H 393.673 0.866741 1.36745 0
M  V30 4205 H 395.665 -0.800329 3.96707 0
M  V30 4206 H 394.235 -1.06623 2.93854 0
M  V30 4207 H 393.455 1.29202 3.72425 0
M  V30 4208 H 394.743 1.21896 4.93983 0
M  V30 4209 H 394.141 -1.94015 5.31389 0
M  V30 4210 H 392.698 -1.87052 6.24383 0
M  V30 4211 N 396.131 -1.37776 0.765217 0
M  V30 4212 C 397.061 -2.32945 0.160953 0
M  V30 4213 C 398.042 -1.55454 -0.690516 0
M  V30 4214 O 399.227 -1.83721 -0.629318 0
M  V30 4215 C 396.357 -3.39669 -0.724031 0
M  V30 4216 C 395.311 -4.27992 0.0256173 0
M  V30 4217 C 394.637 -5.25673 -0.978383 0
M  V30 4218 C 395.937 -5.08309 1.20082 0
M  V30 4219 H 397.631 -2.83728 0.955969 0
M  V30 4220 H 395.177 -1.36416 0.461149 0
M  V30 4221 H 397.13 -4.05219 -1.15652 0
M  V30 4222 H 395.854 -2.87396 -1.5515 0
M  V30 4223 H 394.513 -3.63964 0.438812 0
M  V30 4224 H 394.161 -4.69682 -1.80022 0
M  V30 4225 H 393.861 -5.85625 -0.481378 0
M  V30 4226 H 395.385 -5.94098 -1.40995 0
M  V30 4227 H 396.799 -5.67034 0.845307 0
M  V30 4228 H 395.196 -5.77554 1.62947 0
M  V30 4229 H 396.266 -4.41365 2.00811 0
M  V30 4230 N 397.609 -0.515225 -1.4894 0
M  V30 4231 C 398.572 0.244681 -2.2789 0
M  V30 4232 C 399.572 0.881166 -1.34507 0
M  V30 4233 O 400.762 0.743497 -1.57537 0
M  V30 4234 C 397.894 1.35247 -3.12923 0
M  V30 4235 H 399.087 -0.448289 -2.96531 0
M  V30 4236 H 396.64 -0.270656 -1.53939 0
M  V30 4237 H 397.375 2.07916 -2.48881 0
M  V30 4238 H 397.16 0.901374 -3.81599 0
M  V30 4239 H 398.65 1.88737 -3.72516 0
M  V30 4240 N 399.087 1.5561 -0.249682 0
M  V30 4241 C 400.364 1.90932 0.424761 0
M  V30 4242 C 400.744 1.17078 1.75658 0
M  V30 4243 O 400.092 0.289176 2.26663 0
M  V30 4244 C 400.302 3.43975 0.590109 0
M  V30 4245 C 401.65 4.15281 0.884714 0
M  V30 4246 O 402.674 3.49729 0.67587 0
M  V30 4247 O 401.533 5.31236 1.28259 0
M  V30 4248 H 398.627 0.794815 0.228468 0
M  V30 4249 H 401.173 1.67135 -0.293954 0
M  V30 4250 H 399.945 3.89748 -0.34818 0
M  V30 4251 H 399.568 3.73644 1.35926 0
M  V30 4252 N 400.565 -0.0233959 1.57583 0
M  V30 4253 C 401.528 -1.00693 2.05897 0
M  V30 4254 C 402.528 -1.28693 0.964092 0
M  V30 4255 O 403.718 -1.23602 1.22753 0
M  V30 4256 C 400.85 -2.33825 2.4807 0
M  V30 4257 H 402.043 -0.589476 2.9405 0
M  V30 4258 H 399.596 -0.270354 1.53944 0
M  V30 4259 H 400.331 -2.80307 1.6309 0
M  V30 4260 H 400.116 -2.1483 3.2801 0
M  V30 4261 H 401.606 -3.04426 2.85857 0
M  V30 4262 N 402.043 -1.548 -0.295768 0
M  V30 4263 C 402.973 -1.89115 -1.36959 0
M  V30 4264 C 403.954 -0.75059 -1.52644 0
M  V30 4265 O 405.139 -1.00678 -1.66065 0
M  V30 4266 C 402.269 -2.14307 -2.73295 0
M  V30 4267 C 401.223 -3.30151 -2.72368 0
M  V30 4268 C 400.549 -3.40772 -4.12042 0
M  V30 4269 C 401.849 -4.67126 -2.33646 0
M  V30 4270 H 403.543 -2.79053 -1.08488 0
M  V30 4271 H 401.089 -1.34266 -0.520443 0
M  V30 4272 H 403.042 -2.36898 -3.48507 0
M  V30 4273 H 401.766 -1.21145 -3.03301 0
M  V30 4274 H 400.425 -3.0749 -1.99613 0
M  V30 4275 H 400.073 -2.45117 -4.39234 0
M  V30 4276 H 399.773 -4.18645 -4.12322 0
M  V30 4277 H 401.297 -3.6563 -4.89027 0
M  V30 4278 H 402.711 -4.89414 -2.98575 0
M  V30 4279 H 401.108 -5.47751 -2.45129 0
M  V30 4280 H 402.178 -4.67489 -1.28772 0
M  V30 4281 N 403.521 0.559213 -1.47345 0
M  V30 4282 C 404.769 1.31388 -1.53563 0
M  V30 4283 C 405.09 1.93985 -0.198678 0
M  V30 4284 O 404.36 1.79825 0.777167 0
M  V30 4285 H 402.94 0.487901 -0.565652 0
M  V30 4286 H 405.602 0.65315 -1.8363 0
M  V30 4287 H 404.698 2.10844 -2.30111 0
M  V30 4288 N 404.999 1.35443 0.805782 0
M  V30 4289 C 406.41 1.25768 1.37983 0
M  V30 4290 C 406.761 -0.10958 1.95894 0
M  V30 4291 O 405.886 -1.01056 1.91355 0
M  V30 4292 C 406.481 2.27727 2.5085 0
M  V30 4293 C 405.04 2.2179 3.04115 0
M  V30 4294 C 404.187 2.13393 1.77084 0
M  V30 4295 H 407.138 1.4656 0.608752 0
M  V30 4296 H 407.159 1.90422 3.29424 0
M  V30 4297 H 406.671 3.27227 2.08671 0
M  V30 4298 H 404.772 1.25703 3.50756 0
M  V30 4299 H 404.885 3.13788 3.62042 0
M  V30 4300 H 403.249 1.59384 1.98668 0
M  V30 4301 H 404.032 3.14755 1.37056 0
M  V30 4302 N 406.477 -1.02803 1.19454 0
M  V30 4303 C 407.702 -1.80378 1.02364 0
M  V30 4304 C 408.127 -1.83282 -0.423007 0
M  V30 4305 O 407.485 -1.25945 -1.30413 0
M  V30 4306 C 407.533 -3.23248 1.59821 0
M  V30 4307 O 406.637 -4.04 0.828105 0
M  V30 4308 H 405.978 -0.556799 0.361761 0
M  V30 4309 H 408.508 -1.29385 1.58495 0
M  V30 4310 H 408.518 -3.73994 1.63073 0
M  V30 4311 H 407.193 -3.2045 2.65113 0
M  V30 4312 H 405.77 -3.62635 0.86891 0
M  V30 4313 N 407.956 -0.998596 -1.21925 0
M  V30 4314 C 409.205 -0.673085 -1.90138 0
M  V30 4315 C 409.518 0.79895 -1.78539 0
M  V30 4316 O 410.724 1.23628 -2.4172 0
M  V30 4317 C 409.18 -1.15339 -3.40918 0
M  V30 4318 C 408.788 -2.65106 -3.61141 0
M  V30 4319 C 410.532 -0.902476 -4.14796 0
M  V30 4320 C 408.439 -3.0671 -5.05651 0
M  V30 4321 H 407.369 -0.248057 -0.712028 0
M  V30 4322 H 410.02 -1.20891 -1.38049 0
M  V30 4323 H 408.402 -0.545658 -3.92223 0
M  V30 4324 H 409.576 -3.31274 -3.20304 0
M  V30 4325 H 407.891 -2.88142 -3.00605 0
M  V30 4326 H 410.488 -1.18895 -5.21314 0
M  V30 4327 H 410.831 0.161349 -4.15987 0
M  V30 4328 H 411.364 -1.47269 -3.69536 0
M  V30 4329 H 408.103 -4.12292 -5.09603 0
M  V30 4330 H 407.623 -2.45249 -5.47369 0
M  V30 4331 H 409.302 -2.9833 -5.74115 0
M  V30 4332 N 409.434 1.37368 -0.772513 0
M  V30 4333 C 410.674 2.01512 -0.342361 0
M  V30 4334 C 411.038 1.59997 1.06136 0
M  V30 4335 O 412.239 2.16609 1.59167 0
M  V30 4336 C 410.51 3.54134 -0.482048 0
M  V30 4337 S 412.069 4.38585 -0.137272 0
M  V30 4338 H 408.887 0.698699 -0.131686 0
M  V30 4339 H 411.489 1.67552 -1.0073 0
M  V30 4340 H 410.193 3.81837 -1.50428 0
M  V30 4341 H 409.724 3.92894 0.199413 0
M  V30 4342 H 411.739 4.84594 1.06692 0
M  V30 4343 N 410.912 0.523116 1.48665 0
M  V30 4344 C 411.845 -0.290518 2.26343 0
M  V30 4345 C 412.823 -0.950913 1.31895 0
M  V30 4346 O 414.007 -0.976662 1.61225 0
M  V30 4347 C 411.134 -1.41088 3.07915 0
M  V30 4348 C 410.18 -0.862597 4.17686 0
M  V30 4349 S 411.013 0.264135 5.34848 0
M  V30 4350 C 412.169 -0.858864 6.19979 0
M  V30 4351 H 412.402 0.368726 2.95005 0
M  V30 4352 H 409.935 0.30878 1.51281 0
M  V30 4353 H 411.893 -2.0527 3.55492 0
M  V30 4354 H 410.554 -2.04182 2.38681 0
M  V30 4355 H 409.747 -1.70287 4.74361 0
M  V30 4356 H 409.349 -0.297595 3.72814 0
M  V30 4357 H 411.641 -1.7591 6.54264 0
M  V30 4358 H 412.584 -0.330244 7.07329 0
M  V30 4359 H 412.992 -1.13617 5.52948 0
M  V30 4360 N 412.39 -1.55475 0.257931 0
M  V30 4361 C 413.32 -2.24815 -0.630912 0
M  V30 4362 C 414.301 -1.23224 -1.17259 0
M  V30 4363 O 415.486 -1.51904 -1.20991 0
M  V30 4364 C 412.616 -2.95609 -1.82298 0
M  V30 4365 C 411.57 -4.03982 -1.41359 0
M  V30 4366 C 410.896 -4.6226 -2.68738 0
M  V30 4367 C 412.196 -5.19109 -0.57648 0
M  V30 4368 H 413.89 -2.99354 -0.0526878 0
M  V30 4369 H 411.436 -1.4398 -0.023901 0
M  V30 4370 H 413.389 -3.42822 -2.45054 0
M  V30 4371 H 412.113 -2.18577 -2.42676 0
M  V30 4372 H 410.772 -3.57555 -0.809324 0
M  V30 4373 H 410.42 -3.81915 -3.27338 0
M  V30 4374 H 410.12 -5.35424 -2.42065 0
M  V30 4375 H 411.644 -5.12212 -3.32372 0
M  V30 4376 H 413.058 -5.62479 -1.10861 0
M  V30 4377 H 411.455 -5.98729 -0.405351 0
M  V30 4378 H 412.525 -4.83174 0.408776 0
M  V30 4379 N 413.868 0.0150385 -1.57593 0
M  V30 4380 C 414.815 1.01126 -2.07466 0
M  V30 4381 C 415.785 1.35064 -0.966794 0
M  V30 4382 O 416.97 1.4516 -1.23827 0
M  V30 4383 C 414.11 2.30276 -2.57035 0
M  V30 4384 C 413.223 2.02373 -3.81666 0
M  V30 4385 C 412.358 3.25496 -4.19793 0
M  V30 4386 C 411.397 2.93211 -5.37303 0
M  V30 4387 N 410.534 4.08826 -5.70794 0
M  V30 4388 H 415.374 0.57901 -2.92321 0
M  V30 4389 H 412.911 0.27426 -1.44521 0
M  V30 4390 H 414.869 3.05757 -2.83846 0
M  V30 4391 H 413.499 2.71197 -1.75077 0
M  V30 4392 H 412.551 1.17327 -3.61854 0
M  V30 4393 H 413.863 1.74567 -4.67256 0
M  V30 4394 H 413.017 4.09333 -4.47807 0
M  V30 4395 H 411.756 3.56428 -3.32882 0
M  V30 4396 H 410.761 2.07777 -5.09027 0
M  V30 4397 H 411.986 2.63542 -6.25877 0
M  V30 4398 H 409.932 4.39682 -4.86842 0
M  V30 4399 H 409.849 3.84491 -6.50924 0
M  V30 4400 H 411.117 4.93496 -6.03392 0
M  V30 4401 N 415.346 1.54954 0.287554 0
M  V30 4402 C 416.574 1.78881 1.03967 0
M  V30 4403 C 416.989 0.554894 1.80462 0
M  V30 4404 O 416.346 -0.475676 1.76192 0
M  V30 4405 C 416.397 3.00488 2.0097 0
M  V30 4406 O 416.118 4.19113 1.27577 0
M  V30 4407 C 417.619 3.36907 2.88112 0
M  V30 4408 H 414.839 0.596259 0.307761 0
M  V30 4409 H 417.383 2.01937 0.322749 0
M  V30 4410 H 415.538 2.79601 2.68145 0
M  V30 4411 H 415.952 4.87765 1.92835 0
M  V30 4412 H 417.426 4.25205 3.52001 0
M  V30 4413 H 417.903 2.55659 3.57121 0
M  V30 4414 H 418.509 3.60001 2.26449 0
M  V30 4415 N 416.824 -0.551391 1.4764 0
M  V30 4416 C 417.774 -1.65362 1.56969 0
M  V30 4417 C 418.758 -1.55098 0.428189 0
M  V30 4418 O 419.95 -1.63481 0.678441 0
M  V30 4419 C 417.079 -3.04129 1.59249 0
M  V30 4420 C 416.165 -3.19576 2.78804 0
M  V30 4421 N 416.556 -3.05067 4.03445 0
M  V30 4422 C 414.854 -3.50588 2.75688 0
M  V30 4423 C 415.555 -3.2336 4.83543 0
M  V30 4424 N 414.531 -3.4996 4.15968 0
M  V30 4425 H 418.333 -1.52722 2.51104 0
M  V30 4426 H 415.847 -0.756303 1.43714 0
M  V30 4427 H 417.844 -3.83278 1.64024 0
M  V30 4428 H 416.504 -3.17877 0.662148 0
M  V30 4429 H 417.515 -2.82273 4.34215 0
M  V30 4430 H 414.192 -3.70827 1.91817 0
M  V30 4431 H 415.582 -3.17061 5.92387 0
M  V30 4432 N 418.302 -1.35869 -0.798587 0
M  V30 4433 C 419.548 -1.2978 -1.55836 0
M  V30 4434 C 419.881 0.125322 -1.93795 0
M  V30 4435 O 419.156 1.07658 -1.61987 0
M  V30 4436 C 419.439 -2.21188 -2.84162 0
M  V30 4437 C 419.292 -3.72155 -2.52628 0
M  V30 4438 C 420.611 -2.11545 -3.85923 0
M  V30 4439 H 417.73 -0.472769 -0.565383 0
M  V30 4440 H 420.372 -1.66341 -0.918192 0
M  V30 4441 H 418.522 -1.90139 -3.38791 0
M  V30 4442 H 420.194 -4.13682 -2.04121 0
M  V30 4443 H 418.437 -3.92042 -1.85704 0
M  V30 4444 H 419.108 -4.31511 -3.44242 0
M  V30 4445 H 421.584 -2.38855 -3.40716 0
M  V30 4446 H 420.46 -2.77688 -4.73477 0
M  V30 4447 H 420.721 -1.09987 -4.282 0
M  V30 4448 N 419.78 1.02168 -1.19998 0
M  V30 4449 C 421.057 1.72816 -0.916191 0
M  V30 4450 C 421.437 2.03081 0.576325 0
M  V30 4451 O 420.785 1.69122 1.53656 0
M  V30 4452 C 420.995 2.9997 -1.78378 0
M  V30 4453 C 422.343 3.73336 -2.02251 0
M  V30 4454 O 423.367 3.09914 -1.75589 0
M  V30 4455 O 422.226 4.87371 -2.47249 0
M  V30 4456 H 419.32 0.752924 -0.342103 0
M  V30 4457 H 421.866 1.08062 -1.30846 0
M  V30 4458 H 420.638 2.73888 -2.79466 0
M  V30 4459 H 420.261 3.72464 -1.39126 0
M  V30 4460 N 421.258 1.00505 1.21394 0
M  V30 4461 C 422.507 0.683159 1.89778 0
M  V30 4462 C 422.82 -0.789471 1.7896 0
M  V30 4463 O 424.026 -1.22344 2.42372 0
M  V30 4464 C 422.482 1.17146 3.40301 0
M  V30 4465 C 422.09 2.67017 3.5973 0
M  V30 4466 C 423.834 0.924461 4.14311 0
M  V30 4467 C 421.741 3.09387 5.04017 0
M  V30 4468 H 420.671 0.25183 0.710702 0
M  V30 4469 H 423.322 1.21622 1.37406 0
M  V30 4470 H 421.704 0.566451 3.91928 0
M  V30 4471 H 422.878 3.32968 3.18542 0
M  V30 4472 H 421.193 2.89732 2.99073 0
M  V30 4473 H 423.79 1.21658 5.20676 0
M  V30 4474 H 424.133 -0.139286 4.16067 0
M  V30 4475 H 424.666 1.49226 3.6875 0
M  V30 4476 H 421.405 4.14989 5.07409 0
M  V30 4477 H 420.925 2.48149 5.46061 0
M  V30 4478 H 422.604 3.01371 5.72525 0
M  V30 4479 N 422.737 -1.36956 0.779787 0
M  V30 4480 C 423.667 -2.32761 0.185651 0
M  V30 4481 C 424.648 -1.56177 -0.673989 0
M  V30 4482 O 425.833 -1.84378 -0.609797 0
M  V30 4483 C 422.963 -3.40418 -0.687964 0
M  V30 4484 C 421.917 -4.27941 0.0710102 0
M  V30 4485 C 421.243 -5.26681 -0.922573 0
M  V30 4486 C 422.543 -5.07006 1.25467 0
M  V30 4487 H 424.237 -2.82698 0.986008 0
M  V30 4488 H 421.783 -1.3592 0.475592 0
M  V30 4489 H 423.736 -4.06423 -1.11348 0
M  V30 4490 H 422.46 -2.89025 -1.52093 0
M  V30 4491 H 421.119 -3.63478 0.47739 0
M  V30 4492 H 420.767 -4.71565 -1.7503 0
M  V30 4493 H 420.467 -5.86103 -0.419237 0
M  V30 4494 H 421.991 -5.9556 -1.34686 0
M  V30 4495 H 423.405 -5.66105 0.905401 0
M  V30 4496 H 421.802 -5.75793 1.69063 0
M  V30 4497 H 422.872 -4.3921 2.05481 0
M  V30 4498 N 424.215 -0.530993 -1.48385 0
M  V30 4499 C 425.163 0.244595 -2.3131 0
M  V30 4500 C 426.157 0.93451 -1.41291 0
M  V30 4501 O 427.363 0.85878 -1.58193 0
M  V30 4502 H 423.738 0.0977472 -0.74562 0
M  V30 4503 H 425.709 -0.474369 -2.94605 0
M  V30 4504 C 424.458 1.2779 -3.23365 0
M  V30 4505 H 423.781 0.756439 -3.92579 0
M  V30 4506 H 425.221 1.79198 -3.84271 0
M  V30 4507 C 423.68 2.31205 -2.45042 0
M  V30 4508 O 424.21 3.37661 -2.17596 0
M  V30 4509 N 422.416 2.04446 -2.0652 0
M  V30 4510 H 421.963 1.17891 -2.2904 0
M  V30 4511 H 421.921 2.73861 -1.54427 0
M  V30 4512 N 425.693 1.55336 -0.266172 0
M  V30 4513 C 426.97 1.91372 0.404486 0
M  V30 4514 C 427.35 1.18935 1.74407 0
M  V30 4515 O 426.698 0.3132 2.26343 0
M  V30 4516 C 426.908 3.44581 0.553593 0
M  V30 4517 C 428.256 4.16196 0.840618 0
M  V30 4518 O 429.28 3.50426 0.638739 0
M  V30 4519 O 428.139 5.32567 1.22618 0
M  V30 4520 H 425.233 0.797194 0.220025 0
M  V30 4521 H 427.779 1.66813 -0.311664 0
M  V30 4522 H 426.551 3.89357 -0.389498 0
M  V30 4523 H 426.174 3.75065 1.31955 0
M  V30 4524 N 427.171 -0.0066808 1.57599 0
M  V30 4525 C 428.418 -0.69292 1.90276 0
M  V30 4526 C 428.746 -1.74148 0.866192 0
M  V30 4527 O 428.001 -1.95268 -0.129933 0
M  V30 4528 C 428.3 -1.37939 3.29708 0
M  V30 4529 C 427.966 -0.464679 4.48499 0
M  V30 4530 C 426.628 -0.212809 4.80729 0
M  V30 4531 C 428.98 0.16551 5.20937 0
M  V30 4532 C 426.308 0.677653 5.82773 0
M  V30 4533 C 428.66 1.04381 6.23929 0
M  V30 4534 C 427.324 1.30492 6.54621 0
M  V30 4535 H 426.594 -0.253558 0.696268 0
M  V30 4536 H 429.241 0.0474123 1.91441 0
M  V30 4537 H 427.546 -2.1936 3.24636 0
M  V30 4538 H 429.243 -1.9163 3.52249 0
M  V30 4539 H 425.833 -0.671153 4.23313 0
M  V30 4540 H 430.017 -0.0160756 4.96297 0
M  V30 4541 H 425.273 0.88803 6.04917 0
M  V30 4542 H 429.447 1.53851 6.79193 0
M  V30 4543 H 427.074 1.99662 7.33512 0
M  V30 4544 N 428.649 -1.55105 -0.279332 0
M  V30 4545 C 429.877 -1.7943 -1.03017 0
M  V30 4546 C 430.292 -0.564456 -1.80165 0
M  V30 4547 O 429.649 0.466326 -1.76442 0
M  V30 4548 C 429.7 -3.0155 -1.99374 0
M  V30 4549 O 429.421 -4.19784 -1.25352 0
M  V30 4550 C 430.922 -3.3843 -2.86321 0
M  V30 4551 H 428.142 -0.597882 -0.304594 0
M  V30 4552 H 430.686 -2.02105 -0.312035 0
M  V30 4553 H 428.841 -2.81019 -2.66659 0
M  V30 4554 H 429.255 -4.88781 -1.90246 0
M  V30 4555 H 430.729 -4.27066 -3.49741 0
M  V30 4556 H 431.206 -2.57549 -3.5576 0
M  V30 4557 H 431.812 -3.61197 -2.24536 0
M  V30 4558 N 430.127 0.543554 -1.4793 0
M  V30 4559 C 431.057 1.65888 -1.64327 0
M  V30 4560 C 432.038 1.62818 -0.492383 0
M  V30 4561 O 433.223 1.80226 -0.723338 0
M  V30 4562 C 430.353 3.04506 -1.67013 0
M  V30 4563 C 429.307 3.2243 -2.81466 0
M  V30 4564 C 428.633 4.61972 -2.69233 0
M  V30 4565 C 429.933 3.06496 -4.22915 0
M  V30 4566 H 431.627 1.52421 -2.57698 0
M  V30 4567 H 429.173 0.731849 -1.24016 0
M  V30 4568 H 431.126 3.82391 -1.77074 0
M  V30 4569 H 429.85 3.18964 -0.70212 0
M  V30 4570 H 428.509 2.46957 -2.70938 0
M  V30 4571 H 428.157 4.73247 -1.7043 0
M  V30 4572 H 427.857 4.74911 -3.46025 0
M  V30 4573 H 429.381 5.41974 -2.81242 0
M  V30 4574 H 430.795 3.74186 -4.34348 0
M  V30 4575 H 429.192 3.30938 -5.006 0
M  V30 4576 H 430.262 2.03077 -4.40327 0
M  V30 4577 N 431.605 1.3629 0.791371 0
M  V30 4578 C 432.882 1.20962 1.53712 0
M  V30 4579 C 433.262 -0.205021 2.10102 0
M  V30 4580 O 432.61 -1.21042 1.93807 0
M  V30 4581 C 432.82 2.29002 2.63361 0
M  V30 4582 C 434.168 2.65572 3.31295 0
M  V30 4583 O 435.192 2.2803 2.73643 0
M  V30 4584 O 434.051 3.3018 4.35481 0
M  V30 4585 H 431.145 0.47086 0.679867 0
M  V30 4586 H 433.691 1.48016 0.830021 0
M  V30 4587 H 432.463 3.2382 2.19674 0
M  V30 4588 H 432.086 2.03303 3.41692 0
M  V30 4589 N 433.083 -1.0153 1.20538 0
M  V30 4590 C 434.329 -1.75408 1.01783 0
M  V30 4591 C 434.662 -1.88943 -0.448814 0
M  V30 4592 O 433.937 -1.4162 -1.33319 0
M  V30 4593 C 434.22 -3.17255 1.70356 0
M  V30 4594 C 434.073 -3.11508 3.24473 0
M  V30 4595 C 435.392 -4.15955 1.43769 0
M  V30 4596 H 432.511 -0.636713 0.371167 0
M  V30 4597 H 435.153 -1.18436 1.4857 0
M  V30 4598 H 433.303 -3.65898 1.30578 0
M  V30 4599 H 434.975 -2.70658 3.73553 0
M  V30 4600 H 433.218 -2.4887 3.55311 0
M  V30 4601 H 433.889 -4.11784 3.67611 0
M  V30 4602 H 436.365 -3.75973 1.7828 0
M  V30 4603 H 435.241 -5.13368 1.94279 0
M  V30 4604 H 435.502 -4.40586 0.365564 0
M  V30 4605 N 434.561 -1.01147 -1.20859 0
M  V30 4606 C 435.494 -0.522108 -2.22147 0
M  V30 4607 C 436.472 0.427686 -1.56874 0
M  V30 4608 O 437.656 0.34889 -1.85243 0
M  V30 4609 C 434.783 0.240819 -3.37843 0
M  V30 4610 C 433.829 -0.657752 -4.21398 0
M  V30 4611 S 434.662 -2.12393 -4.91578 0
M  V30 4612 C 435.818 -1.37102 -6.10699 0
M  V30 4613 H 436.051 -1.38035 -2.63313 0
M  V30 4614 H 433.584 -0.819941 -1.30829 0
M  V30 4615 H 435.542 0.674908 -4.04914 0
M  V30 4616 H 434.203 1.07457 -2.95147 0
M  V30 4617 H 433.396 -0.0697456 -5.03952 0
M  V30 4618 H 432.998 -1.0294 -3.59555 0
M  V30 4619 H 435.29 -0.648315 -6.74391 0
M  V30 4620 H 436.233 -2.17252 -6.73949 0
M  V30 4621 H 436.641 -0.876154 -5.57659 0
M  V30 4622 N 436.039 1.36541 -0.78704 0
M  V30 4623 C 436.986 2.30082 -0.181901 0
M  V30 4624 C 437.956 1.5186 0.672896 0
M  V30 4625 O 439.141 1.80374 0.622072 0
M  V30 4626 C 436.281 3.3835 0.679197 0
M  V30 4627 C 435.394 4.31565 -0.193882 0
M  V30 4628 C 434.529 5.26915 0.673364 0
M  V30 4629 C 433.568 6.11769 -0.201315 0
M  V30 4630 N 432.705 6.99315 0.624777 0
M  V30 4631 H 437.545 2.81248 -0.985064 0
M  V30 4632 H 435.082 1.38437 -0.497342 0
M  V30 4633 H 437.04 3.99767 1.19341 0
M  V30 4634 H 435.67 2.8851 1.44781 0
M  V30 4635 H 434.722 3.71323 -0.826044 0
M  V30 4636 H 436.034 4.91191 -0.867937 0
M  V30 4637 H 435.188 5.9361 1.25348 0
M  V30 4638 H 433.927 4.67737 1.38105 0
M  V30 4639 H 432.932 5.44039 -0.793849 0
M  V30 4640 H 434.157 6.73022 -0.906568 0
M  V30 4641 H 432.103 6.42648 1.3168 0
M  V30 4642 H 432.02 7.56 0.00835237 0
M  V30 4643 H 433.288 7.70382 1.18879 0
M  V30 4644 N 437.518 0.538854 1.48102 0
M  V30 4645 C 438.428 -0.222648 2.33541 0
M  V30 4646 C 439.444 -0.930225 1.47047 0
M  V30 4647 O 440.62 -0.903211 1.80011 0
M  V30 4648 C 437.685 -1.25064 3.23357 0
M  V30 4649 C 436.746 -0.552469 4.2573 0
M  V30 4650 C 435.979 -1.53149 5.11254 0
M  V30 4651 O 436.202 -2.76487 4.9891 0
M  V30 4652 O 435.136 -1.06602 5.92385 0
M  V30 4653 H 438.962 0.477707 2.99919 0
M  V30 4654 H 436.547 0.299669 1.46364 0
M  V30 4655 H 438.429 -1.8445 3.78888 0
M  V30 4656 H 437.104 -1.93325 2.59629 0
M  V30 4657 H 436.011 0.082114 3.7401 0
M  V30 4658 H 437.344 0.0883526 4.92121 0
M  V30 4659 N 438.996 -1.55193 0.274407 0
M  V30 4660 C 439.926 -2.25471 -0.607032 0
M  V30 4661 C 440.907 -1.24461 -1.15946 0
M  V30 4662 O 442.092 -1.53179 -1.19373 0
M  V30 4663 C 439.222 -2.97526 -1.79153 0
M  V30 4664 C 438.176 -4.05459 -1.37067 0
M  V30 4665 C 437.502 -4.65084 -2.6382 0
M  V30 4666 C 438.802 -5.19691 -0.521389 0
M  V30 4667 H 440.496 -2.99393 -0.0209343 0
M  V30 4668 H 438.042 -1.43997 -0.00862866 0
M  V30 4669 H 439.995 -3.45402 -2.41404 0
M  V30 4670 H 438.719 -2.21138 -2.40344 0
M  V30 4671 H 437.378 -3.58393 -0.771355 0
M  V30 4672 H 437.026 -3.85365 -3.23268 0
M  V30 4673 H 436.726 -5.37961 -2.36372 0
M  V30 4674 H 438.25 -5.15708 -3.26921 0
M  V30 4675 H 439.664 -5.63623 -1.04889 0
M  V30 4676 H 438.061 -5.99126 -0.341825 0
M  V30 4677 H 439.131 -4.82713 0.46 0
M  V30 4678 N 440.474 -0.00167713 -1.576 0
M  V30 4679 C 441.723 0.682021 -1.89819 0
M  V30 4680 C 442.036 1.74844 -0.876871 0
M  V30 4681 O 443.242 2.48688 -1.08934 0
M  V30 4682 C 441.698 1.26425 -3.36964 0
M  V30 4683 C 441.306 0.232568 -4.47396 0
M  V30 4684 C 443.05 1.92604 -3.78291 0
M  V30 4685 C 440.957 0.824882 -5.85619 0
M  V30 4686 H 439.887 0.258499 -0.708304 0
M  V30 4687 H 442.538 -0.0624957 -1.83394 0
M  V30 4688 H 440.92 2.05949 -3.38232 0
M  V30 4689 H 442.094 -0.5382 -4.57646 0
M  V30 4690 H 440.409 -0.32888 -4.15099 0
M  V30 4691 H 443.006 2.37827 -4.78897 0
M  V30 4692 H 443.349 2.75732 -3.11894 0
M  V30 4693 H 443.882 1.19812 -3.79328 0
M  V30 4694 H 440.621 0.0323542 -6.55492 0
M  V30 4695 H 440.141 1.56477 -5.79029 0
M  V30 4696 H 441.82 1.32301 -6.33329 0
M  V30 4697 N 441.952 1.55251 0.271103 0
M  V30 4698 C 443.18 1.79974 1.02064 0
M  V30 4699 C 443.595 0.574003 1.79863 0
M  V30 4700 O 442.952 -0.456962 1.76686 0
M  V30 4701 C 443.003 3.02603 1.97772 0
M  V30 4702 O 442.724 4.20443 1.23124 0
M  V30 4703 C 444.225 3.39944 2.84522 0
M  V30 4704 H 441.445 0.599489 0.301419 0
M  V30 4705 H 443.989 2.02268 0.301313 0
M  V30 4706 H 442.144 2.8243 2.65165 0
M  V30 4707 H 442.558 4.89783 1.87651 0
M  V30 4708 H 444.032 4.28915 3.47471 0
M  V30 4709 H 444.509 2.59432 3.54389 0
M  V30 4710 H 445.115 3.62383 2.22618 0
M  V30 4711 N 443.43 -0.535701 1.48216 0
M  V30 4712 C 444.36 -1.65014 1.65204 0
M  V30 4713 C 445.341 -1.62554 0.501011 0
M  V30 4714 O 446.526 -1.7984 0.732886 0
M  V30 4715 C 443.656 -3.03616 1.68626 0
M  V30 4716 C 442.61 -3.20932 2.83172 0
M  V30 4717 C 441.936 -4.60537 2.71679 0
M  V30 4718 C 443.236 -3.04249 4.24535 0
M  V30 4719 H 444.93 -1.51053 2.58502 0
M  V30 4720 H 442.476 -0.725262 1.24402 0
M  V30 4721 H 444.429 -3.81446 1.79099 0
M  V30 4722 H 443.153 -3.18587 0.719026 0
M  V30 4723 H 441.812 -2.45517 2.72244 0
M  V30 4724 H 441.46 -4.72336 1.72937 0
M  V30 4725 H 441.16 -4.73069 3.48538 0
M  V30 4726 H 442.684 -5.40475 2.84112 0
M  V30 4727 H 444.098 -3.71877 4.36326 0
M  V30 4728 H 442.495 -3.28278 5.02348 0
M  V30 4729 H 443.565 -2.00739 4.41397 0
M  V30 4730 N 444.908 -1.36708 -0.784132 0
M  V30 4731 C 445.871 -1.31307 -1.87859 0
M  V30 4732 C 446.871 -0.219654 -1.59293 0
M  V30 4733 O 448.061 -0.47476 -1.67606 0
M  V30 4734 C 445.193 -1.03679 -3.24751 0
M  V30 4735 H 446.386 -2.28647 -1.94064 0
M  V30 4736 H 443.939 -1.21558 -0.98252 0
M  V30 4737 H 444.674 -0.0681936 -3.24228 0
M  V30 4738 H 444.459 -1.82811 -3.46876 0
M  V30 4739 H 445.949 -1.02518 -4.04821 0
M  V30 4740 N 446.386 1.0089 -1.21074 0
M  V30 4741 C 447.333 2.09588 -0.966512 0
M  V30 4742 C 448.303 1.65761 0.106089 0
M  V30 4743 O 449.488 1.90758 -0.0402287 0
M  V30 4744 C 446.628 3.40958 -0.533058 0
M  V30 4745 C 445.741 3.9822 -1.67467 0
M  V30 4746 C 444.876 5.17682 -1.19076 0
M  V30 4747 C 443.915 5.67043 -2.30496 0
M  V30 4748 N 443.052 6.77759 -1.83267 0
M  V30 4749 H 447.892 2.29815 -1.89708 0
M  V30 4750 H 445.429 1.12689 -0.945489 0
M  V30 4751 H 447.387 4.1637 -0.263019 0
M  V30 4752 H 446.017 3.20781 0.360505 0
M  V30 4753 H 445.069 3.1983 -2.05944 0
M  V30 4754 H 446.381 4.3085 -2.51336 0
M  V30 4755 H 445.535 6.00326 -0.877151 0
M  V30 4756 H 444.274 4.86635 -0.322066 0
M  V30 4757 H 443.279 4.82999 -2.62664 0
M  V30 4758 H 444.504 6.00121 -3.17855 0
M  V30 4759 H 442.45 6.48527 -0.987356 0
M  V30 4760 H 442.367 7.09624 -2.60711 0
M  V30 4761 H 443.635 7.63949 -1.54928 0
M  V30 4762 N 447.864 1.01787 1.20321 0
M  V30 4763 C 449.104 0.716493 1.91431 0
M  V30 4764 C 449.468 -0.740352 1.77152 0
M  V30 4765 O 450.669 -1.1543 2.42754 0
M  V30 4766 C 448.94 1.14169 3.38674 0
M  V30 4767 S 450.499 0.962482 4.28114 0
M  V30 4768 H 447.317 0.261175 0.661293 0
M  V30 4769 H 449.919 1.30539 1.45533 0
M  V30 4770 H 448.623 2.19784 3.46588 0
M  V30 4771 H 448.154 0.545621 3.89598 0
M  V30 4772 H 450.169 -0.133253 4.96021 0
M  V30 4773 N 449.342 -1.36122 0.79427 0
M  V30 4774 C 450.292 -2.27373 0.169017 0
M  V30 4775 C 451.276 -1.4719 -0.649913 0
M  V30 4776 O 452.468 -1.69518 -0.50919 0
M  V30 4777 C 449.597 -3.36264 -0.691455 0
M  V30 4778 C 448.683 -4.2388 0.13653 0
M  V30 4779 N 449.074 -4.91519 1.19345 0
M  V30 4780 C 447.372 -4.45921 -0.0838499 0
M  V30 4781 C 448.073 -5.56369 1.6979 0
M  V30 4782 N 447.049 -5.34204 1.00634 0
M  V30 4783 H 450.851 -2.77154 0.977897 0
M  V30 4784 H 448.365 -1.49504 0.634208 0
M  V30 4785 H 450.362 -4.00572 -1.15534 0
M  V30 4786 H 449.022 -2.88037 -1.49883 0
M  V30 4787 H 450.033 -4.9334 1.57594 0
M  V30 4788 H 446.71 -4.08518 -0.861341 0
M  V30 4789 H 448.1 -6.20368 2.58055 0
M  V30 4790 N 450.82 -0.546701 -1.47814 0
M  V30 4791 C 451.73 0.21026 -2.33656 0
M  V30 4792 C 452.746 0.922413 -1.47538 0
M  V30 4793 O 453.922 0.893652 -1.80488 0
M  V30 4794 C 450.987 1.23348 -3.24016 0
M  V30 4795 C 450.048 0.529883 -4.26017 0
M  V30 4796 C 449.281 1.50435 -5.12059 0
M  V30 4797 O 449.504 2.73837 -5.00369 0
M  V30 4798 O 448.438 1.03459 -5.92942 0
M  V30 4799 H 452.264 -0.493605 -2.99662 0
M  V30 4800 H 449.849 -0.307427 -1.46203 0
M  V30 4801 H 451.731 1.82438 -3.79861 0
M  V30 4802 H 450.406 1.91945 -2.60651 0
M  V30 4803 H 449.313 -0.101948 -3.73961 0
M  V30 4804 H 450.646 -0.11445 -4.92067 0
M  V30 4805 N 452.299 1.55045 -0.282633 0
M  V30 4806 C 453.546 1.9976 0.33199 0
M  V30 4807 C 453.874 1.17105 1.55295 0
M  V30 4808 O 453.129 0.230599 1.94337 0
M  V30 4809 C 453.428 3.49422 0.750938 0
M  V30 4810 C 453.094 4.4941 -0.366228 0
M  V30 4811 C 451.756 4.76471 -0.672964 0
M  V30 4812 C 454.108 5.09054 -1.11864 0
M  V30 4813 C 451.436 5.60442 -1.73556 0
M  V30 4814 C 453.788 5.9418 -2.17102 0
M  V30 4815 C 452.452 6.19558 -2.48402 0
M  V30 4816 H 451.722 0.730974 0.121484 0
M  V30 4817 H 454.369 1.8732 -0.39791 0
M  V30 4818 H 452.674 3.59377 1.56063 0
M  V30 4819 H 454.371 3.81432 1.23736 0
M  V30 4820 H 450.961 4.2844 -0.117041 0
M  V30 4821 H 455.145 4.88165 -0.894925 0
M  V30 4822 H 450.401 5.78349 -1.983 0
M  V30 4823 H 454.575 6.39427 -2.75873 0
M  V30 4824 H 452.202 6.84417 -3.30874 0
M  V30 4825 N 453.777 0.010035 1.57597 0
M  V30 4826 C 454.707 -0.976857 2.12084 0
M  V30 4827 C 455.688 -1.35191 1.03235 0
M  V30 4828 O 456.873 -1.43389 1.3097 0
M  V30 4829 C 454.003 -2.26548 2.63236 0
M  V30 4830 C 452.957 -2.03175 3.76701 0
M  V30 4831 C 452.283 -3.38138 4.14206 0
M  V30 4832 C 453.583 -1.38625 5.03568 0
M  V30 4833 H 455.277 -0.523145 2.94794 0
M  V30 4834 H 452.823 -0.250195 1.4181 0
M  V30 4835 H 454.776 -2.95952 2.99984 0
M  V30 4836 H 453.5 -2.74051 1.77661 0
M  V30 4837 H 452.159 -1.36195 3.40362 0
M  V30 4838 H 451.807 -3.83363 3.25641 0
M  V30 4839 H 451.507 -3.23312 4.90656 0
M  V30 4840 H 453.031 -4.08841 4.53521 0
M  V30 4841 H 454.445 -1.98 5.38023 0
M  V30 4842 H 452.842 -1.34256 5.84889 0
M  V30 4843 H 453.912 -0.356722 4.83586 0
M  V30 4844 N 455.255 -1.55392 -0.262866 0
M  V30 4845 C 456.504 -1.75679 -0.990943 0
M  V30 4846 C 456.817 -0.57097 -1.87081 0
M  V30 4847 O 458.023 -0.656486 -2.63444 0
M  V30 4848 C 456.479 -3.10964 -1.81188 0
M  V30 4849 C 456.087 -4.37146 -0.980188 0
M  V30 4850 C 457.831 -3.40597 -2.53365 0
M  V30 4851 C 455.738 -5.63466 -1.7961 0
M  V30 4852 H 454.668 -0.654868 -0.373716 0
M  V30 4853 H 457.319 -1.81841 -0.246203 0
M  V30 4854 H 455.701 -2.98867 -2.59797 0
M  V30 4855 H 456.875 -4.60187 -0.237558 0
M  V30 4856 H 455.19 -4.14731 -0.372497 0
M  V30 4857 H 457.787 -4.32186 -3.14833 0
M  V30 4858 H 458.13 -2.6119 -3.24169 0
M  V30 4859 H 458.663 -3.53838 -1.81779 0
M  V30 4860 H 455.402 -6.4565 -1.13209 0
M  V30 4861 H 454.922 -5.44552 -2.51443 0
M  V30 4862 H 456.601 -6.02139 -2.36723 0
M  V30 4863 N 456.733 0.527833 -1.48498 0
M  V30 4864 C 457.98 1.28354 -1.56625 0
M  V30 4865 C 458.308 1.93 -0.241096 0
M  V30 4866 O 457.563 1.79967 0.768798 0
M  V30 4867 C 457.862 2.39275 -2.65485 0
M  V30 4868 C 457.528 1.92268 -4.07853 0
M  V30 4869 C 456.19 1.79166 -4.46602 0
M  V30 4870 C 458.542 1.56771 -4.97064 0
M  V30 4871 C 455.87 1.28905 -5.72364 0
M  V30 4872 C 458.222 1.07972 -6.23318 0
M  V30 4873 C 456.886 0.934887 -6.60921 0
M  V30 4874 H 456.156 0.469682 -0.573131 0
M  V30 4875 H 458.803 0.588781 -1.82224 0
M  V30 4876 H 457.108 3.1443 -2.33754 0
M  V30 4877 H 458.805 2.974 -2.68988 0
M  V30 4878 H 455.395 2.03417 -3.77252 0
M  V30 4879 H 459.579 1.65753 -4.67803 0
M  V30 4880 H 454.835 1.16381 -6.00221 0
M  V30 4881 H 459.009 0.795775 -6.91838 0
M  V30 4882 H 456.636 0.543231 -7.58257 0
M  V30 4883 N 458.211 1.37122 0.776871 0
M  V30 4884 C 459.121 1.34651 1.9211 0
M  V30 4885 C 460.137 0.246824 1.7224 0
M  V30 4886 O 461.313 0.48134 1.95563 0
M  V30 4887 C 458.378 1.14748 3.2716 0
M  V30 4888 C 457.439 2.34308 3.5972 0
M  V30 4889 C 456.672 2.15345 4.88326 0
M  V30 4890 O 456.895 1.13507 5.58992 0
M  V30 4891 O 455.829 3.03414 5.1983 0
M  V30 4892 H 459.655 2.31013 1.97146 0
M  V30 4893 H 457.24 1.17799 0.918901 0
M  V30 4894 H 459.122 1.05616 4.0795 0
M  V30 4895 H 457.797 0.214562 3.22988 0
M  V30 4896 H 456.704 2.49011 2.79185 0
M  V30 4897 H 458.037 3.26149 3.68629 0
M  V30 4898 N 459.689 -1.00246 1.21608 0
M  V30 4899 C 460.966 -1.71336 0.943568 0
M  V30 4900 C 461.346 -2.03972 -0.543943 0
M  V30 4901 O 460.694 -1.71545 -1.50946 0
M  V30 4902 C 460.904 -2.97094 1.83128 0
M  V30 4903 C 462.252 -3.70071 2.08165 0
M  V30 4904 O 463.276 -3.07081 1.80498 0
M  V30 4905 O 462.135 -4.83376 2.54971 0
M  V30 4906 H 459.229 -0.747386 0.354039 0
M  V30 4907 H 461.775 -1.05967 1.32549 0
M  V30 4908 H 460.547 -2.69407 2.83788 0
M  V30 4909 H 460.17 -3.70204 1.45034 0
M  V30 4910 N 461.167 -1.02423 -1.1978 0
M  V30 4911 C 462.583 -0.740459 -1.41384 0
M  V30 4912 C 462.783 0.676827 -1.89793 0
M  V30 4913 O 461.839 1.4435 -2.0717 0
M  V30 4914 C 463.152 -1.77264 -2.42895 0
M  V30 4915 C 464.7 -1.79165 -2.56649 0
M  V30 4916 C 465.175 -2.8133 -3.6141 0
M  V30 4917 N 466.666 -2.80118 -3.68901 0
M  V30 4918 C 467.401 -3.55824 -4.49641 0
M  V30 4919 N 466.897 -4.41231 -5.34123 0
M  V30 4920 N 468.69 -3.44387 -4.44246 0
M  V30 4921 H 460.841 -1.9391 -0.866764 0
M  V30 4922 H 463.104 -0.838074 -0.443098 0
M  V30 4923 H 462.81 -2.7884 -2.14339 0
M  V30 4924 H 462.684 -1.59108 -3.42001 0
M  V30 4925 H 465.071 -0.782702 -2.84531 0
M  V30 4926 H 465.152 -2.01396 -1.57713 0
M  V30 4927 H 464.796 -3.82394 -3.34271 0
M  V30 4928 H 464.726 -2.56359 -4.59986 0
M  V30 4929 H 467.217 -2.1817 -3.08562 0
M  V30 4930 H 467.53 -4.95747 -5.92836 0
M  V30 4931 H 465.875 -4.45306 -5.33599 0
M  V30 4932 H 469.066 -2.7708 -3.77285 0
M  V30 4933 H 469.239 -4.0364 -5.06931 0
M  V30 4934 N 462.645 1.35699 -0.801477 0
M  V30 4935 C 463.592 2.29876 -0.206294 0
M  V30 4936 C 464.562 1.52565 0.656752 0
M  V30 4937 O 465.747 1.81024 0.602906 0
M  V30 4938 C 462.887 3.39052 0.643272 0
M  V30 4939 C 462 4.31335 -0.239644 0
M  V30 4940 C 461.135 5.27599 0.61744 0
M  V30 4941 C 460.174 6.11521 -0.26619 0
M  V30 4942 N 459.311 6.99938 0.550571 0
M  V30 4943 H 464.151 2.80187 -1.01484 0
M  V30 4944 H 461.688 1.37902 -0.511997 0
M  V30 4945 H 463.646 4.0101 1.15094 0
M  V30 4946 H 462.276 2.9003 1.41713 0
M  V30 4947 H 461.328 3.70426 -0.865381 0
M  V30 4948 H 462.64 4.90243 -0.919985 0
M  V30 4949 H 461.794 5.94906 1.19045 0
M  V30 4950 H 460.533 4.69176 1.33137 0
M  V30 4951 H 459.538 5.43166 -0.851507 0
M  V30 4952 H 460.763 6.72022 -0.9779 0
M  V30 4953 H 458.709 6.44008 1.24856 0
M  V30 4954 H 458.626 7.55966 -0.071832 0
M  V30 4955 H 459.894 7.71599 1.10702 0
M  V30 4956 N 464.123 0.554532 1.47522 0
M  V30 4957 C 465.37 0.029479 2.02479 0
M  V30 4958 C 465.698 -1.31929 1.42916 0
M  V30 4959 O 464.953 -1.87112 0.573385 0
M  V30 4960 C 465.252 -0.115927 3.57212 0
M  V30 4961 C 464.918 1.16161 4.3568 0
M  V30 4962 C 463.58 1.51168 4.56839 0
M  V30 4963 C 465.932 2.0083 4.80954 0
M  V30 4964 C 463.26 2.70696 5.2052 0
M  V30 4965 C 465.612 3.19559 5.45953 0
M  V30 4966 C 464.276 3.54882 5.65345 0
M  V30 4967 H 463.546 0.0107871 0.740921 0
M  V30 4968 H 466.193 0.725506 1.77225 0
M  V30 4969 H 464.498 -0.894902 3.81443 0
M  V30 4970 H 466.195 -0.53749 3.97381 0
M  V30 4971 H 462.785 0.879026 4.19489 0
M  V30 4972 H 466.969 1.75093 4.64388 0
M  V30 4973 H 462.225 2.98236 5.33728 0
M  V30 4974 H 466.399 3.85456 5.79997 0
M  V30 4975 H 464.026 4.47596 6.1446 0
M  V30 4976 N 465.601 -1.54893 0.290851 0
M  V30 4977 C 466.564 -2.21824 -0.576784 0
M  V30 4978 C 467.564 -1.20104 -1.06919 0
M  V30 4979 O 468.754 -1.44906 -0.966843 0
M  V30 4980 C 465.886 -2.89662 -1.79747 0
M  V30 4981 H 467.079 -2.99899 0.00784051 0
M  V30 4982 H 464.632 -1.56245 0.0415934 0
M  V30 4983 H 465.367 -2.15639 -2.42219 0
M  V30 4984 H 465.152 -3.64219 -1.45214 0
M  V30 4985 H 466.642 -3.4075 -2.4141 0
M  V30 4986 N 467.08 -0.0183926 -1.57589 0
M  V30 4987 C 468.357 0.700621 -1.82622 0
M  V30 4988 C 468.737 1.90951 -0.90005 0
M  V30 4989 O 468.085 2.28452 0.0469145 0
M  V30 4990 C 468.295 1.08899 -3.31575 0
M  V30 4991 C 469.643 1.48514 -3.9778 0
M  V30 4992 O 470.667 1.18227 -3.36007 0
M  V30 4993 O 469.526 2.04903 -5.06633 0
M  V30 4994 H 466.62 0.342743 -0.752633 0
M  V30 4995 H 469.166 -0.0452548 -1.6964 0
M  V30 4996 H 467.938 0.228113 -3.90635 0
M  V30 4997 H 467.561 1.89338 -3.49624 0
M  V30 4998 N 468.558 1.5553 0.254621 0
M  V30 4999 C 469.807 1.76202 0.981612 0
M  V30 5000 C 470.12 0.580883 1.86776 0
M  V30 5001 O 471.326 0.670448 2.63092 0
M  V30 5002 C 469.782 3.11921 1.79537 0
M  V30 5003 C 469.39 4.37659 0.956991 0
M  V30 5004 C 471.134 3.41936 2.51555 0
M  V30 5005 C 469.041 5.64411 1.76619 0
M  V30 5006 H 467.971 0.656841 0.370237 0
M  V30 5007 H 470.622 1.81969 0.236556 0
M  V30 5008 H 469.004 3.00241 2.58208 0
M  V30 5009 H 470.178 4.60307 0.21315 0
M  V30 5010 H 468.493 4.14922 0.350497 0
M  V30 5011 H 471.09 4.33849 3.12536 0
M  V30 5012 H 471.433 2.62905 3.22779 0
M  V30 5013 H 471.966 3.54797 1.799 0
M  V30 5014 H 468.705 6.46241 1.09783 0
M  V30 5015 H 468.225 5.45877 2.48551 0
M  V30 5016 H 469.904 6.03386 2.33527 0
M  V30 5017 N 470.036 -0.519951 1.48776 0
M  V30 5018 C 471.284 -1.2727 1.56993 0
M  V30 5019 C 471.605 -1.9339 0.25004 0
M  V30 5020 O 470.875 -1.81822 -0.729216 0
M  V30 5021 H 469.455 -0.472732 0.578389 0
M  V30 5022 H 472.117 -0.604234 1.85297 0
M  V30 5023 H 471.213 -2.04669 2.3562 0
M  V30 5024 N 471.514 -1.37532 -0.769588 0
M  V30 5025 C 472.462 -1.33561 -1.90432 0
M  V30 5026 C 473.456 -0.224027 -1.67912 0
M  V30 5027 O 474.662 -0.392174 -1.75676 0
M  V30 5028 H 471.037 -0.416279 -0.626271 0
M  V30 5029 H 473.008 -2.29348 -1.90899 0
M  V30 5030 C 471.757 -1.16162 -3.27722 0
M  V30 5031 H 471.08 -2.00951 -3.45628 0
M  V30 5032 H 472.52 -1.17434 -4.07413 0
M  V30 5033 C 470.979 0.132583 -3.36639 0
M  V30 5034 O 471.509 1.11539 -3.85904 0
M  V30 5035 N 469.715 0.184013 -2.90017 0
M  V30 5036 H 469.262 -0.616415 -2.50116 0
M  V30 5037 H 469.22 1.04956 -2.96364 0
M  V30 5038 N 472.992 0.995999 -1.22138 0
M  V30 5039 C 474.22 1.77066 -1.07029 0
M  V30 5040 C 474.635 1.8495 0.379357 0
M  V30 5041 O 473.992 1.3174 1.26297 0
M  V30 5042 C 474.043 3.20533 -1.67155 0
M  V30 5043 O 473.764 3.13082 -3.06449 0
M  V30 5044 C 475.265 4.14461 -1.5728 0
M  V30 5045 H 472.485 0.556179 -0.375374 0
M  V30 5046 H 475.029 1.25238 -1.61666 0
M  V30 5047 H 473.184 3.6944 -1.16589 0
M  V30 5048 H 473.598 4.03283 -3.35355 0
M  V30 5049 H 475.072 5.1289 -2.04078 0
M  V30 5050 H 475.549 4.36005 -0.528795 0
M  V30 5051 H 476.155 3.71449 -2.07136 0
M  V30 5052 N 474.47 1.03057 1.19235 0
M  V30 5053 C 475.716 0.729098 1.89241 0
M  V30 5054 C 476.049 -0.740573 1.79525 0
M  V30 5055 O 475.324 -1.53946 1.18874 0
M  V30 5056 C 475.607 1.18304 3.40112 0
M  V30 5057 C 475.46 2.71406 3.5869 0
M  V30 5058 C 476.779 0.765161 4.33397 0
M  V30 5059 H 473.898 0.266338 0.687192 0
M  V30 5060 H 476.54 1.28079 1.40341 0
M  V30 5061 H 474.69 0.713672 3.81889 0
M  V30 5062 H 476.362 3.26303 3.26074 0
M  V30 5063 H 474.605 3.11717 3.01687 0
M  V30 5064 H 475.276 2.98225 4.64506 0
M  V30 5065 H 477.752 1.16889 3.99345 0
M  V30 5066 H 476.628 1.11065 5.37546 0
M  V30 5067 H 476.889 -0.332372 4.40849 0
M  V30 5068 N 475.948 -1.35272 0.808662 0
M  V30 5069 C 476.895 -2.29764 0.218482 0
M  V30 5070 C 477.865 -1.52911 -0.648652 0
M  V30 5071 O 479.05 -1.81341 -0.593297 0
M  V30 5072 C 476.19 -3.39388 -0.625282 0
M  V30 5073 C 475.303 -4.31202 0.262516 0
M  V30 5074 C 474.438 -5.27919 -0.589451 0
M  V30 5075 C 473.477 -6.11371 0.298617 0
M  V30 5076 N 472.614 -7.0022 -0.513443 0
M  V30 5077 H 477.454 -2.79645 1.02968 0
M  V30 5078 H 474.991 -1.37629 0.519303 0
M  V30 5079 H 476.949 -4.01615 -1.12966 0
M  V30 5080 H 475.579 -2.90777 -1.40173 0
M  V30 5081 H 474.631 -3.69962 0.885013 0
M  V30 5082 H 475.943 -4.89748 0.945971 0
M  V30 5083 H 475.097 -5.95529 -1.15888 0
M  V30 5084 H 473.836 -4.69875 -1.30647 0
M  V30 5085 H 472.841 -5.42707 0.880301 0
M  V30 5086 H 474.066 -6.71494 1.01352 0
M  V30 5087 H 472.012 -6.44662 -1.21439 0
M  V30 5088 H 471.929 -7.55917 0.111922 0
M  V30 5089 H 473.197 -7.72175 -1.06608 0
M  V30 5090 N 477.426 -0.562348 -1.47226 0
M  V30 5091 C 478.373 0.182461 -2.30078 0
M  V30 5092 C 479.343 0.903503 -1.39377 0
M  V30 5093 O 480.528 0.898188 -1.68337 0
M  V30 5094 C 477.668 1.20322 -3.23445 0
M  V30 5095 C 476.781 0.487717 -4.29238 0
M  V30 5096 C 475.916 1.49422 -5.09752 0
M  V30 5097 C 474.955 0.763976 -6.07314 0
M  V30 5098 N 474.092 1.71755 -6.80768 0
M  V30 5099 H 478.932 -0.530169 -2.93246 0
M  V30 5100 H 476.469 -0.273276 -1.44539 0
M  V30 5101 H 478.427 1.80768 -3.76004 0
M  V30 5102 H 477.057 1.88382 -2.6213 0
M  V30 5103 H 476.109 -0.231374 -3.79696 0
M  V30 5104 H 477.421 -0.0841003 -4.98729 0
M  V30 5105 H 476.575 2.17206 -5.66486 0
M  V30 5106 H 475.314 2.09995 -4.40174 0
M  V30 5107 H 474.319 0.0722344 -5.49753 0
M  V30 5108 H 475.544 0.16391 -6.78902 0
M  V30 5109 H 473.49 2.31177 -6.13916 0
M  V30 5110 H 473.407 1.19802 -7.46447 0
M  V30 5111 H 474.675 2.38638 -7.42073 0
M  V30 5112 N 478.904 1.54736 -0.299062 0
M  V30 5113 C 479.836 2.20891 0.61153 0
M  V30 5114 C 480.849 1.20104 1.09904 0
M  V30 5115 O 482.038 1.46707 1.01683 0
M  V30 5116 C 479.138 2.84018 1.84897 0
M  V30 5117 C 478.311 4.10719 1.50428 0
M  V30 5118 C 477.37 4.57667 2.59667 0
M  V30 5119 O 476.396 5.2291 2.24842 0
M  V30 5120 N 477.598 4.29821 3.90172 0
M  V30 5121 H 480.363 2.99666 0.0452001 0
M  V30 5122 H 477.924 1.61446 -0.121178 0
M  V30 5123 H 479.916 3.1236 2.5732 0
M  V30 5124 H 478.486 2.09095 2.32375 0
M  V30 5125 H 477.706 3.89408 0.612781 0
M  V30 5126 H 478.994 4.93223 1.24934 0
M  V30 5127 H 478.392 3.77549 4.21276 0
M  V30 5128 H 476.949 4.62877 4.58899 0
M  V30 5129 N 480.382 0.0267497 1.57577 0
M  V30 5130 C 481.612 -0.6617 1.95717 0
M  V30 5131 C 482.02 -1.66331 0.901706 0
M  V30 5132 O 481.363 -1.83273 -0.125241 0
M  V30 5133 C 481.425 -1.42649 3.29987 0
M  V30 5134 C 481.089 -0.583482 4.5326 0
M  V30 5135 C 482.086 0.140221 5.19711 0
M  V30 5136 C 479.771 -0.521581 4.99585 0
M  V30 5137 C 481.765 0.914523 6.30805 0
M  V30 5138 C 479.452 0.256428 6.10562 0
M  V30 5139 C 480.45 0.973189 6.76031 0
M  V30 5140 O 480.138 1.73845 7.84878 0
M  V30 5141 H 479.87 -0.187483 0.649481 0
M  V30 5142 H 482.424 0.0820847 2.05236 0
M  V30 5143 H 480.654 -2.21536 3.16952 0
M  V30 5144 H 482.343 -2.00282 3.53047 0
M  V30 5145 H 483.109 0.101716 4.84893 0
M  V30 5146 H 478.988 -1.06904 4.48433 0
M  V30 5147 H 482.532 1.4745 6.81839 0
M  V30 5148 H 478.429 0.296657 6.44818 0
M  V30 5149 H 479.197 1.65797 8.01532 0
M  V30 5150 N 481.861 -1.55662 -0.24637 0
M  V30 5151 C 482.771 -1.93495 -1.32653 0
M  V30 5152 C 483.787 -0.835462 -1.5263 0
M  V30 5153 O 484.963 -1.1369 -1.66242 0
M  V30 5154 C 482.028 -2.22242 -2.66101 0
M  V30 5155 C 481.089 -3.45625 -2.54641 0
M  V30 5156 C 480.322 -3.72991 -3.81724 0
M  V30 5157 O 480.545 -3.02421 -4.8363 0
M  V30 5158 O 479.479 -4.66515 -3.80325 0
M  V30 5159 H 483.305 -2.85498 -1.03559 0
M  V30 5160 H 480.89 -1.42551 -0.44717 0
M  V30 5161 H 482.772 -2.42037 -3.44958 0
M  V30 5162 H 481.447 -1.33417 -2.94926 0
M  V30 5163 H 480.354 -3.31136 -1.74067 0
M  V30 5164 H 481.687 -4.34754 -2.3076 0
M  V30 5165 N 483.339 0.512053 -1.4905 0
M  V30 5166 C 484.587 1.26436 -1.57665 0
M  V30 5167 C 484.908 1.93255 -0.260293 0
M  V30 5168 O 484.178 1.82206 0.719564 0
M  V30 5169 H 482.758 0.469658 -0.580888 0
M  V30 5170 H 485.42 0.594398 -1.85615 0
M  V30 5171 H 484.516 2.03417 -2.36702 0
M  V30 5172 N 484.817 1.37938 0.762283 0
M  V30 5173 C 486.065 1.33404 1.51815 0
M  V30 5174 C 486.386 -0.0780975 1.94844 0
M  V30 5175 O 485.656 -1.02405 1.67003 0
M  V30 5176 H 484.236 0.490839 0.563104 0
M  V30 5177 H 486.898 1.72527 0.906669 0
M  V30 5178 H 485.994 1.97926 2.41313 0
M  V30 5179 N 486.295 -0.989507 1.22664 0
M  V30 5180 C 487.544 -1.72375 1.04737 0
M  V30 5181 C 487.857 -1.91096 -0.417316 0
M  V30 5182 O 489.063 -2.6188 -0.716334 0
M  V30 5183 C 487.519 -3.10161 1.82561 0
M  V30 5184 C 487.127 -2.99358 3.333 0
M  V30 5185 C 488.871 -3.87607 1.73093 0
M  V30 5186 C 486.778 -4.32319 4.03552 0
M  V30 5187 H 485.708 -0.646326 0.388302 0
M  V30 5188 H 488.359 -1.10437 1.46546 0
M  V30 5189 H 486.741 -3.728 1.33552 0
M  V30 5190 H 487.915 -2.45863 3.89728 0
M  V30 5191 H 486.23 -2.35392 3.43481 0
M  V30 5192 H 488.827 -4.86025 2.22899 0
M  V30 5193 H 489.17 -4.10509 0.691976 0
M  V30 5194 H 489.703 -3.31652 2.19663 0
M  V30 5195 H 486.442 -4.14616 5.07714 0
M  V30 5196 H 485.962 -4.85714 3.51911 0
M  V30 5197 H 487.641 -5.01051 4.09337 0
M  V30 5198 N 487.773 -1.03688 -1.18687 0
M  V30 5199 C 489.02 -0.73803 -1.88572 0
M  V30 5200 C 489.348 0.733973 -1.8012 0
M  V30 5201 O 488.603 1.55098 -1.19344 0
M  V30 5202 C 488.902 -1.14477 -3.3857 0
M  V30 5203 C 488.568 -2.61641 -3.67226 0
M  V30 5204 C 487.23 -3.01846 -3.74757 0
M  V30 5205 C 489.582 -3.56812 -3.79914 0
M  V30 5206 C 486.91 -4.36118 -3.92451 0
M  V30 5207 C 489.262 -4.90799 -3.99123 0
M  V30 5208 C 487.926 -5.3068 -4.04888 0
M  V30 5209 H 487.196 -0.270064 -0.690034 0
M  V30 5210 H 489.843 -1.3012 -1.40503 0
M  V30 5211 H 488.148 -0.500337 -3.88592 0
M  V30 5212 H 489.845 -0.89095 -3.90977 0
M  V30 5213 H 486.435 -2.29498 -3.61979 0
M  V30 5214 H 490.619 -3.26899 -3.73431 0
M  V30 5215 H 485.875 -4.66542 -3.95157 0
M  V30 5216 H 490.049 -5.64451 -4.07882 0
M  V30 5217 H 487.676 -6.34733 -4.18351 0
M  V30 5218 N 489.251 1.34841 -0.815825 0
M  V30 5219 C 490.198 2.29644 -0.230664 0
M  V30 5220 C 491.168 1.53253 0.640533 0
M  V30 5221 O 492.353 1.81653 0.583672 0
M  V30 5222 C 489.493 3.39715 0.607275 0
M  V30 5223 C 488.606 4.31056 -0.28538 0
M  V30 5224 C 487.741 5.28225 0.561446 0
M  V30 5225 C 486.78 6.11204 -0.331035 0
M  V30 5226 N 485.917 7.00483 0.476302 0
M  V30 5227 H 490.757 2.79095 -1.0445 0
M  V30 5228 H 488.294 1.37351 -0.526595 0
M  V30 5229 H 490.252 4.02208 1.10835 0
M  V30 5230 H 488.882 2.91517 1.38629 0
M  V30 5231 H 487.934 3.69487 -0.904621 0
M  V30 5232 H 489.246 4.89239 -0.97193 0
M  V30 5233 H 488.4 5.96135 1.12728 0
M  V30 5234 H 487.139 4.70562 1.28153 0
M  V30 5235 H 486.144 5.42232 -0.909069 0
M  V30 5236 H 487.369 6.70947 -1.04912 0
M  V30 5237 H 485.315 6.45296 1.18019 0
M  V30 5238 H 485.232 7.55847 -0.152008 0
M  V30 5239 H 486.5 7.7273 1.02512 0
M  V30 5240 N 490.729 0.570148 1.46925 0
M  V30 5241 C 491.978 0.0487352 2.01641 0
M  V30 5242 C 492.291 -1.31433 1.44861 0
M  V30 5243 O 493.497 -1.92638 1.91318 0
M  V30 5244 C 491.953 0.0365817 3.59881 0
M  V30 5245 C 491.561 1.39719 4.25655 0
M  V30 5246 C 493.305 -0.431545 4.22301 0
M  V30 5247 C 491.212 1.34345 5.75939 0
M  V30 5248 H 490.142 0.0144492 0.753862 0
M  V30 5249 H 492.793 0.719928 1.68788 0
M  V30 5250 H 491.175 -0.700522 3.89755 0
M  V30 5251 H 492.349 2.15303 4.07408 0
M  V30 5252 H 490.664 1.80431 3.75278 0
M  V30 5253 H 493.261 -0.490354 5.32447 0
M  V30 5254 H 493.604 -1.44638 3.90366 0
M  V30 5255 H 494.137 0.251102 3.97007 0
M  V30 5256 H 490.876 2.33469 6.12513 0
M  V30 5257 H 490.396 0.629615 5.96486 0
M  V30 5258 H 492.075 1.051 6.38407 0
M  V30 5259 N 492.207 -1.54576 0.307264 0
M  V30 5260 C 493.17 -2.22423 -0.553224 0
M  V30 5261 C 494.17 -1.21231 -1.05639 0
M  V30 5262 O 495.36 -1.45923 -0.951419 0
M  V30 5263 C 492.492 -2.91552 -1.76664 0
M  V30 5264 H 493.685 -2.99874 0.0396484 0
M  V30 5265 H 491.238 -1.56192 0.0581629 0
M  V30 5266 H 491.973 -2.18196 -2.39918 0
M  V30 5267 H 491.758 -3.65738 -1.41343 0
M  V30 5268 H 493.248 -3.43292 -2.37783 0
M  V30 5269 N 493.685 -0.035106 -1.57561 0
M  V30 5270 C 494.91 0.655802 -1.96759 0
M  V30 5271 C 495.335 1.64523 -0.911809 0
M  V30 5272 O 494.693 1.80857 0.126673 0
M  V30 5273 C 494.741 1.33326 -3.35047 0
M  V30 5274 O 493.845 2.44866 -3.31835 0
M  V30 5275 H 493.186 0.171807 -0.641388 0
M  V30 5276 H 495.716 -0.0987369 -2.04362 0
M  V30 5277 H 495.726 1.68867 -3.71413 0
M  V30 5278 H 494.401 0.608033 -4.11431 0
M  V30 5279 H 492.978 2.11392 -3.07193 0
M  V30 5280 N 495.163 1.55791 0.238111 0
M  V30 5281 C 496.409 1.79211 0.962035 0
M  V30 5282 C 496.764 0.605463 1.82625 0
M  V30 5283 O 496.057 -0.40104 1.87356 0
M  V30 5284 C 496.251 3.05869 1.84875 0
M  V30 5285 C 496.08 4.36739 1.07186 0
M  V30 5286 C 494.85 4.99346 0.773424 0
M  V30 5287 C 497.048 5.1237 0.445168 0
M  V30 5288 N 495.03 6.13894 -0.0266037 0
M  V30 5289 C 496.401 6.19613 -0.219023 0
M  V30 5290 C 498.456 4.96622 0.356522 0
M  V30 5291 C 497.159 7.1282 -0.963358 0
M  V30 5292 C 499.185 5.90214 -0.374304 0
M  V30 5293 C 498.547 6.96872 -1.0271 0
M  V30 5294 H 494.646 0.707627 0.332849 0
M  V30 5295 H 497.23 1.93284 0.234368 0
M  V30 5296 H 495.401 2.93108 2.54837 0
M  V30 5297 H 497.133 3.17547 2.5089 0
M  V30 5298 H 493.888 4.60948 1.08738 0
M  V30 5299 H 494.312 6.75727 -0.414968 0
M  V30 5300 H 498.954 4.14232 0.846878 0
M  V30 5301 H 496.672 7.94704 -1.46529 0
M  V30 5302 H 500.258 5.80106 -0.443678 0
M  V30 5303 H 499.138 7.68045 -1.58358 0
M  V30 5304 N 496.642 -0.504142 1.49319 0
M  V30 5305 C 497.605 -1.5883 1.65244 0
M  V30 5306 C 498.605 -1.52009 0.524386 0
M  V30 5307 O 499.795 -1.55218 0.79077 0
M  V30 5308 C 496.927 -2.98481 1.64687 0
M  V30 5309 H 498.12 -1.4604 2.61939 0
M  V30 5310 H 495.673 -0.728144 1.38303 0
M  V30 5311 H 496.408 -3.16751 0.695644 0
M  V30 5312 H 496.193 -3.0484 2.46607 0
M  V30 5313 H 497.683 -3.77256 1.79075 0
M  V30 5314 N 498.12 -1.38341 -0.754957 0
M  V30 5315 C 499.397 -1.24995 -1.50451 0
M  V30 5316 C 499.777 0.149244 -2.10572 0
M  V30 5317 O 499.125 1.15861 -1.96948 0
M  V30 5318 C 499.335 -2.35904 -2.57197 0
M  V30 5319 C 500.683 -2.74262 -3.24138 0
M  V30 5320 O 501.707 -2.35205 -2.67501 0
M  V30 5321 O 500.566 -3.4161 -4.26574 0
M  V30 5322 H 497.66 -0.48872 -0.667144 0
M  V30 5323 H 500.206 -1.50165 -0.790486 0
M  V30 5324 H 498.978 -3.2953 -2.11011 0
M  V30 5325 H 498.601 -2.12291 -3.36182 0
M  V30 5326 N 499.598 0.982988 -1.23187 0
M  V30 5327 C 500.528 2.09301 -1.03515 0
M  V30 5328 C 501.509 1.70035 0.0471136 0
M  V30 5329 O 502.694 1.93847 -0.117029 0
M  V30 5330 C 499.824 3.4167 -0.622791 0
M  V30 5331 C 498.778 3.94828 -1.65211 0
M  V30 5332 C 498.104 5.23362 -1.09527 0
M  V30 5333 C 499.404 4.2439 -3.04451 0
M  V30 5334 H 501.098 2.26016 -1.96359 0
M  V30 5335 H 498.644 1.08611 -0.945501 0
M  V30 5336 H 500.597 4.18746 -0.472233 0
M  V30 5337 H 499.321 3.24811 0.341329 0
M  V30 5338 H 497.98 3.19895 -1.79061 0
M  V30 5339 H 497.628 5.02852 -0.122211 0
M  V30 5340 H 497.328 5.59895 -1.783 0
M  V30 5341 H 498.852 6.03062 -0.956511 0
M  V30 5342 H 500.266 4.92225 -2.93917 0
M  V30 5343 H 498.663 4.72118 -3.70438 0
M  V30 5344 H 499.733 3.31765 -3.53638 0
M  V30 5345 N 501.076 1.04316 1.18135 0
M  V30 5346 C 502.322 0.749128 1.88457 0
M  V30 5347 C 502.655 -0.72149 1.803 0
M  V30 5348 O 501.93 -1.52676 1.205 0
M  V30 5349 C 502.213 1.21905 3.38838 0
M  V30 5350 C 502.066 2.75195 3.55792 0
M  V30 5351 C 503.385 0.811085 4.32561 0
M  V30 5352 H 500.504 0.273611 0.684329 0
M  V30 5353 H 503.146 1.29561 1.38975 0
M  V30 5354 H 501.296 0.754137 3.8111 0
M  V30 5355 H 502.968 3.29743 3.22595 0
M  V30 5356 H 501.211 3.14899 2.98364 0
M  V30 5357 H 501.882 3.03135 4.61317 0
M  V30 5358 H 504.358 1.21118 3.98082 0
M  V30 5359 H 503.234 1.16761 5.36338 0
M  V30 5360 H 503.495 -0.285596 4.41177 0
M  V30 5361 N 502.554 -1.34406 0.822964 0
M  V30 5362 C 503.502 -2.31428 0.233165 0
M  V30 5363 C 504.496 -1.57404 -0.626118 0
M  V30 5364 O 505.702 -1.72402 -0.517453 0
M  V30 5365 H 502.077 -0.749863 0.0566557 0
M  V30 5366 H 504.048 -2.78699 1.06628 0
M  V30 5367 C 502.797 -3.42653 -0.590264 0
M  V30 5368 H 502.12 -3.99753 0.0616129 0
M  V30 5369 H 503.56 -4.12778 -0.969054 0
M  V30 5370 C 502.019 -2.87112 -1.76262 0
M  V30 5371 O 502.549 -2.81995 -2.8608 0
M  V30 5372 N 500.755 -2.43934 -1.57938 0
M  V30 5373 H 500.302 -2.48296 -0.686078 0
M  V30 5374 H 500.26 -2.07123 -2.36532 0
M  V30 5375 N 504.032 -0.577932 -1.46621 0
M  V30 5376 C 504.995 0.147805 -2.28723 0
M  V30 5377 C 505.995 0.823325 -1.38123 0
M  V30 5378 O 507.185 0.676011 -1.60548 0
M  V30 5379 C 504.317 1.21853 -3.18378 0
M  V30 5380 H 505.51 -0.573654 -2.94362 0
M  V30 5381 H 503.063 -0.335703 -1.52652 0
M  V30 5382 H 503.798 1.97173 -2.57475 0
M  V30 5383 H 503.583 0.738714 -3.85078 0
M  V30 5384 H 505.073 1.72768 -3.80186 0
M  V30 5385 N 505.51 1.54411 -0.315457 0
M  V30 5386 C 506.46 2.20772 0.569549 0
M  V30 5387 C 507.444 1.18551 1.08787 0
M  V30 5388 O 508.636 1.44213 1.02624 0
M  V30 5389 C 505.765 2.96293 1.73394 0
M  V30 5390 C 504.851 4.05844 1.2309 0
M  V30 5391 N 505.242 5.03822 0.446927 0
M  V30 5392 C 503.54 4.19648 1.51035 0
M  V30 5393 C 504.241 5.8143 0.17725 0
M  V30 5394 N 503.217 5.38245 0.761118 0
M  V30 5395 H 507.019 2.93877 -0.0368076 0
M  V30 5396 H 504.533 1.61949 -0.120915 0
M  V30 5397 H 506.53 3.42313 2.37965 0
M  V30 5398 H 505.19 2.24708 2.34386 0
M  V30 5399 H 506.201 5.17821 0.0905027 0
M  V30 5400 H 502.878 3.59274 2.1267 0
M  V30 5401 H 504.268 6.70369 -0.45335 0
M  V30 5402 N 506.988 0.0434614 1.5754 0
M  V30 5403 C 508.234 -0.632971 1.92669 0
M  V30 5404 C 508.567 -1.70947 0.921446 0
M  V30 5405 O 507.842 -1.94426 -0.0537202 0
M  V30 5406 C 508.125 -1.23619 3.38216 0
M  V30 5407 C 507.978 -0.168274 4.49485 0
M  V30 5408 C 509.297 -2.15008 3.84005 0
M  V30 5409 H 506.416 -0.228629 0.700641 0
M  V30 5410 H 509.058 0.103651 1.89717 0
M  V30 5411 H 507.208 -1.864 3.40863 0
M  V30 5412 H 508.88 0.463196 4.58969 0
M  V30 5413 H 507.123 0.504581 4.30855 0
M  V30 5414 H 507.794 -0.630218 5.48391 0
M  V30 5415 H 510.27 -1.62198 3.83185 0
M  V30 5416 H 509.146 -2.54161 4.86511 0
M  V30 5417 H 509.407 -3.04707 3.20322 0
M  V30 5418 N 508.466 -1.55915 -0.229846 0
M  V30 5419 C 509.712 -1.78807 -0.956868 0
M  V30 5420 C 510.045 -0.611687 -1.84315 0
M  V30 5421 O 509.32 0.389398 -1.90562 0
M  V30 5422 C 509.603 -3.11718 -1.80288 0
M  V30 5423 C 509.456 -4.3979 -0.943649 0
M  V30 5424 C 510.775 -3.40999 -2.78222 0
M  V30 5425 H 507.894 -0.6505 -0.346437 0
M  V30 5426 H 510.536 -1.88648 -0.226252 0
M  V30 5427 H 508.686 -3.03459 -2.42579 0
M  V30 5428 H 510.358 -4.60059 -0.338121 0
M  V30 5429 H 508.601 -4.33086 -0.248705 0
M  V30 5430 H 509.272 -5.29208 -1.5698 0
M  V30 5431 H 511.748 -3.49332 -2.26067 0
M  V30 5432 H 510.624 -4.35183 -3.34526 0
M  V30 5433 H 510.885 -2.62754 -3.55546 0
M  V30 5434 N 509.944 0.496216 -1.49584 0
M  V30 5435 C 511.355 1.07765 -1.52459 0
M  V30 5436 C 511.706 1.93679 -0.31353 0
M  V30 5437 O 510.831 2.08588 0.576186 0
M  V30 5438 C 511.426 1.96111 -2.76271 0
M  V30 5439 C 509.985 2.49409 -2.81908 0
M  V30 5440 C 509.132 1.27142 -2.46435 0
M  V30 5441 H 512.083 0.279914 -1.56212 0
M  V30 5442 H 512.104 2.80862 -2.56704 0
M  V30 5443 H 511.616 1.33555 -3.64396 0
M  V30 5444 H 509.717 3.1559 -1.98074 0
M  V30 5445 H 509.83 2.86234 -3.84196 0
M  V30 5446 H 508.194 1.59818 -1.98319 0
M  V30 5447 H 508.977 0.662866 -3.3684 0
M  V30 5448 N 511.423 1.38739 0.74761 0
M  V30 5449 C 512.671 1.35007 1.50391 0
M  V30 5450 C 512.992 -0.0574274 1.94915 0
M  V30 5451 O 512.262 -1.00628 1.6808 0
M  V30 5452 H 510.842 0.496784 0.557866 0
M  V30 5453 H 513.504 1.73479 0.888319 0
M  V30 5454 H 512.6 2.00474 2.392 0
M  V30 5455 N 512.901 -0.976442 1.23707 0
M  V30 5456 C 514.126 -1.75875 1.09922 0
M  V30 5457 C 514.551 -1.84911 -0.34489 0
M  V30 5458 O 513.909 -1.31363 -1.24954 0
M  V30 5459 C 513.957 -3.16179 1.73388 0
M  V30 5460 O 513.061 -4.00124 0.99871 0
M  V30 5461 H 512.402 -0.540954 0.385052 0
M  V30 5462 H 514.932 -1.22546 1.6384 0
M  V30 5463 H 514.942 -3.66741 1.78788 0
M  V30 5464 H 513.617 -3.08917 2.78466 0
M  V30 5465 H 512.194 -3.58624 1.02193 0
M  V30 5466 N 514.379 -1.04941 -1.1758 0
M  V30 5467 C 515.627 -0.756492 -1.87408 0
M  V30 5468 C 515.948 0.718478 -1.81281 0
M  V30 5469 O 515.218 1.519 -1.23706 0
M  V30 5470 H 513.798 -0.276841 -0.693807 0
M  V30 5471 H 516.46 -1.32803 -1.42652 0
M  V30 5472 H 515.556 -1.06918 -2.93215 0
M  V30 5473 N 515.857 1.33968 -0.830081 0
M  V30 5474 C 517.103 1.98357 -0.422191 0
M  V30 5475 C 517.436 1.65633 1.01387 0
M  V30 5476 O 516.711 0.931648 1.70735 0
M  V30 5477 C 516.994 3.54492 -0.633043 0
M  V30 5478 C 516.847 3.96934 -2.11574 0
M  V30 5479 C 518.166 4.40039 -0.0735584 0
M  V30 5480 H 515.285 0.720544 -0.154871 0
M  V30 5481 H 517.927 1.58749 -1.04397 0
M  V30 5482 H 516.077 3.88361 -0.103775 0
M  V30 5483 H 517.749 3.73363 -2.7092 0
M  V30 5484 H 515.992 3.46984 -2.60354 0
M  V30 5485 H 516.663 5.05651 -2.21406 0
M  V30 5486 H 519.139 4.12764 -0.52585 0
M  V30 5487 H 518.015 5.48327 -0.250841 0
M  V30 5488 H 518.276 4.30124 1.02202 0
M  V30 5489 N 517.335 0.585699 1.46312 0
M  V30 5490 C 518.581 0.0725284 2.0267 0
M  V30 5491 C 518.914 -1.28523 1.45586 0
M  V30 5492 O 518.189 -1.84283 0.622101 0
M  V30 5493 C 518.472 0.0099788 3.60099 0
M  V30 5494 C 518.325 1.39685 4.27561 0
M  V30 5495 C 519.644 -0.689117 4.34671 0
M  V30 5496 H 516.763 0.0278307 0.736474 0
M  V30 5497 H 519.405 0.753472 1.74421 0
M  V30 5498 H 517.555 -0.56992 3.84297 0
M  V30 5499 H 519.227 2.02215 4.14617 0
M  V30 5500 H 517.47 1.96374 3.86807 0
M  V30 5501 H 518.141 1.30553 5.36339 0
M  V30 5502 H 520.617 -0.196446 4.15636 0
M  V30 5503 H 519.493 -0.701921 5.44393 0
M  V30 5504 H 519.754 -1.75101 4.05946 0
M  V30 5505 N 518.813 -1.54241 0.323641 0
M  V30 5506 C 519.76 -2.24339 -0.542277 0
M  V30 5507 C 520.73 -1.23421 -1.11159 0
M  V30 5508 O 521.915 -1.52104 -1.15192 0
M  V30 5509 C 519.055 -3.00479 -1.69725 0
M  V30 5510 C 518.168 -4.16214 -1.15716 0
M  V30 5511 C 517.303 -4.79884 -2.27783 0
M  V30 5512 C 516.342 -5.87722 -1.71023 0
M  V30 5513 N 515.479 -6.45254 -2.76752 0
M  V30 5514 H 520.319 -2.97935 0.0620613 0
M  V30 5515 H 517.856 -1.47039 0.0423993 0
M  V30 5516 H 519.814 -3.42869 -2.3769 0
M  V30 5517 H 518.444 -2.29217 -2.27288 0
M  V30 5518 H 517.496 -3.78605 -0.369063 0
M  V30 5519 H 518.808 -4.93838 -0.701832 0
M  V30 5520 H 517.962 -5.25243 -3.03651 0
M  V30 5521 H 516.701 -4.01641 -2.76652 0
M  V30 5522 H 515.706 -5.41765 -0.936518 0
M  V30 5523 H 516.931 -6.67863 -1.2303 0
M  V30 5524 H 514.877 -5.69884 -3.24912 0
M  V30 5525 H 514.794 -7.18292 -2.35782 0
M  V30 5526 H 516.062 -6.95269 -3.5245 0
M  V30 5527 N 520.291 -0.0518155 -1.57515 0
M  V30 5528 C 521.539 0.620595 -1.92336 0
M  V30 5529 C 521.86 1.71345 -0.930907 0
M  V30 5530 O 521.13 1.95885 0.0241341 0
M  V30 5531 H 519.71 0.232226 -0.709986 0
M  V30 5532 H 522.372 -0.104969 -1.94617 0
M  V30 5533 H 521.468 1.05879 -2.93592 0
M  V30 5534 N 521.769 1.56035 0.221574 0
M  V30 5535 C 522.699 1.95434 1.2778 0
M  V30 5536 C 523.68 0.822564 1.48889 0
M  V30 5537 O 524.865 1.08486 1.61072 0
M  V30 5538 C 521.995 2.27102 2.62759 0
M  V30 5539 C 520.949 3.4277 2.56306 0
M  V30 5540 C 520.275 3.60043 3.95314 0
M  V30 5541 C 521.575 4.77742 2.11093 0
M  V30 5542 H 523.269 2.83912 0.950504 0
M  V30 5543 H 520.815 1.36596 0.455791 0
M  V30 5544 H 522.768 2.53256 3.36807 0
M  V30 5545 H 521.492 1.35478 2.97176 0
M  V30 5546 H 520.151 3.16664 1.84715 0
M  V30 5547 H 519.799 2.65794 4.27039 0
M  V30 5548 H 519.499 4.37841 3.91879 0
M  V30 5549 H 521.023 3.88545 4.71025 0
M  V30 5550 H 522.437 5.03102 2.74885 0
M  V30 5551 H 520.834 5.58823 2.18716 0
M  V30 5552 H 521.904 4.731 1.06321 0
M  V30 5553 N 523.247 -0.488276 1.49845 0
M  V30 5554 C 524.179 -1.60539 1.63584 0
M  V30 5555 C 525.192 -1.5434 0.517972 0
M  V30 5556 O 526.381 -1.60041 0.790516 0
M  V30 5557 C 523.481 -2.99374 1.58835 0
M  V30 5558 C 522.654 -3.30624 2.86368 0
M  V30 5559 C 521.713 -4.4893 2.74496 0
M  V30 5560 O 520.739 -4.50085 3.48443 0
M  V30 5561 N 521.941 -5.49591 1.86894 0
M  V30 5562 H 524.706 -1.49176 2.59936 0
M  V30 5563 H 522.267 -0.67639 1.47094 0
M  V30 5564 H 524.259 -3.76459 1.48529 0
M  V30 5565 H 522.829 -3.04595 0.702892 0
M  V30 5566 H 522.049 -2.42314 3.1093 0
M  V30 5567 H 523.337 -3.48305 3.70892 0
M  V30 5568 H 522.735 -5.51467 1.26097 0
M  V30 5569 H 521.292 -6.25728 1.82503 0
M  V30 5570 N 524.725 -1.39134 -0.740242 0
M  V30 5571 C 525.635 -1.39697 -1.88473 0
M  V30 5572 C 526.651 -0.292403 -1.71526 0
M  V30 5573 O 527.827 -0.533021 -1.94219 0
M  V30 5574 C 524.892 -1.23382 -3.24003 0
M  V30 5575 C 523.953 -2.43763 -3.53381 0
M  V30 5576 C 523.186 -2.28216 -4.82445 0
M  V30 5577 O 523.409 -1.28288 -5.55786 0
M  V30 5578 O 522.343 -3.1709 -5.11603 0
M  V30 5579 H 526.169 -2.36159 -1.90952 0
M  V30 5580 H 523.754 -1.20194 -0.887346 0
M  V30 5581 H 525.636 -1.16395 -4.05006 0
M  V30 5582 H 524.311 -0.300121 -3.22306 0
M  V30 5583 H 523.218 -2.56325 -2.72485 0
M  V30 5584 H 524.551 -3.35808 -3.59852 0
M  V30 5585 N 526.204 0.969867 -1.24223 0
M  V30 5586 C 527.45 1.7151 -1.08223 0
M  V30 5587 C 527.783 1.90478 0.37838 0
M  V30 5588 O 527.058 1.4647 1.27971 0
M  V30 5589 C 527.341 3.10714 -1.82013 0
M  V30 5590 C 527.194 2.9925 -3.35811 0
M  V30 5591 C 528.513 4.10332 -1.59108 0
M  V30 5592 H 525.632 0.622499 -0.394543 0
M  V30 5593 H 528.274 1.1284 -1.52863 0
M  V30 5594 H 526.424 3.608 -1.44068 0
M  V30 5595 H 528.096 2.56608 -3.83341 0
M  V30 5596 H 526.339 2.35512 -3.64303 0
M  V30 5597 H 527.01 3.97857 -3.82641 0
M  V30 5598 H 529.486 3.69097 -1.92111 0
M  V30 5599 H 528.362 5.05804 -2.13198 0
M  V30 5600 H 528.623 4.38926 -0.528832 0
M  V30 5601 N 527.682 1.05563 1.17022 0
M  V30 5602 C 528.93 0.76642 1.87004 0
M  V30 5603 C 529.251 -0.708854 1.8166 0
M  V30 5604 O 528.521 -1.51242 1.2451 0
M  V30 5605 H 527.101 0.280516 0.692329 0
M  V30 5606 H 529.763 1.33557 1.41945 0
M  V30 5607 H 528.859 1.08472 2.92644 0
M  V30 5608 N 529.16 -1.33526 0.837174 0
M  V30 5609 C 530.09 -2.31764 0.284206 0
M  V30 5610 C 531.071 -1.58896 -0.607142 0
M  V30 5611 O 532.256 -1.86798 -0.531047 0
M  V30 5612 C 529.386 -3.43029 -0.542962 0
M  V30 5613 C 528.34 -4.27255 0.252451 0
M  V30 5614 C 527.666 -5.3012 -0.69836 0
M  V30 5615 C 528.966 -5.01229 1.46858 0
M  V30 5616 H 530.66 -2.78262 1.10502 0
M  V30 5617 H 528.206 -1.3378 0.532812 0
M  V30 5618 H 530.159 -4.1078 -0.940096 0
M  V30 5619 H 528.883 -2.95216 -1.39697 0
M  V30 5620 H 527.542 -3.61127 0.631124 0
M  V30 5621 H 527.19 -4.78564 -1.54872 0
M  V30 5622 H 526.89 -5.87353 -0.170274 0
M  V30 5623 H 528.414 -6.00737 -1.09305 0
M  V30 5624 H 529.828 -5.61756 1.14469 0
M  V30 5625 H 528.225 -5.68104 1.93333 0
M  V30 5626 H 529.295 -4.301 2.23924 0
M  V30 5627 N 530.638 -0.59345 -1.46 0
M  V30 5628 C 532.049 -0.169801 -1.85926 0
M  V30 5629 C 532.4 1.26984 -1.49565 0
M  V30 5630 O 531.525 1.96076 -0.915602 0
M  V30 5631 C 532.12 -0.301385 -3.37457 0
M  V30 5632 C 530.679 0.0674684 -3.7634 0
M  V30 5633 C 529.826 -0.632383 -2.69993 0
M  V30 5634 H 532.777 -0.801014 -1.37002 0
M  V30 5635 H 532.798 0.470331 -3.77582 0
M  V30 5636 H 532.31 -1.34927 -3.63891 0
M  V30 5637 H 530.411 1.11507 -3.55523 0
M  V30 5638 H 530.524 -0.316332 -4.78055 0
M  V30 5639 H 528.888 -0.0714961 -2.546 0
M  V30 5640 H 529.671 -1.68212 -2.99265 0
M  V30 5641 N 532.116 1.54067 -0.331816 0
M  V30 5642 C 533.046 2.27569 0.522932 0
M  V30 5643 C 534.027 1.28679 1.11247 0
M  V30 5644 O 535.212 1.57504 1.13605 0
M  V30 5645 C 532.342 3.0397 1.67987 0
M  V30 5646 C 531.296 4.10267 1.21924 0
M  V30 5647 C 530.622 4.74555 2.46377 0
M  V30 5648 C 531.922 5.21268 0.32815 0
M  V30 5649 H 533.616 2.99264 -0.0901977 0
M  V30 5650 H 531.162 1.4393 -0.044821 0
M  V30 5651 H 533.115 3.54123 2.28418 0
M  V30 5652 H 531.839 2.29906 2.31971 0
M  V30 5653 H 530.498 3.61009 0.637809 0
M  V30 5654 H 530.146 3.97098 3.08743 0
M  V30 5655 H 529.846 5.46363 2.16243 0
M  V30 5656 H 531.37 5.27487 3.07555 0
M  V30 5657 H 532.784 5.67128 0.838978 0
M  V30 5658 H 531.181 5.99982 0.119228 0
M  V30 5659 H 532.251 4.80673 -0.638839 0
M  V30 5660 N 533.594 0.0601682 1.57485 0
M  V30 5661 C 534.544 -0.920969 2.08572 0
M  V30 5662 C 535.528 -1.26617 0.992827 0
M  V30 5663 O 536.72 -1.24708 1.25606 0
M  V30 5664 C 533.849 -2.19267 2.64153 0
M  V30 5665 C 532.935 -1.87447 3.80427 0
M  V30 5666 N 533.326 -1.26025 4.89848 0
M  V30 5667 C 531.624 -2.17265 3.89502 0
M  V30 5668 C 532.325 -1.12036 5.70809 0
M  V30 5669 N 531.301 -1.62624 5.18705 0
M  V30 5670 H 535.103 -0.441561 2.90564 0
M  V30 5671 H 532.617 -0.144043 1.6176 0
M  V30 5672 H 534.614 -2.90462 2.99061 0
M  V30 5673 H 533.274 -2.67806 1.83603 0
M  V30 5674 H 534.285 -0.931336 5.09457 0
M  V30 5675 H 530.962 -2.68262 3.19909 0
M  V30 5676 H 532.352 -0.642783 6.68818 0
M  V30 5677 N 535.072 -1.5615 -0.213296 0
M  V30 5678 C 536.488 -1.49327 -0.56336 0
M  V30 5679 C 536.688 -0.756826 -1.86747 0
M  V30 5680 O 535.744 -0.299866 -2.50713 0
M  V30 5681 C 537.057 -2.9392 -0.634944 0
M  V30 5682 C 538.605 -3.04487 -0.725013 0
M  V30 5683 C 539.08 -4.50456 -0.82787 0
M  V30 5684 N 540.571 -4.54533 -0.891876 0
M  V30 5685 C 541.306 -5.64766 -0.991315 0
M  V30 5686 N 540.802 -6.84733 -1.05419 0
M  V30 5687 N 542.595 -5.52637 -1.02709 0
M  V30 5688 H 534.746 -2.02453 0.642366 0
M  V30 5689 H 537.009 -0.920548 0.226487 0
M  V30 5690 H 536.715 -3.50783 0.253859 0
M  V30 5691 H 536.589 -3.46274 -1.49579 0
M  V30 5692 H 538.976 -2.47685 -1.60425 0
M  V30 5693 H 539.057 -2.55289 0.161669 0
M  V30 5694 H 538.701 -5.07878 0.0469464 0
M  V30 5695 H 538.631 -4.97369 -1.73009 0
M  V30 5696 H 541.122 -3.68141 -0.85327 0
M  V30 5697 H 541.435 -7.64493 -1.13007 0
M  V30 5698 H 539.78 -6.87427 -1.02318 0
M  V30 5699 H 542.971 -4.5784 -0.974687 0
M  V30 5700 H 543.144 -6.38576 -1.10113 0
M  V30 5701 N 536.55 0.480323 -1.50102 0
M  V30 5702 C 537.798 1.23063 -1.60312 0
M  V30 5703 C 538.119 1.92659 -0.301226 0
M  V30 5704 O 537.389 1.83691 0.680753 0
M  V30 5705 H 535.969 0.457231 -0.590719 0
M  V30 5706 H 538.631 0.554893 -1.86834 0
M  V30 5707 H 537.727 1.9835 -2.40964 0
M  V30 5708 N 538.028 1.39524 0.732853 0
M  V30 5709 C 539.268 1.383 1.50508 0
M  V30 5710 C 539.632 -0.0208271 1.91989 0
M  V30 5711 O 540.833 -0.158091 2.68335 0
M  V30 5712 C 539.104 2.33007 2.71003 0
M  V30 5713 S 540.663 2.49989 3.60626 0
M  V30 5714 H 537.481 0.490417 0.514794 0
M  V30 5715 H 540.083 1.75641 0.858524 0
M  V30 5716 H 538.787 3.33862 2.38672 0
M  V30 5717 H 538.318 1.96889 3.40585 0
M  V30 5718 H 540.333 1.7394 4.64714 0
M  V30 5719 N 539.506 -0.963266 1.24736 0
M  V30 5720 C 540.436 -2.07628 1.06832 0
M  V30 5721 C 541.417 -1.70088 -0.0200566 0
M  V30 5722 O 542.602 -1.93636 0.147854 0
M  V30 5723 C 539.732 -3.40636 0.677069 0
M  V30 5724 C 538.686 -3.9215 1.71471 0
M  V30 5725 C 538.012 -5.21553 1.1784 0
M  V30 5726 C 539.312 -4.19493 3.11164 0
M  V30 5727 H 541.006 -2.22864 1.9993 0
M  V30 5728 H 538.552 -1.07093 0.96266 0
M  V30 5729 H 540.505 -4.17941 0.538792 0
M  V30 5730 H 539.229 -3.25313 -0.289612 0
M  V30 5731 H 537.888 -3.17005 1.84128 0
M  V30 5732 H 537.536 -5.02593 0.202195 0
M  V30 5733 H 537.236 -5.56988 1.87185 0
M  V30 5734 H 538.76 -6.01463 1.05233 0
M  V30 5735 H 540.174 -4.87487 3.01711 0
M  V30 5736 H 538.571 -4.66165 3.77902 0
M  V30 5737 H 539.641 -3.26097 3.58871 0
M  V30 5738 N 540.985 -1.06182 -1.16461 0
M  V30 5739 C 541.915 -0.692861 -2.22984 0
M  V30 5740 C 542.896 0.314122 -1.67174 0
M  V30 5741 O 544.081 0.189499 -1.93273 0
M  V30 5742 C 541.211 -0.07732 -3.47214 0
M  V30 5743 C 540.165 -1.01015 -4.15909 0
M  V30 5744 C 539.491 -0.257973 -5.34077 0
M  V30 5745 C 540.791 -2.33868 -4.67015 0
M  V30 5746 H 542.485 -1.58343 -2.54102 0
M  V30 5747 H 540.031 -0.76279 -1.22137 0
M  V30 5748 H 541.984 0.19266 -4.20959 0
M  V30 5749 H 540.708 0.848254 -3.15392 0
M  V30 5750 H 539.367 -1.26486 -3.44088 0
M  V30 5751 H 539.015 0.670684 -4.98509 0
M  V30 5752 H 538.715 -0.879638 -5.80979 0
M  V30 5753 H 540.239 0.00448788 -6.106 0
M  V30 5754 H 541.653 -2.1279 -5.32347 0
M  V30 5755 H 540.05 -2.91522 -5.24533 0
M  V30 5756 H 541.12 -2.97019 -3.83286 0
M  V30 5757 N 542.463 1.3308 -0.844243 0
M  V30 5758 C 543.712 1.96868 -0.438833 0
M  V30 5759 C 544.025 1.67599 1.00846 0
M  V30 5760 O 545.231 2.25043 1.51881 0
M  V30 5761 C 543.687 3.5234 -0.73377 0
M  V30 5762 C 543.295 3.90481 -2.1961 0
M  V30 5763 C 545.039 4.22653 -0.395574 0
M  V30 5764 C 542.946 5.38954 -2.43481 0
M  V30 5765 H 541.876 0.736749 -0.160364 0
M  V30 5766 H 544.527 1.51623 -1.03358 0
M  V30 5767 H 542.909 3.95941 -0.068589 0
M  V30 5768 H 544.083 3.57922 -2.90221 0
M  V30 5769 H 542.398 3.33165 -2.4978 0
M  V30 5770 H 544.995 5.31848 -0.551477 0
M  V30 5771 H 545.338 4.11004 0.661921 0
M  V30 5772 H 545.871 3.84601 -1.01621 0
M  V30 5773 H 542.61 5.55612 -3.47816 0
M  V30 5774 H 542.13 5.72954 -1.77437 0
M  V30 5775 H 543.809 6.05907 -2.26905 0
M  V30 5776 N 543.941 0.601185 1.45683 0
M  V30 5777 C 544.904 -0.111398 2.28929 0
M  V30 5778 C 545.904 -0.801246 1.39416 0
M  V30 5779 O 547.094 -0.650383 1.61603 0
M  V30 5780 C 544.226 -1.16773 3.20276 0
M  V30 5781 H 545.419 0.620412 2.93413 0
M  V30 5782 H 542.972 0.359946 1.52099 0
M  V30 5783 H 543.707 -1.93051 2.60579 0
M  V30 5784 H 543.492 -0.677358 3.86205 0
M  V30 5785 H 544.982 -1.66698 3.82886 0
M  V30 5786 N 545.419 -1.53889 0.339982 0
M  V30 5787 C 546.329 -2.28604 -0.526988 0
M  V30 5788 C 547.345 -1.33578 -1.11503 0
M  V30 5789 O 548.521 -1.66612 -1.13148 0
M  V30 5790 C 545.586 -3.04164 -1.66389 0
M  V30 5791 C 544.647 -4.14809 -1.10599 0
M  V30 5792 C 543.88 -4.86756 -2.18871 0
M  V30 5793 O 544.103 -4.58343 -3.39526 0
M  V30 5794 O 543.037 -5.73289 -1.83366 0
M  V30 5795 H 546.863 -3.03594 0.0802707 0
M  V30 5796 H 544.448 -1.4903 0.105141 0
M  V30 5797 H 546.33 -3.51427 -2.32544 0
M  V30 5798 H 545.005 -2.32035 -2.25703 0
M  V30 5799 H 543.912 -3.71857 -0.409067 0
M  V30 5800 H 545.245 -4.89029 -0.557771 0
M  V30 5801 N 546.897 -0.0685191 -1.57451 0
M  V30 5802 C 547.83 0.935736 -2.08133 0
M  V30 5803 C 548.808 1.29317 -0.985698 0
M  V30 5804 O 549.992 1.40304 -1.25886 0
M  V30 5805 C 547.119 2.2448 -2.53627 0
M  V30 5806 C 546.165 2.03917 -3.74593 0
M  V30 5807 S 546.998 1.30154 -5.19442 0
M  V30 5808 C 548.154 2.62346 -5.68265 0
M  V30 5809 H 548.387 0.504473 -2.92989 0
M  V30 5810 H 545.92 0.144169 -1.53725 0
M  V30 5811 H 547.878 2.99718 -2.80499 0
M  V30 5812 H 546.539 2.64731 -1.69045 0
M  V30 5813 H 545.732 3.00788 -4.04404 0
M  V30 5814 H 545.334 1.36815 -3.48077 0
M  V30 5815 H 547.626 3.58448 -5.7491 0
M  V30 5816 H 548.569 2.3715 -6.67207 0
M  V30 5817 H 548.977 2.69401 -4.96068 0
M  V30 5818 N 548.375 1.56261 0.205012 0
M  V30 5819 C 549.6 1.84491 0.947512 0
M  V30 5820 C 550.025 0.650894 1.76479 0
M  V30 5821 O 549.383 -0.40035 1.76824 0
M  V30 5822 C 549.431 3.10863 1.82747 0
M  V30 5823 O 548.535 2.90719 2.925 0
M  V30 5824 H 547.876 0.607783 0.267386 0
M  V30 5825 H 550.406 2.03485 0.213323 0
M  V30 5826 H 550.416 3.41399 2.23407 0
M  V30 5827 H 549.091 3.97392 1.2269 0
M  V30 5828 H 547.668 2.71457 2.55667 0
M  V30 5829 N 549.853 -0.472356 1.50355 0
M  V30 5830 C 551.078 -1.25251 1.65309 0
M  V30 5831 C 551.503 -1.85081 0.335643 0
M  V30 5832 O 550.861 -1.67227 -0.700335 0
M  V30 5833 C 550.909 -2.3379 2.74544 0
M  V30 5834 O 550.013 -3.38401 2.35709 0
M  V30 5835 H 549.354 -0.368539 0.552336 0
M  V30 5836 H 551.884 -0.562271 1.96722 0
M  V30 5837 H 551.894 -2.79121 2.97583 0
M  V30 5838 H 550.569 -1.89614 3.70161 0
M  V30 5839 H 549.146 -2.9879 2.23112 0
M  V30 5840 N 551.331 -1.39911 -0.725443 0
M  V30 5841 C 552.559 -1.40949 -1.51463 0
M  V30 5842 C 552.974 -0.0065242 -1.88799 0
M  V30 5843 O 552.331 0.967163 -1.54765 0
M  V30 5844 C 552.382 -2.29119 -2.79619 0
M  V30 5845 O 552.103 -3.63952 -2.43866 0
M  V30 5846 C 553.604 -2.38642 -3.73584 0
M  V30 5847 H 550.824 -0.481091 -0.467752 0
M  V30 5848 H 553.368 -1.83843 -0.895651 0
M  V30 5849 H 551.523 -1.89612 -3.37826 0
M  V30 5850 H 551.937 -4.10677 -3.26258 0
M  V30 5851 H 553.411 -3.04563 -4.60375 0
M  V30 5852 H 553.888 -1.40846 -4.16004 0
M  V30 5853 H 554.494 -2.78659 -3.21293 0
M  V30 5854 N 552.809 0.956637 -1.25245 0
M  V30 5855 C 554.057 1.69764 -1.09657 0
M  V30 5856 C 554.378 1.91583 0.363464 0
M  V30 5857 O 553.648 1.50149 1.25825 0
M  V30 5858 H 552.228 0.629097 -0.402798 0
M  V30 5859 H 554.89 1.15026 -1.57337 0
M  V30 5860 H 553.986 2.67769 -1.60331 0
M  V30 5861 N 554.287 1.06798 1.15896 0
M  V30 5862 C 555.512 0.808739 1.90982 0
M  V30 5863 C 555.937 -0.6316 1.77179 0
M  V30 5864 O 555.295 -1.4407 1.10061 0
M  V30 5865 C 555.343 1.21468 3.39526 0
M  V30 5866 O 554.447 0.356562 4.10856 0
M  V30 5867 H 553.788 0.29512 0.594811 0
M  V30 5868 H 556.318 1.42513 1.46804 0
M  V30 5869 H 556.328 1.18844 3.90308 0
M  V30 5870 H 555.003 2.26379 3.48891 0
M  V30 5871 H 553.58 0.444808 3.70238 0
M  V30 5872 N 555.766 -1.3263 0.851289 0
M  V30 5873 C 556.696 -2.31449 0.308771 0
M  V30 5874 C 557.677 -1.59531 -0.590255 0
M  V30 5875 O 558.862 -1.87351 -0.511205 0
M  V30 5876 C 555.992 -3.43586 -0.506548 0
M  V30 5877 C 554.946 -4.26963 0.297753 0
M  V30 5878 C 554.272 -5.30831 -0.642094 0
M  V30 5879 C 555.572 -4.99643 1.52166 0
M  V30 5880 H 557.266 -2.77074 1.13447 0
M  V30 5881 H 554.812 -1.33207 0.546971 0
M  V30 5882 H 556.765 -4.11754 -0.896474 0
M  V30 5883 H 555.489 -2.96681 -1.36558 0
M  V30 5884 H 554.148 -3.60437 0.669391 0
M  V30 5885 H 553.796 -4.8018 -1.49788 0
M  V30 5886 H 553.496 -5.87501 -0.107968 0
M  V30 5887 H 555.02 -6.01862 -1.02927 0
M  V30 5888 H 556.434 -5.6051 1.20421 0
M  V30 5889 H 554.831 -5.66022 1.99347 0
M  V30 5890 H 555.901 -4.27701 2.28474 0
M  V30 5891 N 557.244 -0.608902 -1.45362 0
M  V30 5892 C 558.207 0.0992563 -2.28985 0
M  V30 5893 C 559.207 0.793841 -1.39838 0
M  V30 5894 O 560.397 0.641804 -1.61946 0
M  V30 5895 C 557.529 1.15073 -3.20891 0
M  V30 5896 H 558.722 -0.635964 -2.93079 0
M  V30 5897 H 556.275 -0.368007 -1.51906 0
M  V30 5898 H 557.01 1.91667 -2.616 0
M  V30 5899 H 556.795 0.656867 -3.86559 0
M  V30 5900 H 558.285 1.64665 -3.83765 0
M  V30 5901 N 558.722 1.53707 -0.348139 0
M  V30 5902 C 559.95 2.05406 0.248224 0
M  V30 5903 C 560.365 1.22282 1.43849 0
M  V30 5904 O 559.722 0.259244 1.80649 0
M  V30 5905 C 559.773 3.55446 0.658793 0
M  V30 5906 O 559.494 4.35417 -0.484149 0
M  V30 5907 C 560.995 4.23335 1.31539 0
M  V30 5908 H 558.215 0.669344 0.0471075 0
M  V30 5909 H 560.759 1.98257 -0.501456 0
M  V30 5910 H 558.914 3.62803 1.35841 0
M  V30 5911 H 559.328 5.24268 -0.155949 0
M  V30 5912 H 560.802 5.29692 1.55338 0
M  V30 5913 H 561.279 3.75967 2.27036 0
M  V30 5914 H 561.885 4.20184 0.657683 0
M  V30 5915 N 560.2 0.0768682 1.57412 0
M  V30 5916 C 561.448 -0.589918 1.93299 0
M  V30 5917 C 561.769 -1.69842 0.958049 0
M  V30 5918 O 561.039 -1.95899 0.00703261 0
M  V30 5919 H 559.619 -0.220901 0.713591 0
M  V30 5920 H 562.281 0.135917 1.94425 0
M  V30 5921 H 561.377 -1.01195 2.95239 0
M  V30 5922 N 561.678 -1.56367 -0.196722 0
M  V30 5923 C 562.955 -1.71359 -0.943159 0
M  V30 5924 C 563.335 -0.631192 -2.01443 0
M  V30 5925 O 562.683 0.358071 -2.25677 0
M  V30 5926 C 562.893 -3.13623 -1.53106 0
M  V30 5927 C 564.241 -3.73806 -2.01381 0
M  V30 5928 O 565.265 -3.16742 -1.62951 0
M  V30 5929 O 564.124 -4.73951 -2.7209 0
M  V30 5930 H 561.218 -0.698851 -0.442195 0
M  V30 5931 H 563.764 -1.68672 -0.186547 0
M  V30 5932 H 562.536 -3.83873 -0.758785 0
M  V30 5933 H 562.159 -3.20532 -2.35255 0
M  V30 5934 N 563.156 0.464375 -1.50603 0
M  V30 5935 C 564.386 1.23727 -1.65454 0
M  V30 5936 C 564.794 1.86119 -0.340032 0
M  V30 5937 O 564.137 1.70301 0.688706 0
M  V30 5938 C 564.199 2.38153 -2.69301 0
M  V30 5939 C 563.863 1.96345 -4.12671 0
M  V30 5940 C 564.86 1.48215 -4.98326 0
M  V30 5941 C 562.545 2.04861 -4.58625 0
M  V30 5942 C 564.539 1.09152 -6.27985 0
M  V30 5943 C 562.226 1.65409 -5.88288 0
M  V30 5944 C 563.224 1.17634 -6.72794 0
M  V30 5945 O 562.912 0.787312 -8.00035 0
M  V30 5946 H 562.644 0.380075 -0.559034 0
M  V30 5947 H 565.198 0.559919 -1.97621 0
M  V30 5948 H 563.428 3.09081 -2.32392 0
M  V30 5949 H 565.117 3.00099 -2.73304 0
M  V30 5950 H 565.883 1.41052 -4.64036 0
M  V30 5951 H 561.762 2.40996 -3.92991 0
M  V30 5952 H 565.306 0.717909 -6.93896 0
M  V30 5953 H 561.203 1.72233 -6.22098 0
M  V30 5954 H 561.971 0.915567 -8.13363 0
M  V30 5955 N 564.634 1.40294 0.718013 0
M  V30 5956 C 565.862 1.4175 1.50714 0
M  V30 5957 C 566.277 0.0165366 1.88793 0
M  V30 5958 O 565.634 -0.958942 1.55276 0
M  V30 5959 C 565.685 2.30598 2.784 0
M  V30 5960 O 565.406 3.6524 2.41932 0
M  V30 5961 C 566.907 2.4062 3.72313 0
M  V30 5962 H 564.127 0.483565 0.465194 0
M  V30 5963 H 566.671 1.84316 0.885889 0
M  V30 5964 H 564.826 1.91401 3.36815 0
M  V30 5965 H 565.24 4.12402 3.24076 0
M  V30 5966 H 566.714 3.07001 4.58753 0
M  V30 5967 H 567.191 1.4305 4.15251 0
M  V30 5968 H 567.797 2.80359 3.19811 0
M  V30 5969 N 566.112 -0.949982 1.2575 0
M  V30 5970 C 567.528 -1.22191 1.02672 0
M  V30 5971 C 567.728 -1.99898 -0.253588 0
M  V30 5972 O 566.784 -2.33329 -0.965076 0
M  V30 5973 C 568.097 -1.99175 2.25277 0
M  V30 5974 C 569.645 -2.12201 2.30087 0
M  V30 5975 C 570.12 -2.92586 3.5236 0
M  V30 5976 N 571.611 -3.00163 3.52784 0
M  V30 5977 C 572.346 -3.62766 4.44059 0
M  V30 5978 N 571.842 -4.26943 5.45611 0
M  V30 5979 N 573.635 -3.59953 4.3173 0
M  V30 5980 H 565.786 -0.430258 2.07996 0
M  V30 5981 H 568.049 -0.252844 0.91366 0
M  V30 5982 H 567.755 -1.49479 3.18354 0
M  V30 5983 H 567.629 -2.99868 2.28821 0
M  V30 5984 H 570.016 -2.61093 1.3753 0
M  V30 5985 H 570.097 -1.10799 2.30559 0
M  V30 5986 H 569.741 -2.44383 4.45241 0
M  V30 5987 H 569.671 -3.94224 3.49134 0
M  V30 5988 H 572.162 -2.54529 2.79327 0
M  V30 5989 H 572.475 -4.72583 6.11461 0
M  V30 5990 H 570.82 -4.25557 5.49478 0
M  V30 5991 H 574.011 -3.09003 3.51617 0
M  V30 5992 H 574.184 -4.08455 5.03059 0
M  V30 5993 N 567.59 -1.07411 -1.15328 0
M  V30 5994 C 568.553 -0.698914 -2.18284 0
M  V30 5995 C 569.553 0.261149 -1.58665 0
M  V30 5996 O 570.743 0.0420277 -1.74149 0
M  V30 5997 C 567.875 -0.0302427 -3.40887 0
M  V30 5998 H 569.068 -1.61045 -2.52991 0
M  V30 5999 H 566.621 -0.870724 -1.298 0
M  V30 6000 H 567.356 0.893505 -3.11748 0
M  V30 6001 H 567.141 -0.720759 -3.85419 0
M  V30 6002 H 568.631 0.21759 -4.17033 0
M  V30 6003 N 569.068 1.32177 -0.85831 0
M  V30 6004 C 570.031 2.27086 -0.310588 0
M  V30 6005 C 571.031 1.51751 0.531806 0
M  V30 6006 O 572.221 1.70794 0.34279 0
M  V30 6007 C 569.353 3.36266 0.560179 0
M  V30 6008 H 570.546 2.77045 -1.1483 0
M  V30 6009 H 568.099 1.42911 -0.632942 0
M  V30 6010 H 568.834 2.9158 1.41956 0
M  V30 6011 H 568.619 3.92077 -0.0428473 0
M  V30 6012 H 570.109 4.06974 0.936056 0
M  V30 6013 N 570.547 0.616602 1.45037 0
M  V30 6014 C 571.793 0.115501 2.02471 0
M  V30 6015 C 572.126 -1.25406 1.4828 0
M  V30 6016 O 571.401 -1.82922 0.661051 0
M  V30 6017 C 571.684 0.0863588 3.59996 0
M  V30 6018 C 571.537 1.48723 4.24501 0
M  V30 6019 C 572.856 -0.596762 4.36035 0
M  V30 6020 H 569.975 0.0434461 0.735718 0
M  V30 6021 H 572.617 0.7903 1.72784 0
M  V30 6022 H 570.767 -0.488277 3.85419 0
M  V30 6023 H 572.439 2.10964 4.10234 0
M  V30 6024 H 570.682 2.04534 3.82555 0
M  V30 6025 H 571.353 1.419 5.3345 0
M  V30 6026 H 573.829 -0.10824 4.15959 0
M  V30 6027 H 572.705 -0.586289 5.4576 0
M  V30 6028 H 572.966 -1.66451 4.09569 0
M  V30 6029 N 572.025 -1.5352 0.356285 0
M  V30 6030 C 573.441 -1.59599 0.00485267 0
M  V30 6031 C 573.641 -1.37179 -1.47595 0
M  V30 6032 O 572.697 -1.17234 -2.23635 0
M  V30 6033 C 574.01 -2.97277 0.452454 0
M  V30 6034 C 575.558 -3.10357 0.405881 0
M  V30 6035 C 576.033 -4.50432 0.829148 0
M  V30 6036 N 577.524 -4.5652 0.783838 0
M  V30 6037 C 578.259 -5.63077 1.08315 0
M  V30 6038 N 577.755 -6.77429 1.45126 0
M  V30 6039 N 579.548 -5.53014 1.00655 0
M  V30 6040 H 571.699 -1.66346 1.32071 0
M  V30 6041 H 573.962 -0.77971 0.539218 0
M  V30 6042 H 573.668 -3.18792 1.48542 0
M  V30 6043 H 573.542 -3.76836 -0.165762 0
M  V30 6044 H 575.929 -2.88558 -0.617934 0
M  V30 6045 H 576.01 -2.32828 1.05947 0
M  V30 6046 H 575.654 -4.72968 1.85103 0
M  V30 6047 H 575.584 -5.26378 0.152906 0
M  V30 6048 H 578.075 -3.74408 0.512513 0
M  V30 6049 H 578.388 -7.54669 1.66415 0
M  V30 6050 H 576.733 -6.78844 1.48983 0
M  V30 6051 H 579.924 -4.62557 0.718215 0
M  V30 6052 H 580.097 -6.35964 1.24315 0
M  V30 6053 N 573.503 -0.0852151 -1.57369 0
M  V30 6054 C 574.436 0.913608 -2.09113 0
M  V30 6055 C 575.414 1.28264 -0.999358 0
M  V30 6056 O 576.598 1.3896 -1.27367 0
M  V30 6057 C 573.725 2.21777 -2.55993 0
M  V30 6058 C 572.771 1.99932 -3.76735 0
M  V30 6059 S 573.604 1.24637 -5.20794 0
M  V30 6060 C 574.76 2.56304 -5.71016 0
M  V30 6061 H 574.993 0.473369 -2.93507 0
M  V30 6062 H 572.526 0.127856 -1.5387 0
M  V30 6063 H 574.484 2.96726 -2.83662 0
M  V30 6064 H 573.145 2.62923 -1.71843 0
M  V30 6065 H 572.338 2.96482 -4.07571 0
M  V30 6066 H 571.94 1.33116 -3.49509 0
M  V30 6067 H 574.232 3.5233 -5.78679 0
M  V30 6068 H 575.175 2.3006 -6.69685 0
M  V30 6069 H 575.583 2.64125 -4.98897 0
M  V30 6070 N 574.981 1.5647 0.188427 0
M  V30 6071 C 575.944 1.9421 1.21718 0
M  V30 6072 C 576.944 0.823901 1.38089 0
M  V30 6073 O 578.134 1.09122 1.35787 0
M  V30 6074 C 575.266 2.22197 2.58537 0
M  V30 6075 H 576.459 2.86252 0.894418 0
M  V30 6076 H 574.012 1.50263 0.430211 0
M  V30 6077 H 574.747 1.32814 2.95856 0
M  V30 6078 H 574.532 3.03688 2.48025 0
M  V30 6079 H 576.022 2.52376 3.3271 0
M  V30 6080 N 576.459 -0.456382 1.50847 0
M  V30 6081 C 577.369 -1.57805 1.73594 0
M  V30 6082 C 578.385 -1.62599 0.619476 0
M  V30 6083 O 579.561 -1.80195 0.899532 0
M  V30 6084 C 576.626 -2.93926 1.8387 0
M  V30 6085 C 575.687 -2.99402 3.07663 0
M  V30 6086 C 574.92 -4.29031 3.1744 0
M  V30 6087 O 575.143 -5.20358 2.33631 0
M  V30 6088 O 574.077 -4.40401 4.10281 0
M  V30 6089 H 577.903 -1.41531 2.68705 0
M  V30 6090 H 575.488 -0.637422 1.3512 0
M  V30 6091 H 577.37 -3.74747 1.92725 0
M  V30 6092 H 576.045 -3.10368 0.91944 0
M  V30 6093 H 574.952 -2.17606 3.043 0
M  V30 6094 H 576.285 -2.87901 3.99216 0
M  V30 6095 N 577.937 -1.40673 -0.710563 0
M  V30 6096 C 578.847 -1.43663 -1.85467 0
M  V30 6097 C 579.863 -0.328721 -1.70867 0
M  V30 6098 O 581.039 -0.574098 -1.93044 0
M  V30 6099 C 578.104 -1.30226 -3.21313 0
M  V30 6100 C 577.165 -2.51204 -3.48131 0
M  V30 6101 C 576.398 -2.38398 -4.77495 0
M  V30 6102 O 576.621 -1.40048 -5.5294 0
M  V30 6103 O 575.555 -3.2787 -5.04762 0
M  V30 6104 H 579.381 -2.40156 -1.859 0
M  V30 6105 H 576.966 -1.22049 -0.861652 0
M  V30 6106 H 578.848 -1.2496 -4.02446 0
M  V30 6107 H 577.523 -0.368419 -3.21597 0
M  V30 6108 H 576.43 -2.62048 -2.66987 0
M  V30 6109 H 577.763 -3.43366 -3.52648 0
M  V30 6110 N 579.415 0.9433 -1.26252 0
M  V30 6111 C 580.365 2.02746 -1.04297 0
M  V30 6112 C 581.349 1.60882 0.0239435 0
M  V30 6113 O 582.541 1.75947 -0.192757 0
M  V30 6114 C 579.67 3.36585 -0.6757 0
M  V30 6115 C 578.756 3.84939 -1.77996 0
M  V30 6116 N 579.147 4.05966 -3.01704 0
M  V30 6117 C 577.445 4.13833 -1.66308 0
M  V30 6118 C 578.146 4.45987 -3.73458 0
M  V30 6119 N 577.122 4.52569 -3.01135 0
M  V30 6120 H 580.924 2.17012 -1.98199 0
M  V30 6121 H 578.438 1.12898 -1.16738 0
M  V30 6122 H 580.435 4.13896 -0.499571 0
M  V30 6123 H 579.095 3.2369 0.255863 0
M  V30 6124 H 580.106 3.92716 -3.37631 0
M  V30 6125 H 576.783 4.09739 -0.801267 0
M  V30 6126 H 578.173 4.70465 -4.79701 0
M  V30 6127 N 580.893 1.08022 1.14757 0
M  V30 6128 C 582.118 0.82895 1.90114 0
M  V30 6129 C 582.543 -0.612772 1.77839 0
M  V30 6130 O 581.901 -1.42895 1.11583 0
M  V30 6131 C 581.949 1.25062 3.38219 0
M  V30 6132 O 581.053 0.400119 4.10454 0
M  V30 6133 H 580.394 0.301412 0.591648 0
M  V30 6134 H 582.924 1.44062 1.45284 0
M  V30 6135 H 582.934 1.22977 3.89025 0
M  V30 6136 H 581.609 2.30067 3.46471 0
M  V30 6137 H 580.186 0.484052 3.69745 0
M  V30 6138 N 582.371 -1.3172 0.865308 0
M  V30 6139 C 583.281 -2.32394 0.320935 0
M  V30 6140 C 584.297 -1.64511 -0.566746 0
M  V30 6141 O 585.473 -1.95969 -0.464575 0
M  V30 6142 C 582.538 -3.43462 -0.472701 0
M  V30 6143 C 581.599 -4.27015 0.442385 0
M  V30 6144 C 580.832 -5.32779 -0.313469 0
M  V30 6145 O 581.055 -5.49158 -1.54214 0
M  V30 6146 O 579.989 -6.01015 0.326257 0
M  V30 6147 H 583.815 -2.80868 1.15528 0
M  V30 6148 H 581.4 -1.35535 0.628545 0
M  V30 6149 H 583.282 -4.11172 -0.922781 0
M  V30 6150 H 581.957 -2.97159 -1.28367 0
M  V30 6151 H 580.864 -3.62075 0.940866 0
M  V30 6152 H 582.197 -4.76871 1.21882 0
M  V30 6153 N 583.85 -0.624285 -1.44708 0
M  V30 6154 C 585.096 -0.126051 -2.02107 0
M  V30 6155 C 585.425 1.2496 -1.49048 0
M  V30 6156 O 584.68 1.84163 -0.662005 0
M  V30 6157 C 584.979 -0.0546353 -3.57358 0
M  V30 6158 C 584.644 -1.36815 -4.29642 0
M  V30 6159 C 583.307 -1.72792 -4.49106 0
M  V30 6160 C 585.659 -2.23549 -4.70824 0
M  V30 6161 C 582.986 -2.95222 -5.07012 0
M  V30 6162 C 585.339 -3.45243 -5.30085 0
M  V30 6163 C 584.003 -3.81452 -5.47769 0
M  V30 6164 H 583.273 -0.0461252 -0.739563 0
M  V30 6165 H 585.92 -0.809236 -1.73562 0
M  V30 6166 H 584.225 0.711891 -3.85278 0
M  V30 6167 H 585.922 0.347282 -3.99493 0
M  V30 6168 H 582.512 -1.07817 -4.14817 0
M  V30 6169 H 586.696 -1.9705 -4.55505 0
M  V30 6170 H 581.952 -3.23361 -5.18891 0
M  V30 6171 H 586.125 -4.12689 -5.60946 0
M  V30 6172 H 583.753 -4.76403 -5.92405 0
M  V30 6173 N 585.328 1.53329 -0.364422 0
M  V30 6174 C 586.574 2.01537 0.225969 0
M  V30 6175 C 586.907 1.25128 1.48515 0
M  V30 6176 O 586.182 0.344653 1.91422 0
M  V30 6177 C 586.465 3.56339 0.519092 0
M  V30 6178 C 586.318 4.43441 -0.753639 0
M  V30 6179 C 587.637 4.19833 1.32015 0
M  V30 6180 H 584.756 0.732573 0.0806548 0
M  V30 6181 H 587.398 1.83597 -0.489084 0
M  V30 6182 H 585.548 3.71756 1.12825 0
M  V30 6183 H 587.22 4.39823 -1.39116 0
M  V30 6184 H 585.463 4.11457 -1.37424 0
M  V30 6185 H 586.134 5.49699 -0.503517 0
M  V30 6186 H 588.61 4.08242 0.804859 0
M  V30 6187 H 587.486 5.28177 1.49399 0
M  V30 6188 H 587.747 3.75821 2.32832 0
M  V30 6189 N 586.806 0.0935595 1.57322 0
M  V30 6190 C 588.052 -0.571355 1.94585 0
M  V30 6191 C 588.385 -1.67929 0.975366 0
M  V30 6192 O 587.66 -1.94498 0.00816206 0
M  V30 6193 C 587.943 -1.12797 3.41978 0
M  V30 6194 C 587.796 -0.0251881 4.49793 0
M  V30 6195 C 589.115 -2.02682 3.90651 0
M  V30 6196 H 586.234 -0.206223 0.70756 0
M  V30 6197 H 588.876 0.163956 1.89291 0
M  V30 6198 H 587.026 -1.75461 3.4662 0
M  V30 6199 H 588.698 0.608979 4.57263 0
M  V30 6200 H 586.941 0.641399 4.29032 0
M  V30 6201 H 587.612 -0.455433 5.50118 0
M  V30 6202 H 590.088 -1.49925 3.88152 0
M  V30 6203 H 588.964 -2.38555 4.94351 0
M  V30 6204 H 589.225 -2.94362 3.29854 0
M  V30 6205 N 588.284 -1.56567 -0.180126 0
M  V30 6206 C 589.532 -1.81133 -0.896392 0
M  V30 6207 C 589.853 -0.669114 -1.83161 0
M  V30 6208 O 589.123 0.311616 -1.93406 0
M  V30 6209 H 587.703 -0.668172 -0.333999 0
M  V30 6210 H 590.365 -1.94048 -0.182051 0
M  V30 6211 H 589.461 -2.74854 -1.47857 0
M  V30 6212 N 589.762 0.448376 -1.51087 0
M  V30 6213 C 591.009 1.19872 -1.63209 0
M  V30 6214 C 591.337 1.91451 -0.343062 0
M  V30 6215 O 590.592 1.83789 0.672321 0
M  V30 6216 C 590.891 2.24866 -2.77795 0
M  V30 6217 C 590.557 1.70378 -4.17471 0
M  V30 6218 C 589.219 1.55241 -4.55471 0
M  V30 6219 C 591.571 1.30203 -5.04675 0
M  V30 6220 C 588.899 0.983844 -5.78392 0
M  V30 6221 C 591.251 0.747798 -6.28165 0
M  V30 6222 C 589.915 0.583233 -6.64947 0
M  V30 6223 H 589.185 0.438642 -0.597222 0
M  V30 6224 H 591.832 0.49136 -1.85089 0
M  V30 6225 H 590.137 3.01598 -2.50092 0
M  V30 6226 H 591.834 2.82723 -2.84374 0
M  V30 6227 H 588.424 1.83134 -3.87505 0
M  V30 6228 H 592.608 1.40723 -4.75932 0
M  V30 6229 H 587.864 0.844007 -6.05546 0
M  V30 6230 H 592.038 0.427927 -6.95084 0
M  V30 6231 H 589.665 0.140532 -7.6007 0
M  V30 6232 N 591.24 1.41047 0.703093 0
M  V30 6233 C 592.489 1.39301 1.4587 0
M  V30 6234 C 592.802 0.00267077 1.956 0
M  V30 6235 O 594.008 -0.137414 2.71152 0
M  V30 6236 C 592.464 2.44891 2.63735 0
M  V30 6237 C 592.072 3.89796 2.20824 0
M  V30 6238 C 593.816 2.5227 3.41409 0
M  V30 6239 C 591.723 4.86955 3.35602 0
M  V30 6240 H 590.653 0.518005 0.547893 0
M  V30 6241 H 593.304 1.66839 0.764009 0
M  V30 6242 H 591.686 2.10472 3.35436 0
M  V30 6243 H 592.86 4.33424 1.56461 0
M  V30 6244 H 591.175 3.86008 1.56163 0
M  V30 6245 H 593.772 3.22044 4.26839 0
M  V30 6246 H 594.115 1.55714 3.86081 0
M  V30 6247 H 594.648 2.85742 2.7676 0
M  V30 6248 H 591.387 5.84888 2.9595 0
M  V30 6249 H 590.907 4.47982 3.98839 0
M  V30 6250 H 592.586 5.07361 4.01489 0
M  V30 6251 N 592.718 -0.936591 1.26751 0
M  V30 6252 C 593.943 -1.72288 1.15462 0
M  V30 6253 C 594.368 -1.85915 -0.285887 0
M  V30 6254 O 593.726 -1.35272 -1.20711 0
M  V30 6255 C 593.774 -3.10503 1.83359 0
M  V30 6256 O 592.878 -3.96745 1.1255 0
M  V30 6257 H 592.219 -0.52843 0.402067 0
M  V30 6258 H 594.749 -1.17271 1.67656 0
M  V30 6259 H 594.759 -3.60867 1.90365 0
M  V30 6260 H 593.434 -2.99901 2.88153 0
M  V30 6261 H 592.011 -3.55191 1.13551 0
M  V30 6262 N 594.196 -1.08629 -1.14182 0
M  V30 6263 C 595.444 -0.815731 -1.84906 0
M  V30 6264 C 595.765 0.660441 -1.83475 0
M  V30 6265 O 595.035 1.47888 -1.28476 0
M  V30 6266 H 593.615 -0.298773 -0.684648 0
M  V30 6267 H 596.277 -1.37274 -1.38354 0
M  V30 6268 H 595.373 -1.16193 -2.89665 0
M  V30 6269 N 595.674 1.31259 -0.872281 0
M  V30 6270 C 596.899 2.0133 -0.498099 0
M  V30 6271 C 597.324 1.65031 0.902568 0
M  V30 6272 O 596.682 0.860164 1.59596 0
M  V30 6273 C 596.73 3.54411 -0.665205 0
M  V30 6274 O 595.834 4.11347 0.294473 0
M  V30 6275 H 595.175 0.633844 -0.197832 0
M  V30 6276 H 597.705 1.67402 -1.17633 0
M  V30 6277 H 597.715 4.04147 -0.559373 0
M  V30 6278 H 596.39 3.80171 -1.68651 0
M  V30 6279 H 594.967 3.72624 0.143403 0
M  V30 6280 N 597.152 0.631951 1.44375 0
M  V30 6281 C 598.568 0.297642 1.568 0
M  V30 6282 C 598.768 -1.19916 1.61934 0
M  V30 6283 O 597.824 -1.98324 1.56281 0
M  V30 6284 C 599.137 0.990286 2.83926 0
M  V30 6285 C 600.685 0.968507 2.97639 0
M  V30 6286 C 601.16 1.64163 4.27568 0
M  V30 6287 N 602.651 1.60826 4.34384 0
M  V30 6288 C 603.386 2.09802 5.33639 0
M  V30 6289 N 602.882 2.66973 6.39294 0
M  V30 6290 N 604.675 2.00426 5.25153 0
M  V30 6291 H 596.826 1.60353 1.39286 0
M  V30 6292 H 599.089 0.673142 0.667521 0
M  V30 6293 H 598.795 2.04519 2.8612 0
M  V30 6294 H 598.669 0.528563 3.73478 0
M  V30 6295 H 601.056 -0.0779247 2.94997 0
M  V30 6296 H 601.137 1.46873 2.09433 0
M  V30 6297 H 600.781 2.68752 4.3097 0
M  V30 6298 H 600.711 1.11624 5.14634 0
M  V30 6299 H 603.202 1.19087 3.58646 0
M  V30 6300 H 603.515 3.02074 7.11316 0
M  V30 6301 H 601.86 2.71024 6.39977 0
M  V30 6302 H 605.051 1.55483 4.41523 0
M  V30 6303 H 605.224 2.38906 6.02352 0
M  V30 6304 N 598.631 -1.53133 0.372548 0
M  V30 6305 C 599.877 -2.01654 -0.215277 0
M  V30 6306 C 600.21 -1.25914 -1.47849 0
M  V30 6307 O 599.485 -0.3548 -1.91237 0
M  V30 6308 C 599.768 -3.56609 -0.500187 0
M  V30 6309 C 599.621 -4.43036 0.777145 0
M  V30 6310 C 600.94 -4.20528 -1.29786 0
M  V30 6311 H 598.059 -0.732991 -0.0767686 0
M  V30 6312 H 600.701 -1.83335 0.498814 0
M  V30 6313 H 598.851 -3.7235 -1.10852 0
M  V30 6314 H 600.523 -4.39079 1.41447 0
M  V30 6315 H 598.766 -4.10723 1.39604 0
M  V30 6316 H 599.437 -5.49424 0.532662 0
M  V30 6317 H 601.913 -4.08663 -0.783198 0
M  V30 6318 H 600.789 -5.28962 -1.46596 0
M  V30 6319 H 601.05 -3.77051 -2.30836 0
M  V30 6320 N 600.109 -0.101901 -1.5727 0
M  V30 6321 C 601.334 0.571759 -1.99363 0
M  V30 6322 C 601.759 1.60507 -0.980768 0
M  V30 6323 O 601.117 1.81231 0.0498517 0
M  V30 6324 C 601.165 1.18996 -3.404 0
M  V30 6325 O 600.269 2.30572 -3.41922 0
M  V30 6326 H 599.61 0.144449 -0.648098 0
M  V30 6327 H 602.14 -0.185325 -2.03759 0
M  V30 6328 H 602.15 1.52962 -3.78241 0
M  V30 6329 H 600.825 0.432984 -4.1364 0
M  V30 6330 H 599.402 1.98173 -3.15883 0
M  V30 6331 N 601.587 1.56661 0.17182 0
M  V30 6332 C 602.52 1.91474 1.24149 0
M  V30 6333 C 603.498 0.777485 1.42807 0
M  V30 6334 O 604.682 1.03075 1.57822 0
M  V30 6335 C 601.809 2.16523 2.60453 0
M  V30 6336 C 600.855 3.39209 2.58533 0
M  V30 6337 S 601.688 4.93594 2.07665 0
M  V30 6338 C 602.844 5.21737 3.45747 0
M  V30 6339 H 603.077 2.81903 0.944346 0
M  V30 6340 H 600.61 1.49743 0.376364 0
M  V30 6341 H 602.568 2.31635 3.38903 0
M  V30 6342 H 601.229 1.26802 2.87368 0
M  V30 6343 H 600.422 3.53935 3.58812 0
M  V30 6344 H 600.024 3.2321 1.88178 0
M  V30 6345 H 602.316 5.13684 4.41741 0
M  V30 6346 H 603.259 6.23361 3.35896 0
M  V30 6347 H 603.667 4.49307 3.41736 0
M  V30 6348 N 603.065 -0.440357 1.51323 0
M  V30 6349 C 604.012 -1.53429 1.72419 0
M  V30 6350 C 604.982 -1.56165 0.565826 0
M  V30 6351 O 606.167 -1.73222 0.799917 0
M  V30 6352 C 603.307 -2.91169 1.85242 0
M  V30 6353 C 602.42 -2.97985 3.12777 0
M  V30 6354 C 601.555 -4.26829 3.16212 0
M  V30 6355 C 600.594 -4.27501 4.38074 0
M  V30 6356 N 599.731 -5.47866 4.39076 0
M  V30 6357 H 604.571 -1.34743 2.65797 0
M  V30 6358 H 602.108 -0.654608 1.31732 0
M  V30 6359 H 604.066 -3.71087 1.90658 0
M  V30 6360 H 602.696 -3.0842 0.952744 0
M  V30 6361 H 601.748 -2.10749 3.16685 0
M  V30 6362 H 603.06 -2.94342 4.02696 0
M  V30 6363 H 602.214 -5.15118 3.20527 0
M  V30 6364 H 600.953 -4.33124 2.24176 0
M  V30 6365 H 599.958 -3.37606 4.33938 0
M  V30 6366 H 601.183 -4.22873 5.31371 0
M  V30 6367 H 599.129 -5.54887 3.49909 0
M  V30 6368 H 599.046 -5.46091 5.22801 0
M  V30 6369 H 600.314 -6.38195 4.4758 0
M  V30 6370 N 604.543 -1.41418 -0.695603 0
M  V30 6371 C 605.954 -1.36335 -1.27552 0
M  V30 6372 C 606.305 -0.0464336 -1.96145 0
M  V30 6373 O 605.43 0.855304 -1.9878 0
M  V30 6374 C 606.025 -2.46941 -2.3196 0
M  V30 6375 C 604.584 -2.45256 -2.85529 0
M  V30 6376 C 603.731 -2.2679 -1.59566 0
M  V30 6377 H 606.682 -1.50934 -0.490362 0
M  V30 6378 H 606.703 -2.15997 -3.1325 0
M  V30 6379 H 606.215 -3.42775 -1.82008 0
M  V30 6380 H 604.316 -1.53179 -3.39657 0
M  V30 6381 H 604.429 -3.41565 -3.35961 0
M  V30 6382 H 602.793 -1.74667 -1.85374 0
M  V30 6383 H 603.576 -3.24651 -1.1161 0
M  V30 6384 N 606.021 0.929856 -1.27246 0
M  V30 6385 C 606.931 2.0636 -1.11592 0
M  V30 6386 C 607.947 1.73938 -0.046496 0
M  V30 6387 O 609.123 1.9981 -0.252544 0
M  V30 6388 C 606.188 3.38213 -0.762437 0
M  V30 6389 C 605.249 3.84346 -1.9125 0
M  V30 6390 C 604.482 5.09906 -1.57579 0
M  V30 6391 O 604.705 5.68354 -0.482694 0
M  V30 6392 O 603.639 5.51359 -2.41426 0
M  V30 6393 H 607.465 2.22478 -2.0673 0
M  V30 6394 H 605.05 1.04865 -1.06413 0
M  V30 6395 H 606.932 4.1741 -0.57854 0
M  V30 6396 H 605.607 3.23307 0.159439 0
M  V30 6397 H 604.514 3.06045 -2.15144 0
M  V30 6398 H 605.847 4.0379 -2.81451 0
M  V30 6399 N 607.499 1.09233 1.13605 0
M  V30 6400 C 608.746 0.827159 1.84836 0
M  V30 6401 C 609.074 -0.647199 1.83416 0
M  V30 6402 O 608.329 -1.49228 1.26608 0
M  V30 6403 C 608.628 1.305 3.32723 0
M  V30 6404 C 608.294 2.78864 3.54325 0
M  V30 6405 C 606.956 3.19382 3.59928 0
M  V30 6406 C 609.308 3.74532 3.62457 0
M  V30 6407 C 606.636 4.54346 3.71196 0
M  V30 6408 C 608.988 5.09283 3.75252 0
M  V30 6409 C 607.652 5.49394 3.79108 0
M  V30 6410 H 606.922 0.302679 0.676363 0
M  V30 6411 H 609.569 1.36676 1.34134 0
M  V30 6412 H 607.874 0.68517 3.85762 0
M  V30 6413 H 609.571 1.07648 3.86281 0
M  V30 6414 H 606.161 2.46507 3.50617 0
M  V30 6415 H 610.345 3.44343 3.57409 0
M  V30 6416 H 605.601 4.84864 3.72447 0
M  V30 6417 H 609.775 5.83269 3.80487 0
M  V30 6418 H 607.402 6.5397 3.87591 0
M  V30 6419 N 608.977 -1.30795 0.87923 0
M  V30 6420 C 609.907 -2.30742 0.357796 0
M  V30 6421 C 610.888 -1.60747 -0.556283 0
M  V30 6422 O 612.073 -1.88393 -0.47135 0
M  V30 6423 C 609.203 -3.44583 -0.433555 0
M  V30 6424 C 608.157 -4.26235 0.388251 0
M  V30 6425 C 607.483 -5.32073 -0.529352 0
M  V30 6426 C 608.783 -4.96303 1.62729 0
M  V30 6427 H 610.477 -2.74605 1.19299 0
M  V30 6428 H 608.023 -1.32017 0.575104 0
M  V30 6429 H 609.976 -4.13563 -0.808934 0
M  V30 6430 H 608.7 -2.99511 -1.30234 0
M  V30 6431 H 607.359 -3.58936 0.745695 0
M  V30 6432 H 607.007 -4.83249 -1.39569 0
M  V30 6433 H 606.707 -5.87598 0.0166741 0
M  V30 6434 H 608.231 -6.0391 -0.901373 0
M  V30 6435 H 609.645 -5.5783 1.32283 0
M  V30 6436 H 608.042 -5.61666 2.11309 0
M  V30 6437 H 609.112 -4.22758 2.37494 0
M  V30 6438 N 610.455 -0.639598 -1.44038 0
M  V30 6439 C 611.405 0.0823038 -2.27851 0
M  V30 6440 C 612.389 0.807991 -1.39141 0
M  V30 6441 O 613.581 0.692702 -1.62882 0
M  V30 6442 C 610.71 1.05742 -3.26609 0
M  V30 6443 C 609.796 0.330911 -4.22807 0
M  V30 6444 N 610.187 -0.645126 -5.01669 0
M  V30 6445 C 608.485 0.574214 -4.42288 0
M  V30 6446 C 609.186 -1.07513 -5.71678 0
M  V30 6447 N 608.162 -0.412164 -5.42035 0
M  V30 6448 H 611.964 -0.666861 -2.86234 0
M  V30 6449 H 609.478 -0.465777 -1.55577 0
M  V30 6450 H 611.475 1.58927 -3.85419 0
M  V30 6451 H 610.135 1.80679 -2.69787 0
M  V30 6452 H 611.146 -1.02329 -5.0769 0
M  V30 6453 H 607.823 1.30581 -3.96554 0
M  V30 6454 H 609.213 -1.88196 -6.45005 0
M  V30 6455 N 611.933 1.52934 -0.380664 0
M  V30 6456 C 612.863 2.29118 0.450268 0
M  V30 6457 C 613.844 1.32153 1.07096 0
M  V30 6458 O 615.029 1.61038 1.08537 0
M  V30 6459 C 612.159 3.09161 1.58231 0
M  V30 6460 C 611.113 4.13938 1.0881 0
M  V30 6461 C 610.439 4.82153 2.31155 0
M  V30 6462 C 611.739 5.22048 0.162146 0
M  V30 6463 H 613.433 2.98826 -0.185361 0
M  V30 6464 H 610.979 1.43715 -0.0905886 0
M  V30 6465 H 612.932 3.61211 2.17036 0
M  V30 6466 H 611.656 2.3717 2.2454 0
M  V30 6467 H 610.315 3.62855 0.522633 0
M  V30 6468 H 609.963 4.06719 2.95953 0
M  V30 6469 H 609.663 5.52966 1.98752 0
M  V30 6470 H 611.187 5.37004 2.90618 0
M  V30 6471 H 612.601 5.6951 0.658126 0
M  V30 6472 H 610.998 6.00057 -0.0717122 0
M  V30 6473 H 612.068 4.78398 -0.791438 0
M  V30 6474 N 613.412 0.11024 1.57214 0
M  V30 6475 C 614.64 -0.557834 1.99238 0
M  V30 6476 C 615.055 -1.60778 0.989734 0
M  V30 6477 O 614.412 -1.82491 -0.0186092 0
M  V30 6478 C 614.463 -1.19189 3.41286 0
M  V30 6479 O 614.184 -0.183919 4.37714 0
M  V30 6480 C 615.685 -1.94413 3.98395 0
M  V30 6481 H 612.905 -0.148392 0.654386 0
M  V30 6482 H 615.449 0.193996 2.03578 0
M  V30 6483 H 613.604 -1.89456 3.37913 0
M  V30 6484 H 614.018 -0.643475 5.20538 0
M  V30 6485 H 615.492 -2.34116 4.99894 0
M  V30 6486 H 615.969 -2.81592 3.3705 0
M  V30 6487 H 616.575 -1.28928 4.05287 0
M  V30 6488 N 614.89 -1.56749 -0.16351 0
M  V30 6489 C 616.301 -1.72039 -0.725216 0
M  V30 6490 C 616.652 -0.72202 -1.82432 0
M  V30 6491 O 615.777 0.114942 -2.16095 0
M  V30 6492 C 616.372 -3.11932 -1.32227 0
M  V30 6493 C 614.931 -3.28879 -1.83072 0
M  V30 6494 C 614.078 -2.67984 -0.712716 0
M  V30 6495 H 617.029 -1.58579 0.0619772 0
M  V30 6496 H 617.05 -3.11015 -2.19202 0
M  V30 6497 H 616.562 -3.84572 -0.522103 0
M  V30 6498 H 614.663 -2.61209 -2.65708 0
M  V30 6499 H 614.776 -4.36688 -1.97079 0
M  V30 6500 H 613.14 -2.28005 -1.13515 0
M  V30 6501 H 613.923 -3.43216 0.0757361 0
M  V30 6502 N 616.368 0.432326 -1.51554 0
M  V30 6503 C 617.616 1.17901 -1.64146 0
M  V30 6504 C 617.937 1.91604 -0.362367 0
M  V30 6505 O 617.207 1.85764 0.621968 0
M  V30 6506 H 615.787 0.438206 -0.604966 0
M  V30 6507 H 618.449 0.495172 -1.88505 0
M  V30 6508 H 617.545 1.90584 -2.47152 0
M  V30 6509 N 617.846 1.41785 0.688094 0
M  V30 6510 C 619.092 1.41753 1.4503 0
M  V30 6511 C 619.425 0.0290745 1.94178 0
M  V30 6512 O 618.7 -0.944456 1.7003 0
M  V30 6513 C 618.983 2.43069 2.65686 0
M  V30 6514 C 618.836 3.91053 2.22256 0
M  V30 6515 C 620.155 2.41543 3.67893 0
M  V30 6516 H 617.274 0.516202 0.526027 0
M  V30 6517 H 619.916 1.73111 0.783105 0
M  V30 6518 H 618.066 2.1646 3.2261 0
M  V30 6519 H 619.738 4.28594 1.70602 0
M  V30 6520 H 617.981 4.05559 1.53963 0
M  V30 6521 H 618.652 4.57501 3.08863 0
M  V30 6522 H 621.128 2.65175 3.20658 0
M  V30 6523 H 620.004 3.14434 4.49914 0
M  V30 6524 H 620.265 1.43666 4.18106 0
M  V30 6525 N 619.324 -0.923095 1.27737 0
M  V30 6526 C 620.256 -2.02871 1.06658 0
M  V30 6527 C 621.269 -1.62786 0.0212095 0
M  V30 6528 O 622.458 -1.76548 0.263267 0
M  V30 6529 C 619.558 -3.33603 0.59682 0
M  V30 6530 C 618.731 -4.02354 1.71551 0
M  V30 6531 C 617.79 -5.11364 1.24071 0
M  V30 6532 O 616.816 -5.35075 1.94123 0
M  V30 6533 N 618.018 -5.80416 0.0988444 0
M  V30 6534 H 620.783 -2.21515 2.01869 0
M  V30 6535 H 618.344 -1.09378 1.19365 0
M  V30 6536 H 620.336 -4.03845 0.262984 0
M  V30 6537 H 618.906 -3.11499 -0.262187 0
M  V30 6538 H 618.126 -3.25786 2.2194 0
M  V30 6539 H 619.414 -4.45035 2.46619 0
M  V30 6540 H 618.812 -5.63611 -0.485743 0
M  V30 6541 H 617.369 -6.51563 -0.17578 0
M  V30 6542 N 620.802 -1.09834 -1.13024 0
M  V30 6543 C 621.732 -0.763451 -2.20666 0
M  V30 6544 C 622.713 0.260778 -1.68089 0
M  V30 6545 O 623.898 0.127915 -1.93778 0
M  V30 6546 C 621.028 -0.187744 -3.46792 0
M  V30 6547 C 619.982 -1.14196 -4.12484 0
M  V30 6548 C 619.308 -0.427755 -5.32986 0
M  V30 6549 C 620.608 -2.48607 -4.59338 0
M  V30 6550 H 622.302 -1.66347 -2.48936 0
M  V30 6551 H 619.848 -0.801261 -1.19649 0
M  V30 6552 H 621.801 0.0586375 -4.21359 0
M  V30 6553 H 620.525 0.747485 -3.17931 0
M  V30 6554 H 619.184 -1.37369 -3.3989 0
M  V30 6555 H 618.832 0.511747 -5.0039 0
M  V30 6556 H 618.532 -1.06403 -5.77886 0
M  V30 6557 H 620.056 -0.189772 -6.10305 0
M  V30 6558 H 621.47 -2.29618 -5.25308 0
M  V30 6559 H 619.867 -3.08062 -5.14993 0
M  V30 6560 H 620.937 -3.09062 -3.73642 0
M  V30 6561 N 622.28 1.30327 -0.886154 0
M  V30 6562 C 623.19 2.31854 -0.357866 0
M  V30 6563 C 624.206 1.65392 0.540502 0
M  V30 6564 O 625.382 1.96683 0.433339 0
M  V30 6565 C 622.447 3.44171 0.417999 0
M  V30 6566 C 621.508 4.26257 -0.510263 0
M  V30 6567 C 620.741 5.3321 0.228669 0
M  V30 6568 O 620.964 5.51542 1.45458 0
M  V30 6569 O 619.898 6.0042 -0.421832 0
M  V30 6570 H 623.724 2.78995 -1.19982 0
M  V30 6571 H 621.309 1.34518 -0.650028 0
M  V30 6572 H 623.191 4.12588 0.857251 0
M  V30 6573 H 621.866 2.99164 1.23623 0
M  V30 6574 H 620.773 3.60533 -0.99835 0
M  V30 6575 H 622.106 4.74871 -1.29454 0
M  V30 6576 N 623.758 0.647228 1.43697 0
M  V30 6577 C 624.721 -0.0385101 2.29168 0
M  V30 6578 C 625.721 -0.756487 1.41894 0
M  V30 6579 O 626.911 -0.598641 1.63591 0
M  V30 6580 C 624.043 -1.06524 3.23829 0
M  V30 6581 H 625.236 0.713445 2.9129 0
M  V30 6582 H 622.789 0.408153 1.50877 0
M  V30 6583 H 623.524 -1.84664 2.66589 0
M  V30 6584 H 623.309 -0.554147 3.88164 0
M  V30 6585 H 624.799 -1.54432 3.87996 0
M  V30 6586 N 625.236 -1.5273 0.388769 0
M  V30 6587 C 626.484 -2.01174 -0.193208 0
M  V30 6588 C 626.805 -1.27705 -1.47365 0
M  V30 6589 O 626.075 -0.396966 -1.91836 0
M  V30 6590 H 624.655 -0.743287 -0.0743871 0
M  V30 6591 H 627.317 -1.87826 0.520336 0
M  V30 6592 H 626.413 -3.09477 -0.403803 0
M  V30 6593 N 626.714 -0.118576 -1.57153 0
M  V30 6594 C 627.962 0.538461 -1.94795 0
M  V30 6595 C 628.283 1.67243 -1.00274 0
M  V30 6596 O 627.553 1.95811 -0.0589692 0
M  V30 6597 H 626.133 0.201904 -0.719197 0
M  V30 6598 H 628.795 -0.187418 -1.93997 0
M  V30 6599 H 627.891 0.933315 -2.97818 0
M  V30 6600 N 628.193 1.56834 0.155195 0
M  V30 6601 C 629.47 1.73799 0.897395 0
M  V30 6602 C 629.85 0.684379 1.99698 0
M  V30 6603 O 629.198 -0.298111 2.26547 0
M  V30 6604 C 629.408 3.17572 1.44737 0
M  V30 6605 C 630.756 3.79014 1.91399 0
M  V30 6606 O 631.78 3.20951 1.54496 0
M  V30 6607 O 630.639 4.80998 2.59429 0
M  V30 6608 H 627.733 0.710329 0.423511 0
M  V30 6609 H 630.279 1.69107 0.141761 0
M  V30 6610 H 629.051 3.85749 0.656741 0
M  V30 6611 H 628.674 3.26657 2.26674 0
M  V30 6612 N 629.671 -0.424282 1.51781 0
M  V30 6613 C 630.619 -1.53649 1.74628 0
M  V30 6614 C 631.613 -1.57923 0.612922 0
M  V30 6615 O 632.819 -1.61511 0.794618 0
M  V30 6616 H 629.194 -0.510706 0.551981 0
M  V30 6617 H 631.165 -1.31558 2.67834 0
M  V30 6618 C 629.914 -2.91177 1.9003 0
M  V30 6619 H 629.237 -2.88625 2.76651 0
M  V30 6620 H 630.677 -3.6833 2.10021 0
M  V30 6621 C 629.136 -3.30303 0.663435 0
M  V30 6622 O 629.666 -4.01315 -0.175812 0
M  V30 6623 N 627.872 -2.86201 0.503723 0
M  V30 6624 H 627.419 -2.28583 1.18776 0
M  V30 6625 H 627.377 -3.12741 -0.322575 0
M  V30 6626 N 631.149 -1.42148 -0.680565 0
M  V30 6627 C 632.079 -1.4796 -1.80638 0
M  V30 6628 C 633.06 -0.336728 -1.66734 0
M  V30 6629 O 634.245 -0.550247 -1.86242 0
M  V30 6630 C 631.375 -1.37569 -3.18892 0
M  V30 6631 C 630.329 -2.49823 -3.47524 0
M  V30 6632 C 629.655 -2.24491 -4.85291 0
M  V30 6633 C 630.955 -3.92144 -3.44994 0
M  V30 6634 H 632.649 -2.42184 -1.76032 0
M  V30 6635 H 630.195 -1.16566 -0.845481 0
M  V30 6636 H 632.148 -1.40243 -3.97379 0
M  V30 6637 H 630.872 -0.398357 -3.24162 0
M  V30 6638 H 629.531 -2.46455 -2.71395 0
M  V30 6639 H 629.179 -1.25066 -4.87204 0
M  V30 6640 H 628.879 -2.99722 -5.05411 0
M  V30 6641 H 630.403 -2.28906 -5.66069 0
M  V30 6642 H 631.817 -3.97145 -4.13459 0
M  V30 6643 H 630.214 -4.67179 -3.76648 0
M  V30 6644 H 631.284 -4.19225 -2.43676 0
M  V30 6645 N 632.627 0.916307 -1.28225 0
M  V30 6646 C 633.875 1.6619 -1.15002 0
M  V30 6647 C 634.196 1.92642 0.302329 0
M  V30 6648 O 633.466 1.54076 1.20985 0
M  V30 6649 H 632.046 0.615964 -0.422608 0
M  V30 6650 H 634.708 1.09963 -1.60917 0
M  V30 6651 H 633.804 2.62533 -1.68769 0
M  V30 6652 N 634.105 1.10431 1.1244 0
M  V30 6653 C 635.037 0.710945 2.17895 0
M  V30 6654 C 636.05 -0.252315 1.60833 0
M  V30 6655 O 637.239 -0.03679 1.78462 0
M  V30 6656 C 634.339 0.0284262 3.38888 0
M  V30 6657 C 633.512 1.01585 4.2544 0
M  V30 6658 C 632.571 0.364826 5.24934 0
M  V30 6659 O 631.597 1.01561 5.60066 0
M  V30 6660 N 632.799 -0.87674 5.73841 0
M  V30 6661 H 635.564 1.61826 2.52255 0
M  V30 6662 H 633.125 0.993132 1.27861 0
M  V30 6663 H 635.117 -0.418568 4.0253 0
M  V30 6664 H 633.687 -0.781294 3.02679 0
M  V30 6665 H 632.907 1.64111 3.58415 0
M  V30 6666 H 634.195 1.68425 4.80115 0
M  V30 6667 H 633.593 -1.42483 5.47462 0
M  V30 6668 H 632.15 -1.26688 6.39369 0
M  V30 6669 N 635.583 -1.29855 0.893053 0
M  V30 6670 C 636.515 -2.26911 0.32311 0
M  V30 6671 C 637.528 -1.54039 -0.526858 0
M  V30 6672 O 638.717 -1.75132 -0.345095 0
M  V30 6673 C 635.817 -3.34266 -0.558509 0
M  V30 6674 C 634.99 -4.36601 0.264222 0
M  V30 6675 C 634.049 -5.23326 -0.549171 0
M  V30 6676 O 633.075 -5.69192 0.0309883 0
M  V30 6677 N 634.277 -5.50008 -1.85664 0
M  V30 6678 H 637.042 -2.76455 1.15726 0
M  V30 6679 H 634.603 -1.4312 0.756859 0
M  V30 6680 H 636.595 -3.89211 -1.1089 0
M  V30 6681 H 635.165 -2.8459 -1.29334 0
M  V30 6682 H 634.385 -3.81409 0.996046 0
M  V30 6683 H 635.673 -5.02019 0.827906 0
M  V30 6684 H 635.071 -5.14542 -2.35081 0
M  V30 6685 H 633.628 -6.07796 -2.35431 0
M  V30 6686 N 637.061 -0.65484 -1.43351 0
M  V30 6687 C 638.291 -0.176429 -2.05845 0
M  V30 6688 C 638.699 1.16375 -1.49176 0
M  V30 6689 O 638.042 1.72981 -0.618322 0
M  V30 6690 C 638.104 -0.0125844 -3.59498 0
M  V30 6691 C 637.768 -1.27831 -4.38758 0
M  V30 6692 C 638.765 -2.2074 -4.70712 0
M  V30 6693 C 636.45 -1.52035 -4.78739 0
M  V30 6694 C 638.444 -3.36145 -5.41558 0
M  V30 6695 C 636.131 -2.67732 -5.49329 0
M  V30 6696 C 637.129 -3.59612 -5.80662 0
M  V30 6697 O 636.817 -4.73289 -6.4981 0
M  V30 6698 H 636.549 -0.0879682 -0.670252 0
M  V30 6699 H 639.103 -0.896193 -1.84818 0
M  V30 6700 H 637.333 0.762567 -3.79107 0
M  V30 6701 H 639.022 0.423392 -4.03686 0
M  V30 6702 H 639.788 -2.03284 -4.40341 0
M  V30 6703 H 635.667 -0.813987 -4.53757 0
M  V30 6704 H 639.211 -4.07881 -5.65932 0
M  V30 6705 H 635.108 -2.85122 -5.79116 0
M  V30 6706 H 635.876 -4.72575 -6.68293 0
M  V30 6707 N 638.539 1.52521 -0.396863 0
M  V30 6708 C 639.487 2.28217 0.44943 0
M  V30 6709 C 640.481 1.32416 1.05652 0
M  V30 6710 O 641.687 1.49925 0.996124 0
M  V30 6711 H 638.062 0.733966 0.1637 0
M  V30 6712 H 640.033 2.97658 -0.210367 0
M  V30 6713 C 638.782 3.10713 1.56054 0
M  V30 6714 H 638.105 3.84291 1.10273 0
M  V30 6715 H 639.545 3.66803 2.12677 0
M  V30 6716 C 638.004 2.23499 2.52091 0
M  V30 6717 O 638.534 1.8669 3.55682 0
M  V30 6718 N 636.74 1.8751 2.2201 0
M  V30 6719 H 636.287 2.17643 1.37802 0
M  V30 6720 H 636.245 1.29448 2.86514 0
M  V30 6721 N 640.017 0.126909 1.57088 0
M  V30 6722 C 641.242 -0.53997 2.00248 0
M  V30 6723 C 641.667 -1.58927 1.00618 0
M  V30 6724 O 641.025 -1.81288 -0.0210131 0
M  V30 6725 C 641.073 -1.13565 3.4225 0
M  V30 6726 O 640.177 -2.25103 3.45547 0
M  V30 6727 H 639.518 -0.13412 0.650314 0
M  V30 6728 H 642.048 0.217718 2.03438 0
M  V30 6729 H 642.058 -1.46925 3.80627 0
M  V30 6730 H 640.733 -0.367122 4.14277 0
M  V30 6731 H 639.31 -1.93123 3.18995 0
M  V30 6732 N 641.495 -1.56914 -0.146875 0
M  V30 6733 C 642.906 -1.72799 -0.706928 0
M  V30 6734 C 643.257 -0.741329 -1.81656 0
M  V30 6735 O 642.382 0.0920162 -2.16204 0
M  V30 6736 C 642.977 -3.13317 -1.28911 0
M  V30 6737 C 641.536 -3.30803 -1.79573 0
M  V30 6738 C 640.683 -2.68725 -0.684252 0
M  V30 6739 H 643.634 -1.58504 0.0787931 0
M  V30 6740 H 643.655 -3.13323 -2.15891 0
M  V30 6741 H 643.167 -3.85104 -0.481284 0
M  V30 6742 H 641.268 -2.64012 -2.62923 0
M  V30 6743 H 641.381 -4.38754 -1.92436 0
M  V30 6744 H 639.745 -2.29196 -1.11091 0
M  V30 6745 H 640.528 -3.43117 0.112134 0
M  V30 6746 N 642.974 0.416227 -1.52004 0
M  V30 6747 C 643.906 1.52552 -1.71058 0
M  V30 6748 C 644.919 1.51693 -0.59102 0
M  V30 6749 O 646.108 1.56087 -0.865973 0
M  V30 6750 C 643.208 2.91455 -1.72937 0
M  V30 6751 C 642.381 3.16584 -3.01816 0
M  V30 6752 C 641.44 4.35322 -2.95603 0
M  V30 6753 O 640.466 4.32947 -3.6952 0
M  V30 6754 N 641.668 5.40049 -2.12903 0
M  V30 6755 H 644.433 1.36604 -2.66757 0
M  V30 6756 H 641.994 0.60544 -1.50153 0
M  V30 6757 H 643.986 3.68944 -1.66321 0
M  V30 6758 H 642.556 3.00895 -0.847418 0
M  V30 6759 H 641.776 2.27203 -3.22137 0
M  V30 6760 H 643.064 3.30213 -3.87088 0
M  V30 6761 H 642.462 5.44823 -1.52265 0
M  V30 6762 H 641.019 6.16308 -2.1215 0
M  V30 6763 N 644.452 1.42507 0.673017 0
M  V30 6764 C 645.362 1.4853 1.81593 0
M  V30 6765 C 646.378 0.373907 1.69935 0
M  V30 6766 O 647.554 0.625078 1.91454 0
M  V30 6767 C 644.619 1.387 3.17747 0
M  V30 6768 C 643.68 2.60346 3.41348 0
M  V30 6769 C 642.913 2.50975 4.71007 0
M  V30 6770 O 643.136 1.54659 5.49033 0
M  V30 6771 O 642.07 3.41138 4.95892 0
M  V30 6772 H 645.896 2.45001 1.79467 0
M  V30 6773 H 643.481 1.2429 0.82899 0
M  V30 6774 H 645.363 1.35586 3.98992 0
M  V30 6775 H 644.038 0.453555 3.20507 0
M  V30 6776 H 642.945 2.69034 2.59945 0
M  V30 6777 H 644.278 3.52595 3.43421 0
M  V30 6778 N 645.93 -0.909495 1.28709 0
M  V30 6779 C 647.176 -1.66151 1.16283 0
M  V30 6780 C 647.509 -1.92067 -0.287069 0
M  V30 6781 O 646.784 -1.52409 -1.20837 0
M  V30 6782 C 647.067 -3.01676 1.9663 0
M  V30 6783 C 646.92 -2.82888 3.49707 0
M  V30 6784 C 648.239 -4.02274 1.78504 0
M  V30 6785 H 645.358 -0.602966 0.423793 0
M  V30 6786 H 648 -1.05418 1.58073 0
M  V30 6787 H 646.15 -3.53515 1.61119 0
M  V30 6788 H 647.822 -2.38026 3.95147 0
M  V30 6789 H 646.065 -2.17862 3.75125 0
M  V30 6790 H 646.736 -3.79147 4.01187 0
M  V30 6791 H 649.212 -3.59511 2.09503 0
M  V30 6792 H 648.088 -4.95056 2.37088 0
M  V30 6793 H 648.349 -4.35903 0.737647 0
M  V30 6794 N 647.408 -1.11026 -1.11852 0
M  V30 6795 C 648.657 -0.851249 -1.82857 0
M  V30 6796 C 648.97 0.62514 -1.85341 0
M  V30 6797 O 650.176 1.00026 -2.52403 0
M  V30 6798 C 648.632 -1.47309 -3.28372 0
M  V30 6799 C 648.24 -2.9832 -3.34229 0
M  V30 6800 C 649.984 -1.29373 -4.04306 0
M  V30 6801 C 647.891 -3.53509 -4.74115 0
M  V30 6802 H 646.821 -0.314794 -0.685143 0
M  V30 6803 H 649.472 -1.33499 -1.25898 0
M  V30 6804 H 647.854 -0.917017 -3.85236 0
M  V30 6805 H 649.028 -3.60295 -2.87271 0
M  V30 6806 H 647.343 -3.15482 -2.71772 0
M  V30 6807 H 649.94 -1.68042 -5.07608 0
M  V30 6808 H 650.283 -0.235879 -4.15631 0
M  V30 6809 H 650.816 -1.8182 -3.53817 0
M  V30 6810 H 647.555 -4.58987 -4.67986 0
M  V30 6811 H 647.075 -2.96305 -5.21501 0
M  V30 6812 H 648.754 -3.51693 -5.43066 0
M  V30 6813 N 648.886 1.2938 -0.899927 0
M  V30 6814 C 650.134 1.95164 -0.524924 0
M  V30 6815 C 650.455 1.71292 0.931888 0
M  V30 6816 O 649.725 1.04481 1.65712 0
M  V30 6817 H 648.305 0.722133 -0.191135 0
M  V30 6818 H 650.967 1.57628 -1.14627 0
M  V30 6819 H 650.063 3.0397 -0.707711 0
M  V30 6820 N 650.364 0.662433 1.43002 0
M  V30 6821 C 651.311 -0.0235324 2.30788 0
M  V30 6822 C 652.281 -0.805342 1.4527 0
M  V30 6823 O 653.466 -0.78009 1.74124 0
M  V30 6824 C 650.606 -0.977545 3.30965 0
M  V30 6825 C 649.719 -0.190865 4.31578 0
M  V30 6826 C 648.854 -1.13951 5.18834 0
M  V30 6827 C 647.893 -0.343796 6.11134 0
M  V30 6828 N 647.03 -1.2445 6.90982 0
M  V30 6829 H 651.87 0.730921 2.88897 0
M  V30 6830 H 649.407 0.372197 1.42313 0
M  V30 6831 H 651.365 -1.54437 3.87563 0
M  V30 6832 H 649.995 -1.69877 2.74484 0
M  V30 6833 H 649.047 0.492388 3.772 0
M  V30 6834 H 650.359 0.427464 4.96965 0
M  V30 6835 H 649.513 -1.77666 5.80103 0
M  V30 6836 H 648.252 -1.79174 4.53595 0
M  V30 6837 H 647.257 0.30665 5.48944 0
M  V30 6838 H 648.482 0.304161 6.78419 0
M  V30 6839 H 646.428 -1.88336 6.28383 0
M  V30 6840 H 646.345 -0.680959 7.52927 0
M  V30 6841 H 647.613 -1.86952 7.56749 0
M  V30 6842 N 651.842 -1.52309 0.404946 0
M  V30 6843 C 653.258 -1.59503 0.0556255 0
M  V30 6844 C 653.458 -1.41805 -1.43156 0
M  V30 6845 O 652.514 -1.2429 -2.19792 0
M  V30 6846 C 653.827 -2.95687 0.546801 0
M  V30 6847 C 655.375 -3.08909 0.504413 0
M  V30 6848 C 655.85 -4.47566 0.97203 0
M  V30 6849 N 657.341 -4.53795 0.928679 0
M  V30 6850 C 658.076 -5.59346 1.26174 0
M  V30 6851 N 657.572 -6.72469 1.66604 0
M  V30 6852 N 659.365 -5.49532 1.18198 0
M  V30 6853 H 651.516 -1.6206 1.37296 0
M  V30 6854 H 653.779 -0.762161 0.563751 0
M  V30 6855 H 653.485 -3.13905 1.58609 0
M  V30 6856 H 653.359 -3.77172 -0.0457905 0
M  V30 6857 H 655.746 -2.90378 -0.525819 0
M  V30 6858 H 655.827 -2.2934 1.13301 0
M  V30 6859 H 655.471 -4.6684 2.00057 0
M  V30 6860 H 655.401 -5.25625 0.320292 0
M  V30 6861 H 657.892 -3.72588 0.631369 0
M  V30 6862 H 658.205 -7.48993 1.9034 0
M  V30 6863 H 656.55 -6.73761 1.70504 0
M  V30 6864 H 659.741 -4.60038 0.865011 0
M  V30 6865 H 659.914 -6.31687 1.44485 0
M  V30 6866 N 653.32 -0.135238 -1.57019 0
M  V30 6867 C 654.568 0.51777 -1.95355 0
M  V30 6868 C 654.889 1.6617 -1.02042 0
M  V30 6869 O 654.159 1.95738 -0.0797343 0
M  V30 6870 H 652.739 0.194264 -0.721298 0
M  V30 6871 H 655.401 -0.207983 -1.93787 0
M  V30 6872 H 654.497 0.901675 -2.98791 0
M  V30 6873 N 654.798 1.5699 0.138552 0
M  V30 6874 C 656.023 1.88344 0.86841 0
M  V30 6875 C 656.448 0.725159 1.7356 0
M  V30 6876 O 655.806 -0.324992 1.78363 0
M  V30 6877 C 655.854 3.18334 1.69398 0
M  V30 6878 O 654.958 3.02863 2.79907 0
M  V30 6879 H 654.299 0.618577 0.241367 0
M  V30 6880 H 656.829 2.04207 0.126826 0
M  V30 6881 H 656.839 3.50567 2.08726 0
M  V30 6882 H 655.514 4.02238 1.05725 0
M  V30 6883 H 654.091 2.82056 2.43924 0
M  V30 6884 N 656.276 -0.40816 1.52223 0
M  V30 6885 C 657.553 -1.16807 1.56893 0
M  V30 6886 C 657.933 -2.08169 0.350537 0
M  V30 6887 O 657.281 -2.18684 -0.662536 0
M  V30 6888 C 657.491 -1.94451 2.8981 0
M  V30 6889 C 658.839 -2.50484 3.42845 0
M  V30 6890 O 659.863 -2.0463 2.91556 0
M  V30 6891 O 658.722 -3.34192 4.3241 0
M  V30 6892 H 655.816 -0.533382 0.632007 0
M  V30 6893 H 658.362 -0.414862 1.64551 0
M  V30 6894 H 657.134 -1.27527 3.69936 0
M  V30 6895 H 656.757 -2.76775 2.85449 0
M  V30 6896 N 657.755 -1.42862 -0.66545 0
M  V30 6897 C 659.004 -1.43119 -1.42126 0
M  V30 6898 C 659.317 -0.0545297 -1.95524 0
M  V30 6899 O 660.523 0.0654747 -2.71421 0
M  V30 6900 C 658.979 -2.51797 -2.5715 0
M  V30 6901 C 658.587 -3.95514 -2.10411 0
M  V30 6902 C 660.331 -2.61233 -3.346 0
M  V30 6903 C 658.238 -4.95682 -3.22573 0
M  V30 6904 H 657.168 -0.532349 -0.533966 0
M  V30 6905 H 659.819 -1.68806 -0.719506 0
M  V30 6906 H 658.201 -2.19292 -3.29738 0
M  V30 6907 H 659.375 -4.3742 -1.44915 0
M  V30 6908 H 657.69 -3.90012 -1.45874 0
M  V30 6909 H 660.287 -3.33248 -4.18151 0
M  V30 6910 H 660.63 -1.65896 -3.81817 0
M  V30 6911 H 661.163 -2.9298 -2.69087 0
M  V30 6912 H 657.902 -5.92529 -2.80338 0
M  V30 6913 H 657.422 -4.58399 -3.86821 0
M  V30 6914 H 659.101 -5.17828 -3.87896 0
M  V30 6915 N 659.233 0.902656 -1.29189 0
M  V30 6916 C 660.482 1.6475 -1.16362 0
M  V30 6917 C 660.795 1.93517 0.284682 0
M  V30 6918 O 662.001 2.66192 0.534229 0
M  V30 6919 C 660.457 2.96848 -2.03493 0
M  V30 6920 C 660.065 2.75687 -3.5313 0
M  V30 6921 C 661.809 3.74762 -1.99383 0
M  V30 6922 C 659.716 4.03492 -4.32375 0
M  V30 6923 H 658.646 0.618041 -0.431904 0
M  V30 6924 H 661.297 1.0008 -1.53806 0
M  V30 6925 H 659.679 3.62715 -1.58916 0
M  V30 6926 H 660.853 2.18431 -4.05739 0
M  V30 6927 H 659.168 2.11171 -3.58881 0
M  V30 6928 H 661.765 4.69515 -2.5585 0
M  V30 6929 H 662.108 4.04767 -0.973123 0
M  V30 6930 H 662.641 3.15732 -2.41988 0
M  V30 6931 H 659.38 3.78656 -5.3507 0
M  V30 6932 H 658.9 4.60318 -3.84535 0
M  V30 6933 H 660.579 4.71662 -4.42881 0
M  V30 6934 N 660.711 1.11618 1.11262 0
M  V30 6935 C 661.96 0.860934 1.82403 0
M  V30 6936 C 662.273 -0.615303 1.8567 0
M  V30 6937 O 663.479 -0.986861 2.52929 0
M  V30 6938 C 661.935 1.49048 3.27586 0
M  V30 6939 C 661.543 3.00089 3.32642 0
M  V30 6940 C 663.287 1.31515 4.03614 0
M  V30 6941 C 661.194 3.56019 4.72234 0
M  V30 6942 H 660.124 0.318423 0.683464 0
M  V30 6943 H 662.775 1.34165 1.25188 0
M  V30 6944 H 661.157 0.937434 3.84744 0
M  V30 6945 H 662.331 3.61813 2.85356 0
M  V30 6946 H 660.646 3.16919 2.70096 0
M  V30 6947 H 663.243 1.70732 5.0671 0
M  V30 6948 H 663.586 0.257917 4.155 0
M  V30 6949 H 664.119 1.83694 3.52848 0
M  V30 6950 H 660.858 4.61463 4.65545 0
M  V30 6951 H 660.378 2.99066 5.19923 0
M  V30 6952 H 662.057 3.54568 5.41193 0
M  V30 6953 N 662.189 -1.289 0.906776 0
M  V30 6954 C 663.435 -1.95558 0.53712 0
M  V30 6955 C 663.768 -1.71262 -0.915582 0
M  V30 6956 O 663.043 -1.02961 -1.65013 0
M  V30 6957 C 663.326 -3.50198 0.838645 0
M  V30 6958 C 663.179 -3.83923 2.34357 0
M  V30 6959 C 664.498 -4.38861 0.329988 0
M  V30 6960 H 661.617 -0.710289 0.196617 0
M  V30 6961 H 664.259 -1.52392 1.13475 0
M  V30 6962 H 662.409 -3.87096 0.330024 0
M  V30 6963 H 664.081 -3.56933 2.92227 0
M  V30 6964 H 662.324 -3.31215 2.80141 0
M  V30 6965 H 662.995 -4.91883 2.5051 0
M  V30 6966 H 665.471 -4.08996 0.765609 0
M  V30 6967 H 664.347 -5.45931 0.570105 0
M  V30 6968 H 664.608 -4.35352 -0.769511 0
M  V30 6969 N 663.667 -0.670007 -1.42649 0
M  V30 6970 C 664.915 -0.18991 -2.01206 0
M  V30 6971 C 665.236 1.20617 -1.53221 0
M  V30 6972 O 664.506 1.80898 -0.751856 0
M  V30 6973 H 663.086 -0.0672189 -0.743969 0
M  V30 6974 H 665.748 -0.865442 -1.74631 0
M  V30 6975 H 664.844 -0.187481 -3.11536 0
M  V30 6976 N 665.145 1.52092 -0.413018 0
M  V30 6977 C 666.561 1.59471 -0.0640836 0
M  V30 6978 C 666.761 1.42562 1.42402 0
M  V30 6979 O 665.817 1.25453 2.19129 0
M  V30 6980 C 667.13 2.95392 -0.562474 0
M  V30 6981 C 668.678 3.08637 -0.520788 0
M  V30 6982 C 669.153 4.47044 -0.995752 0
M  V30 6983 N 670.644 4.53296 -0.952732 0
M  V30 6984 C 671.379 5.58669 -1.29138 0
M  V30 6985 N 670.875 6.71576 -1.70168 0
M  V30 6986 N 672.668 5.48898 -1.2111 0
M  V30 6987 H 664.819 1.6133 -1.38153 0
M  V30 6988 H 667.082 0.75916 -0.567785 0
M  V30 6989 H 666.788 3.13059 -1.60271 0
M  V30 6990 H 666.662 3.77191 0.0257875 0
M  V30 6991 H 669.049 2.90652 0.510412 0
M  V30 6992 H 669.13 2.28735 -1.14515 0
M  V30 6993 H 668.774 4.65773 -2.0253 0
M  V30 6994 H 668.704 5.25448 -0.348162 0
M  V30 6995 H 671.195 3.72248 -0.651119 0
M  V30 6996 H 671.508 7.47973 -1.9431 0
M  V30 6997 H 669.853 6.72847 -1.74075 0
M  V30 6998 H 673.044 4.59573 -0.889396 0
M  V30 6999 H 673.217 6.30912 -1.47833 0
M  V30 7000 N 666.623 0.143563 1.56945 0
M  V30 7001 C 667.871 -0.507402 1.95627 0
M  V30 7002 C 668.192 -1.65626 1.02922 0
M  V30 7003 O 667.462 -1.95693 0.0901136 0
M  V30 7004 H 666.042 -0.190436 0.722318 0
M  V30 7005 H 668.704 0.218257 1.93674 0
M  V30 7006 H 667.8 -0.885816 2.99265 0
M  V30 7007 N 668.101 -1.57061 -0.130224 0
M  V30 7008 C 669.35 -1.83446 -0.838488 0
M  V30 7009 C 669.663 -0.727468 -1.81569 0
M  V30 7010 O 670.869 -0.877394 -2.56932 0
M  V30 7011 C 669.325 -3.25201 -1.54182 0
M  V30 7012 C 668.933 -4.4388 -0.606178 0
M  V30 7013 C 670.677 -3.60844 -2.23588 0
M  V30 7014 C 668.584 -5.76661 -1.31209 0
M  V30 7015 H 667.514 -0.684185 -0.316871 0
M  V30 7016 H 670.165 -1.83273 -0.0912059 0
M  V30 7017 H 668.547 -3.1981 -2.33533 0
M  V30 7018 H 669.721 -4.60545 0.153308 0
M  V30 7019 H 668.036 -4.16395 -0.0196705 0
M  V30 7020 H 670.633 -4.57313 -2.77072 0
M  V30 7021 H 670.976 -2.87724 -3.00867 0
M  V30 7022 H 671.509 -3.67971 -1.51137 0
M  V30 7023 H 668.248 -6.52922 -0.580823 0
M  V30 7024 H 667.768 -5.63902 -2.04387 0
M  V30 7025 H 669.447 -6.20035 -1.8484 0
M  V30 7026 N 669.579 0.400081 -1.52437 0
M  V30 7027 C 670.828 1.14332 -1.66166 0
M  V30 7028 C 671.141 1.91419 -0.402253 0
M  V30 7029 O 672.347 2.6824 -0.419487 0
M  V30 7030 C 670.803 2.08137 -2.9361 0
M  V30 7031 C 670.411 1.36524 -4.26691 0
M  V30 7032 C 672.155 2.82664 -3.16703 0
M  V30 7033 C 670.062 2.29031 -5.45251 0
M  V30 7034 H 668.992 0.430499 -0.61902 0
M  V30 7035 H 671.643 0.407017 -1.78929 0
M  V30 7036 H 670.025 2.85358 -2.74567 0
M  V30 7037 H 671.199 0.646061 -4.56249 0
M  V30 7038 H 669.514 0.74002 -4.09771 0
M  V30 7039 H 672.111 3.52037 -4.0246 0
M  V30 7040 H 672.454 3.46122 -2.31312 0
M  V30 7041 H 672.987 2.12541 -3.36261 0
M  V30 7042 H 669.726 1.70206 -6.33017 0
M  V30 7043 H 669.246 2.98896 -5.2002 0
M  V30 7044 H 670.925 2.89359 -5.78689 0
M  V30 7045 N 671.057 1.43213 0.657864 0
M  V30 7046 C 672.282 1.48227 1.45064 0
M  V30 7047 C 672.707 0.0999939 1.87834 0
M  V30 7048 O 672.065 -0.905269 1.57081 0
M  V30 7049 C 672.113 2.42931 2.6649 0
M  V30 7050 O 671.217 1.91237 3.6538 0
M  V30 7051 H 670.558 0.501551 0.435135 0
M  V30 7052 H 673.088 1.8808 0.805431 0
M  V30 7053 H 673.098 2.6008 3.1436 0
M  V30 7054 H 671.773 3.43348 2.34701 0
M  V30 7055 H 670.35 1.83726 3.24498 0
M  V30 7056 N 672.536 -0.895792 1.29666 0
M  V30 7057 C 673.499 -1.98189 1.15124 0
M  V30 7058 C 674.499 -1.60572 0.0855717 0
M  V30 7059 O 675.689 -1.70991 0.332826 0
M  V30 7060 C 672.821 -3.32289 0.761372 0
M  V30 7061 H 674.014 -2.12518 2.11603 0
M  V30 7062 H 671.567 -1.0808 1.12908 0
M  V30 7063 H 672.302 -3.23662 -0.203393 0
M  V30 7064 H 672.087 -3.60958 1.53139 0
M  V30 7065 H 673.577 -4.1198 0.682792 0
M  V30 7066 N 674.014 -1.12206 -1.10668 0
M  V30 7067 C 674.977 -0.790867 -2.15123 0
M  V30 7068 C 675.977 0.193618 -1.5963 0
M  V30 7069 O 677.167 -0.0318728 -1.74171 0
M  V30 7070 C 674.299 -0.174797 -3.40452 0
M  V30 7071 H 675.492 -1.7163 -2.45933 0
M  V30 7072 H 673.045 -0.924993 -1.2599 0
M  V30 7073 H 673.78 0.760478 -3.15257 0
M  V30 7074 H 673.565 -0.88358 -3.82015 0
M  V30 7075 H 675.055 0.0405162 -4.1758 0
M  V30 7076 N 675.492 1.28418 -0.913599 0
M  V30 7077 C 676.769 1.89977 -0.465619 0
M  V30 7078 C 677.149 1.82813 1.05559 0
M  V30 7079 O 676.497 1.26397 1.90358 0
M  V30 7080 C 676.707 3.34492 -0.995813 0
M  V30 7081 C 678.055 4.11468 -1.04782 0
M  V30 7082 O 679.079 3.43451 -0.944445 0
M  V30 7083 O 677.938 5.33046 -1.20518 0
M  V30 7084 H 675.032 0.813734 -0.147532 0
M  V30 7085 H 677.578 1.36786 -1.00437 0
M  V30 7086 H 676.35 3.33929 -2.03978 0
M  V30 7087 H 675.973 3.95181 -0.437878 0
M  V30 7088 N 676.97 0.677563 1.42291 0
M  V30 7089 C 678.386 0.347376 1.55774 0
M  V30 7090 C 678.586 -1.14703 1.65667 0
M  V30 7091 O 677.642 -1.93252 1.62512 0
M  V30 7092 C 678.955 1.08011 2.80631 0
M  V30 7093 C 680.503 1.06271 2.94407 0
M  V30 7094 C 680.978 1.77683 4.22129 0
M  V30 7095 N 682.469 1.74564 4.29047 0
M  V30 7096 C 683.204 2.26673 5.26694 0
M  V30 7097 N 682.7 2.87176 6.30477 0
M  V30 7098 N 684.493 2.17032 5.18511 0
M  V30 7099 H 676.644 1.64703 1.34114 0
M  V30 7100 H 678.907 0.694038 0.645768 0
M  V30 7101 H 678.613 2.13518 2.79469 0
M  V30 7102 H 678.487 0.647115 3.71608 0
M  V30 7103 H 680.874 0.0159658 2.95096 0
M  V30 7104 H 680.955 1.53461 2.04654 0
M  V30 7105 H 680.599 2.82327 4.22201 0
M  V30 7106 H 680.529 1.2794 5.10822 0
M  V30 7107 H 683.02 1.30436 3.54676 0
M  V30 7108 H 683.333 3.24551 7.01346 0
M  V30 7109 H 681.678 2.91247 6.31031 0
M  V30 7110 H 684.869 1.69451 4.36353 0
M  V30 7111 H 685.042 2.57948 5.94446 0
M  V30 7112 N 678.448 -1.51871 0.421078 0
M  V30 7113 C 679.378 -2.30231 -0.389363 0
M  V30 7114 C 680.359 -1.34946 -1.03555 0
M  V30 7115 O 681.544 -1.63859 -1.04229 0
M  V30 7116 C 678.674 -3.13247 -1.49979 0
M  V30 7117 C 677.628 -4.16677 -0.977966 0
M  V30 7118 C 676.954 -4.88112 -2.1829 0
M  V30 7119 C 678.254 -5.22295 -0.0236775 0
M  V30 7120 H 679.948 -2.98229 0.264524 0
M  V30 7121 H 677.494 -1.43424 0.12866 0
M  V30 7122 H 679.447 -3.66838 -2.07383 0
M  V30 7123 H 678.171 -2.4304 -2.18173 0
M  V30 7124 H 676.83 -3.64114 -0.426245 0
M  V30 7125 H 676.478 -4.14423 -2.85066 0
M  V30 7126 H 676.178 -5.58041 -1.84021 0
M  V30 7127 H 677.702 -5.44521 -2.76278 0
M  V30 7128 H 679.116 -5.71055 -0.506899 0
M  V30 7129 H 677.513 -5.99656 0.230782 0
M  V30 7130 H 678.583 -4.76131 0.917999 0
M  V30 7131 N 679.926 -0.151884 -1.56866 0
M  V30 7132 C 680.836 0.798876 -2.20579 0
M  V30 7133 C 681.852 1.268 -1.19154 0
M  V30 7134 O 683.028 1.32418 -1.51748 0
M  V30 7135 C 680.093 2.01861 -2.81874 0
M  V30 7136 C 679.154 1.59825 -3.9844 0
M  V30 7137 C 678.387 2.75984 -4.56802 0
M  V30 7138 O 678.61 3.92331 -4.14044 0
M  V30 7139 O 677.544 2.51175 -5.46987 0
M  V30 7140 H 681.37 0.2865 -3.02346 0
M  V30 7141 H 678.955 0.0753806 -1.4921 0
M  V30 7142 H 680.837 2.73235 -3.20813 0
M  V30 7143 H 679.512 2.52042 -2.03117 0
M  V30 7144 H 678.419 0.854601 -3.64208 0
M  V30 7145 H 679.752 1.14355 -4.78731 0
M  V30 7146 N 681.404 1.57128 0.121893 0
M  V30 7147 C 682.367 1.99197 1.13372 0
M  V30 7148 C 683.367 0.881728 1.3447 0
M  V30 7149 O 684.557 1.14783 1.31036 0
M  V30 7150 C 681.689 2.32963 2.4888 0
M  V30 7151 H 682.882 2.89788 0.772204 0
M  V30 7152 H 680.435 1.51952 0.366093 0
M  V30 7153 H 681.17 1.45243 2.89957 0
M  V30 7154 H 680.955 3.13934 2.34921 0
M  V30 7155 H 682.445 2.66261 3.21706 0
M  V30 7156 N 682.882 -0.391992 1.52647 0
M  V30 7157 C 683.845 -1.46135 1.7657 0
M  V30 7158 C 684.845 -1.47701 0.635698 0
M  V30 7159 O 686.035 -1.48924 0.903728 0
M  V30 7160 C 683.167 -2.85443 1.86374 0
M  V30 7161 H 684.36 -1.26208 2.72051 0
M  V30 7162 H 681.913 -0.623549 1.43323 0
M  V30 7163 H 682.648 -3.10718 0.928685 0
M  V30 7164 H 682.433 -2.85708 2.68539 0
M  V30 7165 H 683.923 -3.62933 2.06566 0
M  V30 7166 N 684.36 -1.4356 -0.65026 0
M  V30 7167 C 685.27 -1.514 -1.79207 0
M  V30 7168 C 686.286 -0.400895 -1.69319 0
M  V30 7169 O 687.462 -0.655458 -1.90436 0
M  V30 7170 C 684.527 -1.43737 -3.155 0
M  V30 7171 C 683.588 -2.65743 -3.37163 0
M  V30 7172 C 682.821 -2.58436 -4.66954 0
M  V30 7173 O 683.044 -1.63374 -5.46503 0
M  V30 7174 O 681.978 -3.48984 -4.90402 0
M  V30 7175 H 685.804 -2.47825 -1.75547 0
M  V30 7176 H 683.389 -1.25594 -0.809111 0
M  V30 7177 H 685.271 -1.41916 -3.96784 0
M  V30 7178 H 683.946 -0.504488 -3.19745 0
M  V30 7179 H 682.853 -2.73136 -2.55632 0
M  V30 7180 H 684.186 -3.58014 -3.37768 0
M  V30 7181 N 685.838 0.888903 -1.30139 0
M  V30 7182 C 686.771 1.99655 -1.10514 0
M  V30 7183 C 687.749 1.62594 -0.0138934 0
M  V30 7184 O 688.933 1.87762 -0.166689 0
M  V30 7185 C 686.06 3.31708 -0.684655 0
M  V30 7186 C 685.106 3.87755 -1.77619 0
M  V30 7187 S 685.939 4.15532 -3.37777 0
M  V30 7188 C 687.095 5.5061 -2.97622 0
M  V30 7189 H 687.328 2.15996 -2.04287 0
M  V30 7190 H 684.861 1.03682 -1.14409 0
M  V30 7191 H 686.819 4.08039 -0.448782 0
M  V30 7192 H 685.48 3.1323 0.233648 0
M  V30 7193 H 684.673 4.83164 -1.43417 0
M  V30 7194 H 684.275 3.18149 -1.96614 0
M  V30 7195 H 686.567 6.31518 -2.45338 0
M  V30 7196 H 687.51 5.89747 -3.91924 0
M  V30 7197 H 687.918 5.12983 -2.35603 0
M  V30 7198 N 687.317 1.12792 1.10072 0
M  V30 7199 C 688.547 0.907189 1.85617 0
M  V30 7200 C 688.955 -0.547181 1.81115 0
M  V30 7201 O 688.298 -1.39024 1.20075 0
M  V30 7202 C 688.36 1.30872 3.34832 0
M  V30 7203 C 688.024 2.77516 3.6309 0
M  V30 7204 C 689.021 3.75696 3.59373 0
M  V30 7205 C 686.706 3.14513 3.91646 0
M  V30 7206 C 688.7 5.08888 3.83812 0
M  V30 7207 C 686.387 4.47886 4.15742 0
M  V30 7208 C 687.385 5.44882 4.11816 0
M  V30 7209 O 687.073 6.7585 4.35295 0
M  V30 7210 H 686.805 0.323855 0.593375 0
M  V30 7211 H 689.359 1.50262 1.40038 0
M  V30 7212 H 687.589 0.656518 3.81086 0
M  V30 7213 H 689.278 1.06153 3.91773 0
M  V30 7214 H 690.044 3.48458 3.37345 0
M  V30 7215 H 685.923 2.39622 3.93831 0
M  V30 7216 H 689.467 5.84586 3.80663 0
M  V30 7217 H 685.364 4.74851 4.37249 0
M  V30 7218 H 686.132 6.81853 4.52791 0
M  V30 7219 N 688.795 -1.27931 0.920396 0
M  V30 7220 C 690.211 -1.47085 0.619537 0
M  V30 7221 C 690.411 -1.83463 -0.833291 0
M  V30 7222 O 689.467 -1.94363 -1.61181 0
M  V30 7223 C 690.78 -2.56878 1.56314 0
M  V30 7224 C 692.328 -2.70743 1.57058 0
M  V30 7225 C 692.803 -3.83687 2.50097 0
M  V30 7226 N 694.294 -3.9105 2.48262 0
M  V30 7227 C 695.029 -4.77842 3.16945 0
M  V30 7228 N 694.525 -5.69176 3.94982 0
M  V30 7229 N 696.318 -4.71509 3.06 0
M  V30 7230 H 688.469 -1.02601 1.85975 0
M  V30 7231 H 690.732 -0.511682 0.798051 0
M  V30 7232 H 690.438 -2.36923 2.59923 0
M  V30 7233 H 690.312 -3.54117 1.29928 0
M  V30 7234 H 692.699 -2.90083 0.541832 0
M  V30 7235 H 692.78 -1.74015 1.8749 0
M  V30 7236 H 692.424 -3.65101 3.53077 0
M  V30 7237 H 692.354 -4.79827 2.16964 0
M  V30 7238 H 694.845 -3.25738 1.91581 0
M  V30 7239 H 695.158 -6.32245 4.44394 0
M  V30 7240 H 693.503 -5.68995 3.99086 0
M  V30 7241 H 696.694 -3.99151 2.44533 0
M  V30 7242 H 696.867 -5.38933 3.59799 0
M  V30 7243 N 690.273 -0.685099 -1.4193 0
M  V30 7244 C 691.22 -0.0131869 -2.30796 0
M  V30 7245 C 692.19 0.782129 -1.46533 0
M  V30 7246 O 693.375 0.75229 -1.75343 0
M  V30 7247 C 690.515 0.924768 -3.32479 0
M  V30 7248 C 689.628 0.122181 -4.31827 0
M  V30 7249 C 688.763 1.05682 -5.20581 0
M  V30 7250 C 687.802 0.246526 -6.11603 0
M  V30 7251 N 686.939 1.13442 -6.92875 0
M  V30 7252 H 691.779 -0.776789 -2.87698 0
M  V30 7253 H 689.316 -0.394791 -1.41703 0
M  V30 7254 H 691.274 1.48251 -3.89971 0
M  V30 7255 H 689.904 1.65488 -2.77152 0
M  V30 7256 H 688.956 -0.552335 -3.76369 0
M  V30 7257 H 690.268 -0.506473 -4.96222 0
M  V30 7258 H 689.422 1.68415 -5.82856 0
M  V30 7259 H 688.161 1.71935 -4.56388 0
M  V30 7260 H 687.166 -0.393944 -5.48387 0
M  V30 7261 H 688.391 -0.412053 -6.77849 0
M  V30 7262 H 686.337 1.78316 -6.313 0
M  V30 7263 H 686.254 0.561089 -7.53915 0
M  V30 7264 H 687.522 1.74889 -7.59628 0
M  V30 7265 N 691.751 1.51645 -0.429126 0
M  V30 7266 C 692.714 2.26116 0.374726 0
M  V30 7267 C 693.714 1.29242 0.956714 0
M  V30 7268 O 694.904 1.53022 0.832452 0
M  V30 7269 C 692.036 3.04669 1.52937 0
M  V30 7270 H 693.229 2.9861 -0.277818 0
M  V30 7271 H 690.782 1.55236 -0.182097 0
M  V30 7272 H 691.517 2.36571 2.21821 0
M  V30 7273 H 691.302 3.75814 1.11833 0
M  V30 7274 H 692.792 3.61102 2.09751 0
M  V30 7275 N 693.229 0.160201 1.56784 0
M  V30 7276 C 694.192 -0.760405 2.16219 0
M  V30 7277 C 695.192 -1.16595 1.10735 0
M  V30 7278 O 696.382 -1.08472 1.36306 0
M  V30 7279 C 693.514 -2.03358 2.73603 0
M  V30 7280 H 694.707 -0.243173 2.98912 0
M  V30 7281 H 692.26 -0.0893139 1.56045 0
M  V30 7282 H 692.995 -2.59416 1.94612 0
M  V30 7283 H 692.78 -1.75186 3.50788 0
M  V30 7284 H 694.27 -2.69081 3.19351 0
M  V30 7285 N 694.707 -1.5719 -0.113559 0
M  V30 7286 C 695.953 -1.86289 -0.816583 0
M  V30 7287 C 696.308 -0.748672 -1.77236 0
M  V30 7288 O 695.601 0.250889 -1.8995 0
M  V30 7289 C 695.795 -3.19593 -1.59984 0
M  V30 7290 C 695.624 -4.43876 -0.721414 0
M  V30 7291 C 694.394 -5.03913 -0.374172 0
M  V30 7292 C 696.592 -5.14287 -0.0366045 0
M  V30 7293 N 694.574 -6.11741 0.514352 0
M  V30 7294 C 695.945 -6.15913 0.710706 0
M  V30 7295 C 698 -4.97885 0.039247 0
M  V30 7296 C 696.703 -7.0291 1.52675 0
M  V30 7297 C 698.729 -5.85373 0.842135 0
M  V30 7298 C 698.091 -6.86506 1.57762 0
M  V30 7299 H 694.19 -0.731839 -0.275564 0
M  V30 7300 H 696.774 -1.94535 -0.080033 0
M  V30 7301 H 694.945 -3.12432 -2.30739 0
M  V30 7302 H 696.677 -3.3648 -2.24862 0
M  V30 7303 H 693.432 -4.68131 -0.717653 0
M  V30 7304 H 693.856 -6.70293 0.950623 0
M  V30 7305 H 698.498 -4.19651 -0.51503 0
M  V30 7306 H 696.216 -7.80547 2.09217 0
M  V30 7307 H 699.802 -5.74746 0.903256 0
M  V30 7308 H 698.682 -7.53032 2.1889 0
M  V30 7309 N 696.185 0.383891 -1.52853 0
M  V30 7310 C 697.095 1.49343 -1.80925 0
M  V30 7311 C 698.111 1.59458 -0.696348 0
M  V30 7312 O 699.287 1.75698 -0.984481 0
M  V30 7313 C 696.352 2.84819 -1.97684 0
M  V30 7314 C 695.413 2.84382 -3.21598 0
M  V30 7315 C 694.646 4.13397 -3.37548 0
M  V30 7316 O 694.869 5.08619 -2.58192 0
M  V30 7317 O 693.803 4.20325 -4.30826 0
M  V30 7318 H 697.629 1.2855 -2.75152 0
M  V30 7319 H 695.214 0.572229 -1.38007 0
M  V30 7320 H 697.096 3.65125 -2.10385 0
M  V30 7321 H 695.771 3.05627 -1.06647 0
M  V30 7322 H 694.678 2.0284 -3.14336 0
M  V30 7323 H 696.011 2.68526 -4.12498 0
M  V30 7324 N 697.663 1.43903 0.642637 0
M  V30 7325 C 698.626 1.49538 1.73698 0
M  V30 7326 C 699.626 0.378776 1.56275 0
M  V30 7327 O 700.816 0.64095 1.6198 0
M  V30 7328 C 697.948 1.35821 3.12675 0
M  V30 7329 H 699.141 2.47008 1.70079 0
M  V30 7330 H 696.694 1.30824 0.85526 0
M  V30 7331 H 697.429 0.393994 3.21898 0
M  V30 7332 H 697.214 2.16776 3.26727 0
M  V30 7333 H 698.704 1.4272 3.92455 0
M  V30 7334 N 699.141 -0.881989 1.30609 0
M  V30 7335 C 700.371 -1.66469 1.22359 0
M  V30 7336 C 700.779 -1.87969 -0.215507 0
M  V30 7337 O 700.122 -1.42938 -1.15388 0
M  V30 7338 C 700.184 -3.06135 1.88472 0
M  V30 7339 C 699.848 -3.07795 3.37804 0
M  V30 7340 C 700.845 -2.86633 4.33749 0
M  V30 7341 C 698.53 -3.29297 3.793 0
M  V30 7342 C 700.524 -2.86934 5.69164 0
M  V30 7343 C 698.211 -3.29228 5.14832 0
M  V30 7344 C 699.209 -3.08071 6.09574 0
M  V30 7345 O 698.897 -3.07824 7.4263 0
M  V30 7346 H 698.629 -0.526129 0.424458 0
M  V30 7347 H 701.183 -1.11004 1.72821 0
M  V30 7348 H 699.413 -3.63276 1.32543 0
M  V30 7349 H 701.102 -3.66571 1.74301 0
M  V30 7350 H 701.868 -2.69814 4.0302 0
M  V30 7351 H 697.747 -3.44799 3.05998 0
M  V30 7352 H 701.291 -2.70339 6.43088 0
M  V30 7353 H 697.188 -3.45583 5.452 0
M  V30 7354 H 697.956 -3.2397 7.51656 0
M  V30 7355 N 700.619 -1.13374 -1.09472 0
M  V30 7356 C 701.549 -0.833268 -2.18126 0
M  V30 7357 C 702.53 0.207169 -1.68834 0
M  V30 7358 O 703.715 0.0662012 -1.94087 0
M  V30 7359 C 700.845 -0.297979 -3.46019 0
M  V30 7360 C 699.799 -1.27261 -4.08642 0
M  V30 7361 C 699.125 -0.597104 -5.31356 0
M  V30 7362 C 700.425 -2.63095 -4.51197 0
M  V30 7363 H 702.119 -1.74182 -2.43518 0
M  V30 7364 H 699.665 -0.838921 -1.17039 0
M  V30 7365 H 701.618 -0.0754444 -4.21332 0
M  V30 7366 H 700.342 0.645959 -3.20148 0
M  V30 7367 H 699.001 -1.48113 -3.35348 0
M  V30 7368 H 698.649 0.352293 -5.01765 0
M  V30 7369 H 698.349 -1.24734 -5.74208 0
M  V30 7370 H 699.873 -0.38384 -6.09392 0
M  V30 7371 H 701.287 -2.46214 -5.17737 0
M  V30 7372 H 699.684 -3.2429 -5.04932 0
M  V30 7373 H 700.754 -3.20793 -3.6362 0
M  V30 7374 N 702.098 1.27442 -0.927168 0
M  V30 7375 C 703.323 1.99036 -0.583042 0
M  V30 7376 C 703.748 1.68711 0.83176 0
M  V30 7377 O 703.106 0.927081 1.55804 0
M  V30 7378 C 703.154 3.51271 -0.814925 0
M  V30 7379 O 702.258 4.12226 0.119742 0
M  V30 7380 H 701.599 0.624883 -0.224538 0
M  V30 7381 H 704.129 1.62263 -1.24628 0
M  V30 7382 H 704.139 4.01411 -0.730282 0
M  V30 7383 H 702.814 3.72676 -1.84623 0
M  V30 7384 H 701.391 3.72897 -0.0147688 0
M  V30 7385 N 703.576 0.692616 1.41565 0
M  V30 7386 C 704.992 0.363878 1.55397 0
M  V30 7387 C 705.192 -1.1294 1.66874 0
M  V30 7388 O 704.248 -1.91517 1.64552 0
M  V30 7389 C 705.561 1.10982 2.7947 0
M  V30 7390 C 707.109 1.09387 2.93263 0
M  V30 7391 C 707.584 1.8215 4.20221 0
M  V30 7392 N 709.075 1.79105 4.27172 0
M  V30 7393 C 709.81 2.32247 5.2426 0
M  V30 7394 N 709.306 2.93847 6.27396 0
M  V30 7395 N 711.099 2.22519 5.1618 0
M  V30 7396 H 703.25 1.66116 1.3236 0
M  V30 7397 H 705.513 0.700848 0.63837 0
M  V30 7398 H 705.219 2.1647 2.77188 0
M  V30 7399 H 705.093 0.686492 3.709 0
M  V30 7400 H 707.48 0.0472638 2.95062 0
M  V30 7401 H 707.561 1.55623 2.03015 0
M  V30 7402 H 707.205 2.86789 4.19183 0
M  V30 7403 H 707.135 1.33351 5.09436 0
M  V30 7404 H 709.626 1.34191 3.53272 0
M  V30 7405 H 709.939 3.31972 6.97864 0
M  V30 7406 H 708.284 2.97924 6.27906 0
M  V30 7407 H 711.475 1.7407 4.34531 0
M  V30 7408 H 711.648 2.64239 5.91677 0
M  V30 7409 N 705.054 -1.51416 0.437162 0
M  V30 7410 C 705.984 -2.30631 -0.364922 0
M  V30 7411 C 706.965 -1.36037 -1.02118 0
M  V30 7412 O 708.15 -1.64956 -1.02485 0
M  V30 7413 C 705.28 -3.1482 -1.46648 0
M  V30 7414 C 704.234 -4.17691 -0.933717 0
M  V30 7415 C 703.56 -4.904 -2.13101 0
M  V30 7416 C 704.86 -5.2229 0.0317201 0
M  V30 7417 H 706.554 -2.97932 0.29614 0
M  V30 7418 H 704.1 -1.4328 0.143865 0
M  V30 7419 H 706.053 -3.69017 -2.03481 0
M  V30 7420 H 704.777 -2.4534 -2.15583 0
M  V30 7421 H 703.436 -3.64545 -0.387602 0
M  V30 7422 H 703.084 -4.17423 -2.80654 0
M  V30 7423 H 702.784 -5.59962 -1.78092 0
M  V30 7424 H 704.308 -5.4742 -2.70487 0
M  V30 7425 H 705.722 -5.7156 -0.446302 0
M  V30 7426 H 704.119 -5.99378 0.29437 0
M  V30 7427 H 705.189 -4.75131 0.968447 0
M  V30 7428 N 706.532 -0.168513 -1.56696 0
M  V30 7429 C 707.78 0.476216 -1.96409 0
M  V30 7430 C 708.101 1.63968 -1.05544 0
M  V30 7431 O 707.371 1.95525 -0.121235 0
M  V30 7432 H 705.951 0.178921 -0.725256 0
M  V30 7433 H 708.613 -0.249042 -1.93302 0
M  V30 7434 H 707.709 0.838094 -3.00637 0
M  V30 7435 N 708.01 1.57248 0.105221 0
M  V30 7436 C 709.256 1.85845 0.811753 0
M  V30 7437 C 709.589 0.756219 1.78871 0
M  V30 7438 O 708.864 -0.236736 1.93054 0
M  V30 7439 C 709.147 3.25059 1.54947 0
M  V30 7440 C 709 4.45898 0.591185 0
M  V30 7441 C 710.319 3.6203 2.50245 0
M  V30 7442 H 707.438 0.675973 0.293649 0
M  V30 7443 H 710.08 1.89849 0.0756269 0
M  V30 7444 H 708.23 3.21776 2.17698 0
M  V30 7445 H 709.902 4.61291 -0.0285352 0
M  V30 7446 H 708.145 4.33693 -0.0962343 0
M  V30 7447 H 708.816 5.40009 1.1443 0
M  V30 7448 H 711.292 3.66192 1.97593 0
M  V30 7449 H 710.168 4.60389 2.98886 0
M  V30 7450 H 710.429 2.90176 3.33542 0
M  V30 7451 O 709.527 -0.249352 1.59563 0
M  V30 7452 H 710.218 -0.892778 1.71899 0
M  V30 END ATOM
M  V30 BEGIN BOND
M  V30 END BOND
M  V30 END CTAB
M  END
$$$$
