drugbank_target|P12532 Creatine kinase U-type, mitochondrial (DB00148; DB13191)
 OpenBabel12092119253D

  0  0  0     0  0            999 V3000
M  V30 BEGIN CTAB
M  V30 COUNTS 6618 6688 0 0 0
M  V30 BEGIN ATOM
M  V30 1 H -0.908 1.98254 -0.117106 0
M  V30 2 N 0 1.576 0 0
M  V30 3 C 0.933 2.03868 1.02534 0
M  V30 4 C 1.911 0.928543 1.3348 0
M  V30 5 O 3.095 1.19667 1.45644 0
M  V30 6 C 0.222 2.43627 2.35294 0
M  V30 7 C -0.732 3.65373 2.2001 0
M  V30 8 S 0.101 5.13292 1.52614 0
M  V30 9 C 1.257 5.56322 2.86805 0
M  V30 10 H 1.49 2.90518 0.631377 0
M  V30 11 H -0.977 1.52953 0.210867 0
M  V30 12 H 0.981 2.67203 3.11629 0
M  V30 13 H -0.358 1.57376 2.7183 0
M  V30 14 H -1.165 3.90944 3.18086 0
M  V30 15 H -1.563 3.418 1.51819 0
M  V30 16 H 0.729 5.58782 3.83104 0
M  V30 17 H 1.672 6.56266 2.65933 0
M  V30 18 H 2.08 4.83886 2.90714 0
M  V30 19 N 1.4781 -0.272755 1.55222 0
M  V30 20 C 2.4411 -1.32041 1.87344 0
M  V30 21 C 3.4411 -1.42342 0.74803 0
M  V30 22 O 4.6311 -1.41488 1.0162 0
M  V30 23 C 1.7631 -2.70173 2.07893 0
M  V30 24 H 2.9561 -1.04789 2.80997 0
M  V30 25 H 0.5091 -0.51083 1.47717 0
M  V30 26 H 1.2441 -3.02605 1.16622 0
M  V30 27 H 1.0291 -2.64082 2.89833 0
M  V30 28 H 2.5191 -3.45869 2.34017 0
M  V30 29 N 2.9562 -1.48159 -0.537278 0
M  V30 30 C 4.2042 -1.55497 -1.29094 0
M  V30 31 C 4.5252 -0.227454 -1.93669 0
M  V30 32 O 3.7952 0.750386 -1.80959 0
M  V30 33 H 2.3752 -0.572832 -0.47945 0
M  V30 34 H 5.0372 -1.84579 -0.625818 0
M  V30 35 H 4.1332 -2.33216 -2.07405 0
M  V30 36 N 4.4343 0.785586 -1.36625 0
M  V30 37 C 5.8453 1.36101 -1.27803 0
M  V30 38 C 6.1963 1.96035 0.0804875 0
M  V30 39 O 5.3213 1.92834 0.982042 0
M  V30 40 C 5.9163 2.47442 -2.31426 0
M  V30 41 C 4.4753 3.00789 -2.26281 0
M  V30 42 C 3.6223 1.73896 -2.15999 0
M  V30 43 H 6.5733 0.586928 -1.47448 0
M  V30 44 H 6.5943 3.2656 -1.95291 0
M  V30 45 H 6.1063 2.03791 -3.30289 0
M  V30 46 H 4.2073 3.48851 -1.30896 0
M  V30 47 H 4.3203 3.57343 -3.19128 0
M  V30 48 H 2.6843 1.9628 -1.62316 0
M  V30 49 H 3.4673 1.32368 -3.16755 0
M  V30 50 N 5.9124 1.20967 1.01018 0
M  V30 51 C 7.1594 1.02374 1.74716 0
M  V30 52 C 7.4874 -0.443375 1.89379 0
M  V30 53 O 6.7424 -1.34535 1.42123 0
M  V30 54 C 7.0414 1.65997 3.16512 0
M  V30 55 C 6.7074 3.15831 3.2181 0
M  V30 56 C 5.3694 3.56719 3.22963 0
M  V30 57 C 7.7214 4.11816 3.19464 0
M  V30 58 C 5.0494 4.92107 3.19449 0
M  V30 59 C 7.4014 5.47158 3.17491 0
M  V30 60 C 6.0654 5.87451 3.16951 0
M  V30 61 H 5.3354 0.374614 0.639332 0
M  V30 62 H 7.9824 1.50485 1.18434 0
M  V30 63 H 6.2874 1.10166 3.75993 0
M  V30 64 H 7.9844 1.49119 3.72242 0
M  V30 65 H 4.5744 2.83263 3.21652 0
M  V30 66 H 8.7584 3.81257 3.17737 0
M  V30 67 H 4.0144 5.22579 3.17366 0
M  V30 68 H 8.1884 6.21274 3.14629 0
M  V30 69 H 5.8154 6.92329 3.13983 0
M  V30 70 N 7.3905 -1.2043 1.01659 0
M  V30 71 C 8.6155 -1.94318 0.724942 0
M  V30 72 C 9.0405 -1.74266 -0.708034 0
M  V30 73 O 8.3985 -1.03694 -1.48719 0
M  V30 74 C 8.4465 -3.44486 1.06591 0
M  V30 75 O 7.5505 -4.12017 0.177599 0
M  V30 76 H 6.8915 -0.60708 0.26898 0
M  V30 77 H 9.4215 -1.52861 1.35995 0
M  V30 78 H 9.4315 -3.95106 1.01762 0
M  V30 79 H 8.1065 -3.58404 2.10997 0
M  V30 80 H 6.6835 -3.71821 0.283421 0
M  V30 81 N 8.8686 -0.792821 -1.36206 0
M  V30 82 C 10.2846 -0.474903 -1.52371 0
M  V30 83 C 10.4846 1.00622 -1.74578 0
M  V30 84 O 9.5406 1.79162 -1.77924 0
M  V30 85 C 10.8536 -1.3083 -2.70747 0
M  V30 86 C 12.4016 -1.30234 -2.84619 0
M  V30 87 C 12.8766 -2.11956 -4.06004 0
M  V30 88 N 14.3676 -2.09419 -4.13156 0
M  V30 89 C 15.1026 -2.69419 -5.06163 0
M  V30 90 N 14.5986 -3.3829 -6.04592 0
M  V30 91 N 16.3916 -2.59134 -4.98804 0
M  V30 92 H 8.5426 -1.75222 -1.20046 0
M  V30 93 H 10.8056 -0.745024 -0.586211 0
M  V30 94 H 10.5116 -2.35881 -2.6087 0
M  V30 95 H 10.3856 -0.95196 -3.6499 0
M  V30 96 H 12.7726 -0.259748 -2.93955 0
M  V30 97 H 12.8536 -1.69847 -1.91274 0
M  V30 98 H 12.4976 -3.16248 -3.97429 0
M  V30 99 H 12.4276 -1.69711 -4.98503 0
M  V30 100 H 14.9186 -1.59297 -3.42685 0
M  V30 101 H 15.2316 -3.81394 -6.7213 0
M  V30 102 H 13.5766 -3.42393 -6.04807 0
M  V30 103 H 16.7676 -2.04927 -4.20859 0
M  V30 104 H 16.9406 -3.06185 -5.711 0
M  V30 105 N 10.3467 1.47872 -0.545128 0
M  V30 106 C 11.2767 2.32661 0.197793 0
M  V30 107 C 12.2577 1.43041 0.920504 0
M  V30 108 O 13.4427 1.71912 0.90333 0
M  V30 109 C 10.5727 3.24569 1.23582 0
M  V30 110 C 9.5267 4.23333 0.630323 0
M  V30 111 C 8.8527 5.0448 1.77211 0
M  V30 112 C 10.1527 5.20704 -0.407974 0
M  V30 113 H 11.8467 2.95024 -0.510045 0
M  V30 114 H 9.3927 1.4187 -0.246731 0
M  V30 115 H 11.3457 3.8272 1.76362 0
M  V30 116 H 10.0697 2.60236 1.97344 0
M  V30 117 H 8.7287 3.6639 0.123922 0
M  V30 118 H 8.3767 4.36561 2.49847 0
M  V30 119 H 8.0767 5.71339 1.37281 0
M  V30 120 H 9.6007 5.65487 2.3034 0
M  V30 121 H 11.0147 5.7329 0.033305 0
M  V30 122 H 9.4117 5.95699 -0.725486 0
M  V30 123 H 10.4817 4.66917 -1.30828 0
M  V30 124 N 11.8248 0.280983 1.55075 0
M  V30 125 C 12.7548 -0.597469 2.25727 0
M  V30 126 C 13.7358 -1.15417 1.24952 0
M  V30 127 O 14.9208 -1.18722 1.53684 0
M  V30 128 C 12.0508 -1.7789 2.98283 0
M  V30 129 C 11.0048 -1.35347 4.06036 0
M  V30 130 C 10.3308 -2.61846 4.66198 0
M  V30 131 C 11.6308 -0.499354 5.19907 0
M  V30 132 H 13.3248 -0.00824265 2.99399 0
M  V30 133 H 10.8708 -0.0025244 1.44 0
M  V30 134 H 12.8238 -2.39937 3.46422 0
M  V30 135 H 11.5478 -2.39405 2.22155 0
M  V30 136 H 10.2068 -0.756156 3.58717 0
M  V30 137 H 9.8548 -3.21632 3.86732 0
M  V30 138 H 9.5548 -2.3409 5.38958 0
M  V30 139 H 11.0788 -3.24732 5.1709 0
M  V30 140 H 12.4928 -1.02498 5.64063 0
M  V30 141 H 10.8898 -0.316424 5.99265 0
M  V30 142 H 11.9598 0.480459 4.82514 0
M  V30 143 N 13.3029 -1.57598 0.00835791 0
M  V30 144 C 14.5279 -1.95617 -0.689103 0
M  V30 145 C 14.9529 -0.883753 -1.66046 0
M  V30 146 O 14.3109 0.157352 -1.80616 0
M  V30 147 C 14.3589 -3.32736 -1.38994 0
M  V30 148 O 13.4629 -3.27631 -2.50463 0
M  V30 149 H 12.8039 -0.638379 -0.182668 0
M  V30 150 H 15.3339 -2.045 0.064036 0
M  V30 151 H 15.3439 -3.68494 -1.75147 0
M  V30 152 H 14.0189 -4.1034 -0.677778 0
M  V30 153 H 12.5959 -3.03561 -2.16576 0
M  V30 154 N 14.781 0.264519 -1.55364 0
M  V30 155 C 15.744 1.31046 -1.88042 0
M  V30 156 C 16.744 1.41943 -0.755569 0
M  V30 157 O 17.934 1.40947 -1.02369 0
M  V30 158 C 15.066 2.69067 -2.09323 0
M  V30 159 H 16.259 1.03297 -2.81549 0
M  V30 160 H 13.812 0.502989 -1.47986 0
M  V30 161 H 14.547 3.01982 -1.18226 0
M  V30 162 H 14.332 2.62542 -2.91229 0
M  V30 163 H 15.822 3.44623 -2.35848 0
M  V30 164 N 16.2591 1.48442 0.529413 0
M  V30 165 C 17.6751 1.34575 0.858004 0
M  V30 166 C 17.8751 0.3572 1.98309 0
M  V30 167 O 16.9311 -0.221379 2.51528 0
M  V30 168 C 18.2441 2.74617 1.22499 0
M  V30 169 C 19.7921 2.83109 1.33484 0
M  V30 170 C 20.2671 4.23854 1.73526 0
M  V30 171 N 21.7581 4.2653 1.80628 0
M  V30 172 C 22.4931 5.32372 2.12997 0
M  V30 173 N 21.9891 6.48491 2.43786 0
M  V30 174 N 23.7821 5.19766 2.14008 0
M  V30 175 H 15.9331 2.1133 -0.212925 0
M  V30 176 H 18.1961 0.947439 -0.0326199 0
M  V30 177 H 17.9021 3.4852 0.471905 0
M  V30 178 H 17.7761 3.08177 2.17501 0
M  V30 179 H 20.1631 2.09462 2.0787 0
M  V30 180 H 20.2441 2.53168 0.366027 0
M  V30 181 H 19.8881 4.98018 0.997013 0
M  V30 182 H 19.8181 4.5124 2.71459 0
M  V30 183 H 22.3091 3.42772 1.59108 0
M  V30 184 H 22.6221 7.24993 2.67592 0
M  V30 185 H 20.9671 6.51765 2.41304 0
M  V30 186 H 24.1581 4.28066 1.89412 0
M  V30 187 H 24.3311 6.02354 2.38902 0
M  V30 188 N 17.7372 -0.778329 1.37039 0
M  V30 189 C 19.1482 -1.35421 1.28523 0
M  V30 190 C 19.4992 -1.96075 -0.0700901 0
M  V30 191 O 18.6242 -1.93352 -0.971801 0
M  V30 192 C 19.2192 -2.46211 2.32735 0
M  V30 193 C 17.7782 -2.99585 2.27873 0
M  V30 194 C 16.9252 -1.72748 2.16918 0
M  V30 195 H 19.8762 -0.5791 1.47757 0
M  V30 196 H 19.8972 -3.2552 1.9702 0
M  V30 197 H 19.4092 -2.02036 3.31365 0
M  V30 198 H 17.5102 -3.48152 1.32745 0
M  V30 199 H 17.6232 -3.55646 3.21018 0
M  V30 200 H 15.9872 -1.95416 1.63354 0
M  V30 201 H 16.7702 -1.30686 3.17452 0
M  V30 202 N 19.2153 -1.21501 -1.00376 0
M  V30 203 C 20.4633 -1.03095 -1.73827 0
M  V30 204 C 20.7843 0.436341 -1.90055 0
M  V30 205 O 20.0543 1.31466 -1.45236 0
M  V30 206 H 18.6343 -0.378487 -0.644016 0
M  V30 207 H 21.2963 -1.52831 -1.20949 0
M  V30 208 H 20.3923 -1.49991 -2.73695 0
M  V30 209 N 20.6934 1.19889 -1.02296 0
M  V30 210 C 21.6234 2.25141 -0.619174 0
M  V30 211 C 22.6044 1.66051 0.368915 0
M  V30 212 O 23.7894 1.92546 0.252941 0
M  V30 213 C 20.9194 3.4728 0.0368783 0
M  V30 214 C 19.8734 4.19005 -0.872865 0
M  V30 215 C 19.1994 5.34637 -0.0822402 0
M  V30 216 C 20.4994 4.74452 -2.18387 0
M  V30 217 H 22.1934 2.59171 -1.49903 0
M  V30 218 H 19.7394 1.24579 -0.722222 0
M  V30 219 H 21.6924 4.20098 0.330958 0
M  V30 220 H 20.4164 3.12433 0.95149 0
M  V30 221 H 19.0754 3.48061 -1.15105 0
M  V30 222 H 18.7234 4.96034 0.83422 0
M  V30 223 H 18.4234 5.83557 -0.688149 0
M  V30 224 H 19.9474 6.10255 0.205238 0
M  V30 225 H 21.3614 5.39055 -1.95172 0
M  V30 226 H 19.7584 5.33834 -2.74119 0
M  V30 227 H 20.8284 3.92844 -2.84257 0
M  V30 228 N 22.1715 0.800033 1.35784 0
M  V30 229 C 23.5875 0.482977 1.52117 0
M  V30 230 C 23.7875 -0.996948 1.75109 0
M  V30 231 O 22.8435 -1.78216 1.78872 0
M  V30 232 C 24.1565 1.32264 2.70049 0
M  V30 233 C 25.7045 1.31742 2.83924 0
M  V30 234 C 26.1795 2.14106 4.04874 0
M  V30 235 N 27.6705 2.11607 4.12039 0
M  V30 236 C 28.4055 2.72099 5.04727 0
M  V30 237 N 27.9015 3.41492 6.02789 0
M  V30 238 N 29.6945 2.61776 4.97423 0
M  V30 239 H 21.8455 1.75856 1.19115 0
M  V30 240 H 24.1085 0.748122 0.582252 0
M  V30 241 H 23.8145 2.37261 2.59616 0
M  V30 242 H 23.6885 0.971303 3.6448 0
M  V30 243 H 26.0755 0.275333 2.93813 0
M  V30 244 H 26.1565 1.70859 1.9037 0
M  V30 245 H 25.8005 3.18351 3.95746 0
M  V30 246 H 25.7305 1.72353 4.97596 0
M  V30 247 H 28.2215 1.61112 3.41835 0
M  V30 248 H 28.5345 3.84953 6.70098 0
M  V30 249 H 26.8795 3.45596 6.02983 0
M  V30 250 H 30.0705 2.07157 4.19766 0
M  V30 251 H 30.2435 3.0921 5.69468 0
M  V30 252 N 23.6496 -1.47581 0.552962 0
M  V30 253 C 24.5796 -2.32762 -0.185451 0
M  V30 254 C 25.5606 -1.43527 -0.912905 0
M  V30 255 O 26.7456 -1.72388 -0.894201 0
M  V30 256 C 23.8756 -3.25219 -1.21859 0
M  V30 257 C 22.8296 -4.23661 -0.607864 0
M  V30 258 C 22.1556 -5.05413 -1.74533 0
M  V30 259 C 23.4556 -5.20481 0.435582 0
M  V30 260 H 25.1496 -2.94749 0.525684 0
M  V30 261 H 22.6956 -1.41738 0.254251 0
M  V30 262 H 24.6486 -3.8365 -1.7433 0
M  V30 263 H 23.3726 -2.61279 -1.95961 0
M  V30 264 H 22.0316 -3.66451 -0.104489 0
M  V30 265 H 21.6796 -4.3788 -2.47529 0
M  V30 266 H 21.3796 -5.72059 -1.34249 0
M  V30 267 H 22.9036 -5.66701 -2.27338 0
M  V30 268 H 24.3176 -5.733 -0.00290157 0
M  V30 269 H 22.7146 -5.95305 0.757067 0
M  V30 270 H 23.7846 -4.66217 1.33303 0
M  V30 271 N 25.1277 -0.289203 -1.54924 0
M  V30 272 C 26.0577 0.58549 -2.2604 0
M  V30 273 C 27.0387 1.14753 -1.25562 0
M  V30 274 O 28.2237 1.17906 -1.54311 0
M  V30 275 C 25.3537 1.76305 -2.99222 0
M  V30 276 C 24.3077 1.33191 -4.06748 0
M  V30 277 C 23.6337 2.5937 -4.6758 0
M  V30 278 C 24.9337 0.471775 -5.20165 0
M  V30 279 H 26.6277 -0.00763532 -2.99399 0
M  V30 280 H 24.1737 -0.00511229 -1.43999 0
M  V30 281 H 26.1267 2.38097 -3.47689 0
M  V30 282 H 24.8507 2.38223 -2.23422 0
M  V30 283 H 23.5097 0.737121 -3.59113 0
M  V30 284 H 23.1577 3.19576 -3.88433 0
M  V30 285 H 22.8577 2.31228 -5.40192 0
M  V30 286 H 24.3817 3.21985 -5.18804 0
M  V30 287 H 25.7957 0.995056 -5.64599 0
M  V30 288 H 24.1927 0.284639 -5.99425 0
M  V30 289 H 25.2627 -0.506041 -4.82252 0
M  V30 290 N 26.6058 1.57591 -0.0167156 0
M  V30 291 C 27.5688 2.08393 0.954204 0
M  V30 292 C 28.5688 0.996531 1.26198 0
M  V30 293 O 29.7588 1.25858 1.20438 0
M  V30 294 C 26.8908 2.5394 2.27436 0
M  V30 295 H 28.0838 2.95455 0.514451 0
M  V30 296 H 25.6368 1.54582 0.231089 0
M  V30 297 H 26.3718 1.70171 2.76066 0
M  V30 298 H 26.1568 3.33371 2.06412 0
M  V30 299 H 27.6468 2.93512 2.97053 0
M  V30 300 N 28.0839 -0.256276 1.55502 0
M  V30 301 C 29.0139 -1.32102 1.92539 0
M  V30 302 C 29.9949 -1.50684 0.789194 0
M  V30 303 O 31.1799 -1.63449 1.04872 0
M  V30 304 C 28.3099 -2.67752 2.21192 0
M  V30 305 C 27.2639 -2.63878 3.36975 0
M  V30 306 C 26.5899 -4.03236 3.51147 0
M  V30 307 C 27.8899 -2.21682 4.72921 0
M  V30 308 H 29.5839 -1.01351 2.81724 0
M  V30 309 H 27.1299 -0.486105 1.35547 0
M  V30 310 H 29.0829 -3.42365 2.45691 0
M  V30 311 H 27.8069 -3.0012 1.28824 0
M  V30 312 H 26.4659 -1.91722 3.12471 0
M  V30 313 H 26.1139 -4.32854 2.56216 0
M  V30 314 H 25.8139 -4.01535 4.29003 0
M  V30 315 H 27.3379 -4.79563 3.77957 0
M  V30 316 H 28.7519 -2.86023 4.96854 0
M  V30 317 H 27.1489 -2.3111 5.53812 0
M  V30 318 H 28.2189 -1.16833 4.70615 0
M  V30 319 N 29.562 -1.4872 -0.521534 0
M  V30 320 C 30.525 -1.63379 -1.60748 0
M  V30 321 C 31.525 -0.50661 -1.52611 0
M  V30 322 O 32.715 -0.772601 -1.5613 0
M  V30 323 C 29.847 -1.61192 -3.00383 0
M  V30 324 H 31.04 -2.60217 -1.49087 0
M  V30 325 H 28.593 -1.37444 -0.744235 0
M  V30 326 H 29.328 -0.65863 -3.17541 0
M  V30 327 H 29.113 -2.43032 -3.07698 0
M  V30 328 H 30.603 -1.7466 -3.7932 0
M  V30 329 N 31.0401 0.771051 -1.3745 0
M  V30 330 C 32.2881 1.52661 -1.32435 0
M  V30 331 C 32.6091 1.9479 0.0905024 0
M  V30 332 O 31.8791 1.66348 1.03466 0
M  V30 333 H 30.4591 0.566218 -0.487244 0
M  V30 334 H 33.1211 0.917636 -1.71946 0
M  V30 335 H 32.2171 2.42568 -1.96385 0
M  V30 336 N 32.5182 1.22032 0.997298 0
M  V30 337 C 33.4812 0.987909 2.06816 0
M  V30 338 C 34.4812 -0.0440084 1.6074 0
M  V30 339 O 35.6712 0.194053 1.73116 0
M  V30 340 C 32.8032 0.49132 3.37341 0
M  V30 341 H 33.9962 1.93803 2.28868 0
M  V30 342 H 31.5492 1.03838 1.16822 0
M  V30 343 H 32.2842 -0.463364 3.20973 0
M  V30 344 H 32.0692 1.23575 3.72118 0
M  V30 345 H 33.5592 0.348824 4.16141 0
M  V30 346 N 33.9963 -1.19345 1.0293 0
M  V30 347 C 35.2443 -1.88665 0.724574 0
M  V30 348 C 35.5653 -1.80036 -0.749144 0
M  V30 349 O 34.8353 -1.2111 -1.53978 0
M  V30 350 H 33.4153 -0.698406 0.265025 0
M  V30 351 H 36.0773 -1.44885 1.30362 0
M  V30 352 H 35.1733 -2.94987 1.01926 0
M  V30 353 N 35.4744 -0.807222 -1.35358 0
M  V30 354 C 36.6994 -0.399309 -2.0352 0
M  V30 355 C 37.1244 0.981986 -1.60433 0
M  V30 356 O 36.4824 1.63601 -0.781299 0
M  V30 357 C 36.5304 -0.491552 -3.57234 0
M  V30 358 O 35.6344 0.494754 -4.09421 0
M  V30 359 H 34.9754 -0.166682 -0.642739 0
M  V30 360 H 37.5054 -1.09328 -1.72941 0
M  V30 361 H 37.5154 -0.361588 -4.06395 0
M  V30 362 H 36.1904 -1.49907 -3.87944 0
M  V30 363 H 34.7674 0.324977 -3.71481 0
M  V30 364 N 36.9525 1.47285 -0.560781 0
M  V30 365 C 37.8825 2.32857 0.173105 0
M  V30 366 C 38.8635 1.44009 0.905281 0
M  V30 367 O 40.0485 1.7286 0.885046 0
M  V30 368 C 37.1785 3.25861 1.20133 0
M  V30 369 C 36.1325 4.23978 0.585388 0
M  V30 370 C 35.4585 5.06332 1.7185 0
M  V30 371 C 36.7585 5.20242 -0.463178 0
M  V30 372 H 38.4525 2.94466 -0.541307 0
M  V30 373 H 35.9985 1.41601 -0.261764 0
M  V30 374 H 37.9515 3.84569 1.72293 0
M  V30 375 H 36.6755 2.62315 1.94573 0
M  V30 376 H 35.3345 3.66501 0.085054 0
M  V30 377 H 34.9825 4.39186 2.45203 0
M  V30 378 H 34.6825 5.72762 1.31213 0
M  V30 379 H 36.2065 5.67899 2.24329 0
M  V30 380 H 37.6205 5.73293 -0.027502 0
M  V30 381 H 36.0175 5.94896 -0.788627 0
M  V30 382 H 37.0875 4.65504 -1.35773 0
M  V30 383 N 38.4306 0.297415 1.54768 0
M  V30 384 C 39.3936 -0.567375 2.22066 0
M  V30 385 C 40.3936 -1.06409 1.20556 0
M  V30 386 O 41.5836 -0.960691 1.45315 0
M  V30 387 C 38.7156 -1.78517 2.90421 0
M  V30 388 H 39.9086 0.0205534 2.99893 0
M  V30 389 H 37.4616 0.0482163 1.56226 0
M  V30 390 H 38.1966 -2.41303 2.16664 0
M  V30 391 H 37.9816 -1.43669 3.64831 0
M  V30 392 H 39.4716 -2.39964 3.41771 0
M  V30 393 N 39.9087 -1.5758 0.0250728 0
M  V30 394 C 40.8717 -2.08896 -0.943139 0
M  V30 395 C 41.8717 -1.00321 -1.25668 0
M  V30 396 O 43.0617 -1.26495 -1.19769 0
M  V30 397 C 40.1937 -2.55143 -2.26086 0
M  V30 398 H 41.3867 -2.95723 -0.498775 0
M  V30 399 H 38.9397 -1.54703 -0.222888 0
M  V30 400 H 39.6747 -1.71633 -2.75159 0
M  V30 401 H 39.4597 -3.34461 -2.04641 0
M  V30 402 H 40.9497 -2.95083 -2.95492 0
M  V30 403 N 41.3868 0.248026 -1.55636 0
M  V30 404 C 42.6348 0.974295 -1.77065 0
M  V30 405 C 42.9558 1.85897 -0.588849 0
M  V30 406 O 42.2258 1.91868 0.395407 0
M  V30 407 H 40.8058 0.362733 -0.653019 0
M  V30 408 H 43.4678 0.266244 -1.93073 0
M  V30 409 H 42.5638 1.59667 -2.68166 0
M  V30 410 N 42.8649 1.48995 0.513639 0
M  V30 411 C 44.1119 1.57843 1.26854 0
M  V30 412 C 44.4399 0.259501 1.92761 0
M  V30 413 O 43.6949 -0.75159 1.80692 0
M  V30 414 C 43.9939 2.67756 2.36731 0
M  V30 415 C 43.6599 4.09669 1.88368 0
M  V30 416 C 42.3219 4.48291 1.74896 0
M  V30 417 C 44.6739 4.98537 1.52021 0
M  V30 418 C 42.0019 5.73568 1.23438 0
M  V30 419 C 44.3539 6.24319 1.0202 0
M  V30 420 C 43.0179 6.61783 0.871778 0
M  V30 421 H 42.2879 0.577587 0.464192 0
M  V30 422 H 44.9349 1.82778 0.571366 0
M  V30 423 H 43.2399 2.36743 3.12185 0
M  V30 424 H 44.9369 2.71813 2.9482 0
M  V30 425 H 41.5269 3.79176 1.99808 0
M  V30 426 H 45.7109 4.69363 1.61281 0
M  V30 427 H 40.9669 6.01304 1.10648 0
M  V30 428 H 45.1409 6.92566 0.729722 0
M  V30 429 H 42.7679 7.5874 0.470852 0
M  V30 430 N 44.343 -0.763751 1.37857 0
M  V30 431 C 45.273 -1.89103 1.36975 0
M  V30 432 C 46.254 -1.68439 0.237152 0
M  V30 433 O 47.439 -1.8918 0.438713 0
M  V30 434 C 44.569 -3.26496 1.18395 0
M  V30 435 C 43.523 -3.61741 2.28751 0
M  V30 436 C 42.849 -4.97762 1.95286 0
M  V30 437 C 44.149 -3.67665 3.70972 0
M  V30 438 H 45.843 -1.90099 2.31307 0
M  V30 439 H 43.389 -0.91319 1.11341 0
M  V30 440 H 45.342 -4.05003 1.16406 0
M  V30 441 H 44.066 -3.25955 0.205215 0
M  V30 442 H 42.725 -2.85547 2.29909 0
M  V30 443 H 42.373 -4.93769 0.959221 0
M  V30 444 H 42.073 -5.22313 2.69189 0
M  V30 445 H 43.597 -5.7866 1.94898 0
M  V30 446 H 45.011 -4.36307 3.719 0
M  V30 447 H 43.408 -4.03718 4.43995 0
M  V30 448 H 44.478 -2.68134 4.0402 0
M  V30 449 N 45.8211 -1.22559 -0.990812 0
M  V30 450 C 46.7511 -1.0218 -2.09956 0
M  V30 451 C 47.7321 0.0579394 -1.70001 0
M  V30 452 O 48.9171 -0.104684 -1.93918 0
M  V30 453 C 46.0471 -0.601023 -3.4206 0
M  V30 454 C 45.0011 -1.62694 -3.95872 0
M  V30 455 C 44.3271 -1.06193 -5.24049 0
M  V30 456 C 45.6271 -3.01743 -4.2632 0
M  V30 457 H 47.3211 -1.94916 -2.27262 0
M  V30 458 H 44.8671 -0.938566 -1.09211 0
M  V30 459 H 46.8201 -0.445561 -4.19038 0
M  V30 460 H 45.5441 0.362005 -3.24588 0
M  V30 461 H 44.2031 -1.77021 -3.21028 0
M  V30 462 H 43.8511 -0.0901903 -5.02919 0
M  V30 463 H 43.5511 -1.74732 -5.61019 0
M  V30 464 H 45.0751 -0.918092 -6.03658 0
M  V30 465 H 46.4891 -2.90777 -4.94087 0
M  V30 466 H 44.8861 -3.67425 -4.74467 0
M  V30 467 H 45.9561 -3.51518 -3.34011 0
M  V30 468 N 47.2992 1.18797 -1.03562 0
M  V30 469 C 48.7152 1.40671 -0.753917 0
M  V30 470 C 48.9152 1.9043 0.658686 0
M  V30 471 O 47.9712 2.08538 1.42366 0
M  V30 472 C 49.2842 2.41192 -1.79574 0
M  V30 473 C 50.8322 2.54928 -1.81606 0
M  V30 474 C 51.3072 3.58709 -2.84766 0
M  V30 475 N 52.7982 3.66212 -2.83625 0
M  V30 476 C 53.5332 4.46225 -3.60098 0
M  V30 477 N 53.0292 5.29888 -4.46308 0
M  V30 478 N 54.8222 4.40939 -3.4861 0
M  V30 479 H 46.9732 0.848221 -1.94728 0
M  V30 480 H 49.2362 0.435081 -0.842264 0
M  V30 481 H 48.9422 2.11669 -2.80872 0
M  V30 482 H 48.8162 3.40467 -1.62365 0
M  V30 483 H 51.2032 2.83771 -0.809817 0
M  V30 484 H 51.2842 1.55784 -2.02891 0
M  V30 485 H 50.9282 3.30607 -3.85566 0
M  V30 486 H 50.8582 4.57519 -2.60737 0
M  V30 487 H 53.3492 3.06466 -2.21105 0
M  V30 488 H 53.6622 5.88078 -5.01382 0
M  V30 489 H 52.0072 5.29326 -4.50377 0
M  V30 490 H 55.1982 3.74624 -2.80668 0
M  V30 491 H 55.3712 5.03056 -4.08459 0
M  V30 492 N 48.7773 0.814389 1.34928 0
M  V30 493 C 50.1883 0.458364 1.80986 0
M  V30 494 C 50.5393 -1.02042 1.67577 0
M  V30 495 O 49.6643 -1.79352 1.21086 0
M  V30 496 C 50.2593 0.825212 3.28597 0
M  V30 497 C 48.8183 0.521677 3.72767 0
M  V30 498 C 47.9653 1.04668 2.56788 0
M  V30 499 H 50.9163 1.00533 1.22795 0
M  V30 500 H 50.9373 0.12571 3.80292 0
M  V30 501 H 50.4493 1.90154 3.38324 0
M  V30 502 H 48.5503 -0.545589 3.68584 0
M  V30 503 H 48.6633 1.05977 4.67232 0
M  V30 504 H 47.0273 0.468622 2.50352 0
M  V30 505 H 47.8103 2.12927 2.6929 0
M  V30 506 N 50.2554 -1.46986 0.568584 0
M  V30 507 C 51.1654 -2.33942 -0.17555 0
M  V30 508 C 52.1814 -1.48891 -0.90041 0
M  V30 509 O 53.3574 -1.81794 -0.86676 0
M  V30 510 C 50.4224 -3.25811 -1.18524 0
M  V30 511 C 49.4834 -4.26757 -0.466582 0
M  V30 512 C 48.7164 -5.14236 -1.42817 0
M  V30 513 O 48.9394 -5.04379 -2.66379 0
M  V30 514 O 47.8734 -5.94412 -0.946453 0
M  V30 515 H 51.6994 -2.98896 0.538036 0
M  V30 516 H 49.2844 -1.4573 0.329097 0
M  V30 517 H 51.1664 -3.82527 -1.76779 0
M  V30 518 H 49.8414 -2.63471 -1.88055 0
M  V30 519 H 48.7484 -3.73769 0.157451 0
M  V30 520 H 50.0814 -4.91843 0.187485 0
M  V30 521 N 51.7335 -0.305618 -1.54608 0
M  V30 522 C 53.1445 0.186098 -1.8577 0
M  V30 523 C 53.4955 1.53058 -1.22751 0
M  V30 524 O 52.6205 2.09888 -0.526893 0
M  V30 525 C 53.2155 0.344449 -3.37044 0
M  V30 526 C 51.7745 0.780384 -3.68221 0
M  V30 527 C 50.9215 -0.108554 -2.77087 0
M  V30 528 H 53.8725 -0.526485 -1.49712 0
M  V30 529 H 53.8935 1.17828 -3.61796 0
M  V30 530 H 53.4055 -0.634235 -3.82883 0
M  V30 531 H 51.5065 1.76945 -3.27904 0
M  V30 532 H 51.6195 0.596572 -4.75371 0
M  V30 533 H 49.9835 0.412931 -2.5133 0
M  V30 534 H 50.7665 -1.08368 -3.25747 0
M  V30 535 N 53.2116 1.57565 -0.0334293 0
M  V30 536 C 54.4576 1.92262 0.645226 0
M  V30 537 C 54.7906 0.910543 1.71531 0
M  V30 538 O 54.0656 -0.066099 1.94388 0
M  V30 539 C 54.3486 3.37422 1.2577 0
M  V30 540 C 54.2016 4.49369 0.196891 0
M  V30 541 C 55.5206 3.82628 2.17449 0
M  V30 542 H 52.6396 0.699171 0.233085 0
M  V30 543 H 55.2816 1.89779 -0.0915694 0
M  V30 544 H 53.4316 3.39669 1.88566 0
M  V30 545 H 55.1036 4.59254 -0.433962 0
M  V30 546 H 53.3466 4.31168 -0.477137 0
M  V30 547 H 54.0176 5.47978 0.665124 0
M  V30 548 H 56.4936 3.82145 1.64634 0
M  V30 549 H 55.3696 4.84883 2.57254 0
M  V30 550 H 55.6306 3.18376 3.0674 0
M  V30 551 N 54.6897 -0.239769 1.55765 0
M  V30 552 C 56.1057 -0.588624 1.48349 0
M  V30 553 C 56.3057 -1.88005 0.72502 0
M  V30 554 O 55.3617 -2.51186 0.257269 0
M  V30 555 C 56.6747 -0.68474 2.928 0
M  V30 556 C 58.2227 -0.77659 3.03213 0
M  V30 557 C 58.6977 -0.904207 4.48986 0
M  V30 558 N 60.1887 -0.968896 4.52953 0
M  V30 559 C 60.9237 -1.08703 5.63002 0
M  V30 560 N 60.4197 -1.17026 6.82845 0
M  V30 561 N 62.2127 -1.12074 5.50814 0
M  V30 562 H 54.3637 0.607911 2.03515 0
M  V30 563 H 56.6267 0.21083 0.924259 0
M  V30 564 H 56.3327 0.194284 3.51163 0
M  V30 565 H 56.2067 -1.55435 3.43686 0
M  V30 566 H 58.5937 -1.64606 2.44926 0
M  V30 567 H 58.6747 0.118315 2.55526 0
M  V30 568 H 58.3187 -0.0392633 5.07885 0
M  V30 569 H 58.2487 -1.81426 4.9436 0
M  V30 570 H 60.7397 -0.915633 3.6664 0
M  V30 571 H 61.0527 -1.25966 7.62465 0
M  V30 572 H 59.3977 -1.13971 6.85591 0
M  V30 573 H 62.5887 -1.05226 4.5612 0
M  V30 574 H 62.7617 -1.20936 6.36615 0
M  V30 575 N 56.1678 -1.49265 -0.50573 0
M  V30 576 C 57.1308 -1.65075 -1.59006 0
M  V30 577 C 58.1308 -0.522768 -1.52065 0
M  V30 578 O 59.3208 -0.789117 -1.55302 0
M  V30 579 C 56.4528 -1.64369 -2.98656 0
M  V30 580 H 57.6458 -2.61784 -1.46319 0
M  V30 581 H 55.1988 -1.38226 -0.729616 0
M  V30 582 H 55.9338 -0.692272 -3.16825 0
M  V30 583 H 55.7188 -2.46282 -3.05103 0
M  V30 584 H 57.2088 -1.78674 -3.77446 0
M  V30 585 N 57.6459 0.756429 -1.3826 0
M  V30 586 C 58.6089 1.85176 -1.35065 0
M  V30 587 C 59.6089 1.58818 -0.251703 0
M  V30 588 O 60.7989 1.66615 -0.508433 0
M  V30 589 C 57.9309 3.22596 -1.10201 0
M  V30 590 H 59.1239 1.89417 -2.3251 0
M  V30 591 H 56.6769 0.95783 -1.23512 0
M  V30 592 H 57.4119 3.24025 -0.133504 0
M  V30 593 H 57.1969 3.43122 -1.89762 0
M  V30 594 H 58.6869 4.02673 -1.10654 0
M  V30 595 N 59.124 1.23083 0.984299 0
M  V30 596 C 60.349 1.088 1.76571 0
M  V30 597 C 60.774 -0.356657 1.84688 0
M  V30 598 O 60.132 -1.25788 1.30565 0
M  V30 599 C 60.18 1.71371 3.17277 0
M  V30 600 O 59.284 0.973213 4.00752 0
M  V30 601 H 58.625 0.381599 0.543395 0
M  V30 602 H 61.155 1.63057 1.23587 0
M  V30 603 H 61.165 1.76449 3.67872 0
M  V30 604 H 59.84 2.76493 3.10684 0
M  V30 605 H 58.417 0.999078 3.59267 0
M  V30 606 N 60.6021 -1.18246 1.0419 0
M  V30 607 C 61.5121 -2.25574 0.644476 0
M  V30 608 C 62.5281 -1.70845 -0.329826 0
M  V30 609 O 63.7041 -2.00554 -0.184443 0
M  V30 610 C 60.7691 -3.46697 0.014877 0
M  V30 611 C 59.8301 -4.16554 1.03834 0
M  V30 612 C 59.0631 -5.31894 0.438692 0
M  V30 613 O 59.2861 -5.65385 -0.754752 0
M  V30 614 O 58.2201 -5.90459 1.168 0
M  V30 615 H 62.0461 -2.61836 1.53869 0
M  V30 616 H 59.6311 -1.25352 0.812854 0
M  V30 617 H 61.5131 -4.20062 -0.335538 0
M  V30 618 H 60.1881 -3.12255 -0.853138 0
M  V30 619 H 59.0951 -3.45251 1.44057 0
M  V30 620 H 60.4281 -4.54998 1.87716 0
M  V30 621 N 62.0802 -0.821533 -1.34494 0
M  V30 622 C 63.4962 -0.507117 -1.51329 0
M  V30 623 C 63.6962 0.968964 -1.76673 0
M  V30 624 O 62.7522 1.75348 -1.81685 0
M  V30 625 C 64.0652 -1.36544 -2.67911 0
M  V30 626 C 65.6132 -1.36242 -2.81793 0
M  V30 627 C 66.0882 -2.2052 -4.01416 0
M  V30 628 N 67.5792 -2.18136 -4.08621 0
M  V30 629 C 68.3142 -2.80095 -5.00334 0
M  V30 630 N 67.8102 -3.51039 -5.9728 0
M  V30 631 N 69.6032 -2.69656 -4.93196 0
M  V30 632 H 61.7542 -1.77729 -1.16302 0
M  V30 633 H 64.0172 -0.757291 -0.570276 0
M  V30 634 H 63.7232 -2.41361 -2.55808 0
M  V30 635 H 63.5972 -1.02917 -3.62888 0
M  V30 636 H 65.9842 -0.322041 -2.93338 0
M  V30 637 H 66.0652 -1.73866 -1.87628 0
M  V30 638 H 65.7092 -3.24607 -3.90631 0
M  V30 639 H 65.6392 -1.80247 -4.94791 0
M  V30 640 H 68.1302 -1.6653 -3.39229 0
M  V30 641 H 68.4432 -3.95565 -6.63889 0
M  V30 642 H 66.7882 -3.55145 -5.97409 0
M  V30 643 H 69.9792 -2.13808 -4.16418 0
M  V30 644 H 70.1522 -3.1823 -5.64476 0
M  V30 645 N 63.5583 1.46682 -0.576371 0
M  V30 646 C 64.9743 1.57822 -0.237562 0
M  V30 647 C 65.1743 1.57237 1.26011 0
M  V30 648 O 64.2303 1.48596 2.04146 0
M  V30 649 C 65.5433 2.87499 -0.881168 0
M  V30 650 C 67.0913 3.01119 -0.85417 0
M  V30 651 C 67.5663 4.33524 -1.4772 0
M  V30 652 N 69.0573 4.40207 -1.44125 0
M  V30 653 C 69.7923 5.4126 -1.89276 0
M  V30 654 N 69.2883 6.49021 -2.42371 0
M  V30 655 N 71.0813 5.32422 -1.80231 0
M  V30 656 H 63.2323 1.45306 -1.54919 0
M  V30 657 H 65.4953 0.692733 -0.647167 0
M  V30 658 H 65.2013 2.9372 -1.93447 0
M  V30 659 H 65.0753 3.75224 -0.385592 0
M  V30 660 H 67.4623 2.94485 0.190491 0
M  V30 661 H 67.5433 2.14887 -1.3877 0
M  V30 662 H 67.1873 4.40916 -2.52103 0
M  V30 663 H 67.1173 5.1852 -0.918947 0
M  V30 664 H 69.6083 3.62931 -1.05307 0
M  V30 665 H 69.9213 7.2233 -2.74698 0
M  V30 666 H 68.2663 6.49858 -2.46393 0
M  V30 667 H 71.4573 4.47137 -1.38514 0
M  V30 668 H 71.6303 6.11034 -2.15735 0
M  V30 669 N 65.0364 0.313813 1.54444 0
M  V30 670 C 66.4524 -0.0391619 1.59552 0
M  V30 671 C 66.6524 -1.51322 1.33056 0
M  V30 672 O 65.7084 -2.26782 1.11022 0
M  V30 673 C 67.0214 0.370302 2.98411 0
M  V30 674 C 68.5694 0.320139 3.11358 0
M  V30 675 C 69.0444 0.704617 4.52547 0
M  V30 676 N 70.5354 0.657645 4.58508 0
M  V30 677 C 71.2704 0.927453 5.6585 0
M  V30 678 N 70.7664 1.26389 6.81174 0
M  V30 679 N 72.5594 0.853662 5.5558 0
M  V30 680 H 64.7104 1.27433 1.69925 0
M  V30 681 H 66.9734 0.517511 0.794284 0
M  V30 682 H 66.6794 1.39694 3.22767 0
M  V30 683 H 66.5534 -0.269619 3.76235 0
M  V30 684 H 68.9404 -0.697275 2.86744 0
M  V30 685 H 69.0214 0.99486 2.35661 0
M  V30 686 H 68.6654 1.7199 4.77893 0
M  V30 687 H 68.5954 0.00768843 5.26599 0
M  V30 688 H 71.0864 0.409067 3.75679 0
M  V30 689 H 71.3994 1.4554 7.58972 0
M  V30 690 H 69.7444 1.30206 6.82694 0
M  V30 691 H 72.9354 0.590383 4.64362 0
M  V30 692 H 73.1084 1.0673 6.3915 0
M  V30 693 N 66.5145 -1.57545 0.0417849 0
M  V30 694 C 67.4445 -2.14009 -0.933929 0
M  V30 695 C 68.4255 -1.05938 -1.33083 0
M  V30 696 O 69.6105 -1.33833 -1.40721 0
M  V30 697 C 66.7405 -2.67747 -2.21199 0
M  V30 698 C 65.6945 -3.80718 -1.95544 0
M  V30 699 C 65.0205 -4.20935 -3.29724 0
M  V30 700 C 66.3205 -5.06258 -1.28452 0
M  V30 701 H 68.0145 -2.95788 -0.463645 0
M  V30 702 H 65.5605 -1.42285 -0.221573 0
M  V30 703 H 67.5135 -3.05886 -2.89848 0
M  V30 704 H 66.2375 -1.83147 -2.70416 0
M  V30 705 H 64.8965 -3.43037 -1.2931 0
M  V30 706 H 64.5445 -3.33298 -3.76724 0
M  V30 707 H 64.2445 -4.9707 -3.13361 0
M  V30 708 H 65.7685 -4.61666 -3.9962 0
M  V30 709 H 67.1825 -5.41903 -1.8712 0
M  V30 710 H 65.5795 -5.87475 -1.22445 0
M  V30 711 H 66.6495 -4.84207 -0.259219 0
M  V30 712 N 67.9926 0.231505 -1.5589 0
M  V30 713 C 69.2226 0.973092 -1.82248 0
M  V30 714 C 69.6306 1.78845 -0.617328 0
M  V30 715 O 68.9736 1.78752 0.423499 0
M  V30 716 C 69.0356 1.94732 -3.02192 0
M  V30 717 C 68.6996 1.31743 -4.37599 0
M  V30 718 C 69.6966 0.712238 -5.14998 0
M  V30 719 C 67.3816 1.33218 -4.84312 0
M  V30 720 C 69.3756 0.130195 -6.37267 0
M  V30 721 C 67.0626 0.746286 -6.06526 0
M  V30 722 C 68.0606 0.146337 -6.82843 0
M  V30 723 O 67.7486 -0.430465 -8.02747 0
M  V30 724 H 67.4806 0.29125 -0.61004 0
M  V30 725 H 70.0346 0.254915 -2.03812 0
M  V30 726 H 68.2646 2.70422 -2.76422 0
M  V30 727 H 69.9536 2.55362 -3.15508 0
M  V30 728 H 70.7196 0.69324 -4.8002 0
M  V30 729 H 66.5986 1.78854 -4.24891 0
M  V30 730 H 70.1426 -0.33871 -6.96777 0
M  V30 731 H 66.0396 0.762663 -6.40979 0
M  V30 732 H 66.8076 -0.323818 -8.17859 0
M  V30 733 N 69.4707 1.49531 0.497807 0
M  V30 734 C 70.8817 1.52344 1.07927 0
M  V30 735 C 71.2327 0.311469 1.93712 0
M  V30 736 O 70.3577 -0.578405 2.08527 0
M  V30 737 C 70.9527 2.76062 1.96405 0
M  V30 738 C 69.5117 2.81643 2.49709 0
M  V30 739 C 68.6587 2.46299 1.27404 0
M  V30 740 H 71.6097 1.56182 0.281576 0
M  V30 741 H 71.6307 2.56405 2.81135 0
M  V30 742 H 71.1427 3.64254 1.33943 0
M  V30 743 H 69.2437 1.97739 3.15801 0
M  V30 744 H 69.3567 3.83891 2.86643 0
M  V30 745 H 67.7207 1.98148 1.60029 0
M  V30 746 H 68.5037 3.36769 0.66645 0
M  V30 747 N 70.9488 -0.749086 1.3866 0
M  V30 748 C 72.3598 -1.32664 1.31366 0
M  V30 749 C 72.7108 -1.96179 -0.028484 0
M  V30 750 O 71.8358 -1.9537 -0.93057 0
M  V30 751 C 72.4308 -2.41219 2.37905 0
M  V30 752 C 70.9898 -2.94684 2.34176 0
M  V30 753 C 70.1368 -1.68108 2.20533 0
M  V30 754 H 73.0878 -0.547628 1.48952 0
M  V30 755 H 73.1088 -3.21268 2.0388 0
M  V30 756 H 72.6208 -1.94962 3.35576 0
M  V30 757 H 70.7218 -3.45258 1.401 0
M  V30 758 H 70.8348 -3.48757 3.2849 0
M  V30 759 H 69.1988 -1.91907 1.67463 0
M  V30 760 H 69.9818 -1.23923 3.20153 0
M  V30 761 N 72.4269 -1.23603 -0.977757 0
M  V30 762 C 73.6519 -1.09735 -1.75991 0
M  V30 763 C 74.0769 0.346858 -1.84874 0
M  V30 764 O 73.4349 1.25093 -1.3123 0
M  V30 765 C 73.4829 -1.73051 -3.16363 0
M  V30 766 O 72.5869 -0.994452 -4.0023 0
M  V30 767 H 71.9279 -0.384476 -0.541364 0
M  V30 768 H 74.4579 -1.6371 -1.2272 0
M  V30 769 H 74.4679 -1.78398 -3.66931 0
M  V30 770 H 73.1429 -2.78137 -3.09213 0
M  V30 771 H 71.7199 -1.01812 -3.58732 0
M  V30 772 N 73.905 1.17692 -1.04816 0
M  V30 773 C 74.868 2.19787 -0.650117 0
M  V30 774 C 75.868 1.58044 0.296427 0
M  V30 775 O 77.058 1.74012 0.0808097 0
M  V30 776 C 74.19 3.40869 0.0456987 0
M  V30 777 H 75.383 2.56516 -1.5537 0
M  V30 778 H 72.936 1.31708 -0.841594 0
M  V30 779 H 73.671 3.09681 0.962726 0
M  V30 780 H 73.456 3.86928 -0.634727 0
M  V30 781 H 74.946 4.16445 0.310432 0
M  V30 782 N 75.3831 0.828654 1.34056 0
M  V30 783 C 76.2931 0.256725 2.33191 0
M  V30 784 C 77.3091 -0.611898 1.62886 0
M  V30 785 O 78.4851 -0.51844 1.94613 0
M  V30 786 C 75.5501 -0.567238 3.42028 0
M  V30 787 C 74.6111 0.324458 4.28072 0
M  V30 788 C 73.8441 -0.460274 5.31712 0
M  V30 789 O 74.0671 -1.693 5.44696 0
M  V30 790 O 73.0011 0.160391 6.01686 0
M  V30 791 H 76.8271 1.07739 2.83947 0
M  V30 792 H 74.4121 0.59093 1.37217 0
M  V30 793 H 76.2941 -1.03582 4.08471 0
M  V30 794 H 74.9691 -1.36513 2.93506 0
M  V30 795 H 73.8761 0.840659 3.64532 0
M  V30 796 H 75.2091 1.08685 4.8005 0
M  V30 797 N 76.8612 -1.46375 0.584142 0
M  V30 798 C 78.0912 -2.06461 0.0758195 0
M  V30 799 C 78.4992 -1.43322 -1.23512 0
M  V30 800 O 77.8422 -0.533216 -1.75791 0
M  V30 801 C 77.9042 -3.59131 -0.162773 0
M  V30 802 C 77.5682 -4.4447 1.06279 0
M  V30 803 C 78.5652 -4.80918 1.97519 0
M  V30 804 C 76.2502 -4.85584 1.28504 0
M  V30 805 C 78.2442 -5.57309 3.09331 0
M  V30 806 C 75.9312 -5.61734 2.4062 0
M  V30 807 C 76.9292 -5.9751 3.30863 0
M  V30 808 O 76.6172 -6.72121 4.41032 0
M  V30 809 H 76.3492 -0.673745 0.0551725 0
M  V30 810 H 78.9032 -1.88969 0.804984 0
M  V30 811 H 77.1332 -3.74936 -0.946565 0
M  V30 812 H 78.8222 -4.0114 -0.619782 0
M  V30 813 H 79.5882 -4.49732 1.81565 0
M  V30 814 H 75.4672 -4.57187 0.591702 0
M  V30 815 H 79.0112 -5.85152 3.79793 0
M  V30 816 H 74.9082 -5.92334 2.56537 0
M  V30 817 H 75.6762 -6.90547 4.39417 0
M  V30 818 N 78.3393 -0.321999 -1.54275 0
M  V30 819 C 79.7503 0.166384 -1.85957 0
M  V30 820 C 80.1013 1.51747 -1.24367 0
M  V30 821 O 79.2263 2.09317 -0.549124 0
M  V30 822 C 79.8213 0.308681 -3.37391 0
M  V30 823 C 78.3803 0.741286 -3.69028 0
M  V30 824 C 77.5273 -0.137937 -2.76957 0
M  V30 825 H 80.4783 -0.542335 -1.49146 0
M  V30 826 H 80.4993 1.13984 -3.63026 0
M  V30 827 H 80.0113 -0.674809 -3.82188 0
M  V30 828 H 78.1123 1.73458 -3.29762 0
M  V30 829 H 78.2253 0.546118 -4.75977 0
M  V30 830 H 76.5893 0.386251 -2.51754 0
M  V30 831 H 77.3723 -1.11816 -3.2458 0
M  V30 832 N 79.8174 1.5752 -0.0501392 0
M  V30 833 C 81.0944 1.83996 0.663685 0
M  V30 834 C 81.4744 0.938339 1.89099 0
M  V30 835 O 80.8224 -0.00087759 2.285 0
M  V30 836 C 81.0324 3.33702 1.02196 0
M  V30 837 C 82.3804 4.00691 1.40469 0
M  V30 838 O 83.4044 3.38321 1.11433 0
M  V30 839 O 82.2634 5.10658 1.94654 0
M  V30 840 H 79.3574 0.759385 0.32751 0
M  V30 841 H 81.9034 1.69514 -0.0794238 0
M  V30 842 H 80.6754 3.91015 0.149364 0
M  V30 843 H 80.2984 3.53368 1.82255 0
M  V30 844 N 81.2955 -0.223234 1.56011 0
M  V30 845 C 82.2255 -1.27988 1.95298 0
M  V30 846 C 83.2065 -1.48976 0.820979 0
M  V30 847 O 84.3915 -1.61188 1.08315 0
M  V30 848 C 81.5215 -2.63 2.26822 0
M  V30 849 C 80.4755 -2.56671 3.42497 0
M  V30 850 C 79.8015 -3.95697 3.59622 0
M  V30 851 C 81.1015 -2.11601 4.77517 0
M  V30 852 H 82.7955 -0.953525 2.8381 0
M  V30 853 H 80.3415 -0.457244 1.36548 0
M  V30 854 H 82.2945 -3.37077 2.52898 0
M  V30 855 H 81.0185 -2.9732 1.35161 0
M  V30 856 H 79.6775 -1.85051 3.16467 0
M  V30 857 H 79.3255 -4.27322 2.6534 0
M  V30 858 H 79.0255 -3.92345 4.37424 0
M  V30 859 H 80.5495 -4.71438 3.88044 0
M  V30 860 H 81.9635 -2.7542 5.02809 0
M  V30 861 H 80.3605 -2.19311 5.5859 0
M  V30 862 H 81.4305 -1.06824 4.72987 0
M  V30 863 N 82.7736 -1.49793 -0.48987 0
M  V30 864 C 84.1896 -1.36803 -0.822022 0
M  V30 865 C 84.3896 -0.409652 -1.97292 0
M  V30 866 O 83.4456 0.154614 -2.52026 0
M  V30 867 C 84.7586 -2.77768 -1.15175 0
M  V30 868 C 86.3066 -2.86549 -1.25931 0
M  V30 869 C 86.7816 -4.28306 -1.62228 0
M  V30 870 N 88.2726 -4.31169 -1.69256 0
M  V30 871 C 89.0076 -5.37832 -1.98807 0
M  V30 872 N 88.5036 -6.54726 -2.26507 0
M  V30 873 N 90.2966 -5.25258 -2.00152 0
M  V30 874 H 82.4476 -2.10691 0.268881 0
M  V30 875 H 84.7106 -0.946241 0.057728 0
M  V30 876 H 84.4166 -3.49648 -0.379335 0
M  V30 877 H 84.2906 -3.13836 -2.09253 0
M  V30 878 H 86.6776 -2.14899 -2.02243 0
M  V30 879 H 86.7586 -2.54049 -0.298776 0
M  V30 880 H 86.4026 -5.00486 -0.864622 0
M  V30 881 H 86.3326 -4.58279 -2.594 0
M  V30 882 H 88.8236 -3.4687 -1.49965 0
M  V30 883 H 89.1366 -7.31833 -2.48276 0
M  V30 884 H 87.4816 -6.57933 -2.23939 0
M  V30 885 H 90.6726 -4.32938 -1.77996 0
M  V30 886 H 90.8456 -6.08476 -2.22848 0
M  V30 887 N 84.2517 0.741722 -1.39055 0
M  V30 888 C 85.1987 1.85566 -1.37237 0
M  V30 889 C 86.1687 1.64457 -0.233072 0
M  V30 890 O 87.3537 1.85957 -0.427147 0
M  V30 891 C 84.4937 3.23004 -1.215 0
M  V30 892 C 83.6067 3.55864 -2.44918 0
M  V30 893 C 82.7417 4.82669 -2.21821 0
M  V30 894 C 81.7807 5.08351 -3.40948 0
M  V30 895 N 80.9177 6.26356 -3.17211 0
M  V30 896 H 85.7577 1.86455 -2.32462 0
M  V30 897 H 83.2947 0.911176 -1.15482 0
M  V30 898 H 85.2527 4.02331 -1.10389 0
M  V30 899 H 83.8827 3.21411 -0.29908 0
M  V30 900 H 82.9347 2.7129 -2.66657 0
M  V30 901 H 84.2467 3.70765 -3.33668 0
M  V30 902 H 83.4007 5.69962 -2.07914 0
M  V30 903 H 82.1397 4.69929 -1.30454 0
M  V30 904 H 81.1447 4.19522 -3.55361 0
M  V30 905 H 82.3697 5.22981 -4.33207 0
M  V30 906 H 80.3157 6.14917 -2.28502 0
M  V30 907 H 80.2327 6.41813 -3.99515 0
M  V30 908 H 81.5007 7.16506 -3.06984 0
M  V30 909 N 85.7298 1.2412 0.971189 0
M  V30 910 C 86.6798 0.997551 2.05019 0
M  V30 911 C 87.6638 -0.0597747 1.60789 0
M  V30 912 O 88.8558 0.153516 1.76333 0
M  V30 913 C 85.9848 0.600557 3.38006 0
M  V30 914 C 85.0708 1.69377 3.88809 0
M  V30 915 N 85.4618 2.92586 4.12586 0
M  V30 916 C 83.7598 1.57048 4.17435 0
M  V30 917 C 84.4608 3.63431 4.54195 0
M  V30 918 N 83.4368 2.90979 4.59165 0
M  V30 919 H 87.2388 1.93316 2.21374 0
M  V30 920 H 84.7528 1.14194 1.1547 0
M  V30 921 H 86.7498 0.40725 4.14906 0
M  V30 922 H 85.4098 -0.327903 3.2304 0
M  V30 923 H 86.4208 3.288 4.00139 0
M  V30 924 H 83.0978 0.709798 4.11422 0
M  V30 925 H 84.4878 4.69102 4.81033 0
M  V30 926 N 87.2079 -1.17134 1.05439 0
M  V30 927 C 88.1559 -2.23289 0.651511 0
M  V30 928 C 89.1499 -1.66186 -0.328411 0
M  V30 929 O 90.3559 -1.78949 -0.194206 0
M  V30 930 H 86.7309 -0.726938 0.192523 0
M  V30 931 H 88.7019 -2.54565 1.55689 0
M  V30 932 C 87.4509 -3.47671 0.0448436 0
M  V30 933 H 86.7739 -3.91918 0.78996 0
M  V30 934 H 88.2139 -4.2353 -0.19964 0
M  V30 935 C 86.6729 -3.14453 -1.20918 0
M  V30 936 O 87.2029 -3.29459 -2.29825 0
M  V30 937 N 85.4089 -2.68657 -1.10779 0
M  V30 938 H 84.9559 -2.56646 -0.221526 0
M  V30 939 H 84.9139 -2.46804 -1.9477 0
M  V30 940 N 88.686 -0.835752 -1.33615 0
M  V30 941 C 89.634 -0.255238 -2.31195 0
M  V30 942 C 90.628 0.61107 -1.57995 0
M  V30 943 O 91.834 0.500979 -1.72888 0
M  V30 944 H 88.209 -0.0638085 -0.749288 0
M  V30 945 H 90.18 -1.09283 -2.77669 0
M  V30 946 C 88.929 0.55754 -3.43201 0
M  V30 947 H 88.252 -0.0997553 -3.99676 0
M  V30 948 H 89.692 0.929622 -4.13683 0
M  V30 949 C 88.151 1.73515 -2.88781 0
M  V30 950 O 88.681 2.83376 -2.84712 0
M  V30 951 N 86.887 1.55603 -2.4543 0
M  V30 952 H 86.434 0.662354 -2.48939 0
M  V30 953 H 86.392 2.34545 -2.09371 0
M  V30 954 N 90.1641 1.46063 -0.591896 0
M  V30 955 C 91.4041 2.04228 -0.0838014 0
M  V30 956 C 91.7681 1.45231 1.25587 0
M  V30 957 O 92.9691 1.94653 1.85375 0
M  V30 958 C 91.2401 3.57389 -0.0286282 0
M  V30 959 S 92.7991 4.3678 0.420557 0
M  V30 960 H 89.6171 0.709762 -0.0419319 0
M  V30 961 H 92.2191 1.78983 -0.786465 0
M  V30 962 H 90.9231 3.97843 -1.00743 0
M  V30 963 H 90.4541 3.87185 0.69652 0
M  V30 964 H 92.4691 4.67131 1.67341 0
M  V30 965 N 91.6422 0.330177 1.54103 0
M  V30 966 C 92.5752 -0.575477 2.20825 0
M  V30 967 C 93.5532 -1.11064 1.18758 0
M  V30 968 O 94.7372 -1.17341 1.47524 0
M  V30 969 C 91.8642 -1.79032 2.87516 0
M  V30 970 C 90.9102 -1.38581 4.03358 0
M  V30 971 S 91.7432 -0.416911 5.33875 0
M  V30 972 C 92.8992 -1.63889 6.04062 0
M  V30 973 H 93.1322 -0.00872114 2.97299 0
M  V30 974 H 90.6652 0.114254 1.53977 0
M  V30 975 H 92.6232 -2.48734 3.2656 0
M  V30 976 H 91.2842 -2.32827 2.10832 0
M  V30 977 H 90.4772 -2.29123 4.48908 0
M  V30 978 H 90.0792 -0.768419 3.66021 0
M  V30 979 H 92.3712 -2.57536 6.26643 0
M  V30 980 H 93.3142 -1.22542 6.97416 0
M  V30 981 H 93.7222 -1.82887 5.34053 0
M  V30 982 N 93.1203 -1.57491 0.0584922 0
M  V30 983 C 94.0833 -2.1085 -0.898617 0
M  V30 984 C 95.0833 -1.02964 -1.23511 0
M  V30 985 O 96.2733 -1.29007 -1.17059 0
M  V30 986 C 93.4053 -2.59881 -2.20623 0
M  V30 987 H 94.5983 -2.96715 -0.435936 0
M  V30 988 H 92.1513 -1.55141 -0.190023 0
M  V30 989 H 92.8863 -1.77431 -2.71457 0
M  V30 990 H 92.6713 -3.38727 -1.97501 0
M  V30 991 H 94.1613 -3.01285 -2.89166 0
M  V30 992 N 94.5984 0.214957 -1.56127 0
M  V30 993 C 95.8234 0.95924 -1.83884 0
M  V30 994 C 96.2484 1.7689 -0.639644 0
M  V30 995 O 95.6064 1.76566 0.411601 0
M  V30 996 C 95.6544 1.84723 -3.09693 0
M  V30 997 O 94.7584 2.94346 -2.8885 0
M  V30 998 H 94.0994 0.27125 -0.606069 0
M  V30 999 H 96.6294 0.226276 -2.03345 0
M  V30 1000 H 96.6394 2.25576 -3.39969 0
M  V30 1001 H 95.3144 1.25218 -3.96602 0
M  V30 1002 H 93.8914 2.57391 -2.69823 0
M  V30 1003 N 96.0765 1.50051 0.48192 0
M  V30 1004 C 97.0265 1.64512 1.5786 0
M  V30 1005 C 98.0105 0.500073 1.52932 0
M  V30 1006 O 99.2025 0.753964 1.60139 0
M  V30 1007 C 96.3315 1.73263 2.9637 0
M  V30 1008 C 95.4175 2.93409 3.06222 0
M  V30 1009 N 95.8085 4.17236 2.85915 0
M  V30 1010 C 94.1065 2.91742 3.37346 0
M  V30 1011 C 94.8075 4.981 3.00451 0
M  V30 1012 N 93.7835 4.3184 3.30174 0
M  V30 1013 H 97.5855 2.57955 1.40842 0
M  V30 1014 H 95.0995 1.47086 0.688439 0
M  V30 1015 H 97.0965 1.81724 3.75209 0
M  V30 1016 H 95.7565 0.809711 3.14442 0
M  V30 1017 H 96.7675 4.46909 2.6171 0
M  V30 1018 H 93.4445 2.08907 3.61475 0
M  V30 1019 H 94.8345 6.06532 2.89082 0
M  V30 1020 N 97.5546 -0.734337 1.39446 0
M  V30 1021 C 98.4846 -1.86155 1.40955 0
M  V30 1022 C 99.4656 -1.67898 0.272827 0
M  V30 1023 O 100.651 -1.88207 0.478743 0
M  V30 1024 C 97.7806 -3.23912 1.25294 0
M  V30 1025 C 96.7346 -3.56808 2.36373 0
M  V30 1026 C 96.0606 -4.93508 2.058 0
M  V30 1027 C 97.3606 -3.59713 3.78687 0
M  V30 1028 H 99.0546 -1.8515 2.35287 0
M  V30 1029 H 96.6006 -0.889367 1.13253 0
M  V30 1030 H 98.5536 -4.02443 1.2497 0
M  V30 1031 H 97.2776 -3.25446 0.274308 0
M  V30 1032 H 95.9366 -2.80606 2.35914 0
M  V30 1033 H 95.5846 -4.91623 1.06374 0
M  V30 1034 H 95.2846 -5.16486 2.80208 0
M  V30 1035 H 96.8086 -5.74396 2.07128 0
M  V30 1036 H 98.2226 -4.2832 3.81071 0
M  V30 1037 H 96.6196 -3.94209 4.52459 0
M  V30 1038 H 97.6896 -2.59504 4.09617 0
M  V30 1039 N 99.0327 -1.24633 -0.964593 0
M  V30 1040 C 100.261 -1.11501 -1.74285 0
M  V30 1041 C 100.676 0.332165 -1.85855 0
M  V30 1042 O 100.033 1.22903 -1.34911 0
M  V30 1043 C 100.084 -1.75258 -3.16175 0
M  V30 1044 O 99.8047 -3.14318 -3.05182 0
M  V30 1045 C 101.306 -1.67776 -4.10324 0
M  V30 1046 H 98.5257 -0.389407 -0.546446 0
M  V30 1047 H 101.07 -1.64801 -1.21083 0
M  V30 1048 H 99.2247 -1.25954 -3.66353 0
M  V30 1049 H 99.6387 -3.4551 -3.94618 0
M  V30 1050 H 101.113 -2.17064 -5.0753 0
M  V30 1051 H 101.59 -0.639584 -4.34518 0
M  V30 1052 H 102.196 -2.16522 -3.66058 0
M  V30 1053 N 100.511 1.16574 -1.06058 0
M  V30 1054 C 101.922 1.68662 -0.800632 0
M  V30 1055 C 102.273 1.84184 0.67608 0
M  V30 1056 O 101.398 1.53568 1.52466 0
M  V30 1057 C 101.993 3.06356 -1.44676 0
M  V30 1058 C 100.552 3.55575 -1.23465 0
M  V30 1059 C 99.6988 2.31616 -1.52477 0
M  V30 1060 H 102.65 1.00969 -1.22438 0
M  V30 1061 H 102.671 3.70636 -0.860788 0
M  V30 1062 H 102.183 2.95027 -2.52152 0
M  V30 1063 H 100.284 3.72167 -0.179527 0
M  V30 1064 H 100.397 4.37812 -1.94571 0
M  V30 1065 H 98.7608 2.36512 -0.945209 0
M  V30 1066 H 99.5438 2.22887 -2.61106 0
M  V30 1067 N 101.989 0.842826 1.3317 0
M  V30 1068 C 102.952 0.284065 2.27433 0
M  V30 1069 C 103.952 -0.54948 1.5112 0
M  V30 1070 O 105.142 -0.362699 1.70382 0
M  V30 1071 C 102.274 -0.599384 3.35589 0
M  V30 1072 H 103.467 1.11589 2.78366 0
M  V30 1073 H 101.02 0.616221 1.4364 0
M  V30 1074 H 101.755 -1.45349 2.89904 0
M  V30 1075 H 101.54 -0.00291266 3.921 0
M  V30 1076 H 103.03 -0.983488 4.05854 0
M  V30 1077 N 103.467 -1.45747 0.599634 0
M  V30 1078 C 104.713 -2.02592 0.0918643 0
M  V30 1079 C 105.046 -1.46806 -1.27128 0
M  V30 1080 O 104.321 -0.639658 -1.83681 0
M  V30 1081 C 104.604 -3.60073 0.0443398 0
M  V30 1082 C 104.457 -4.26208 1.43759 0
M  V30 1083 C 105.776 -4.35309 -0.647608 0
M  V30 1084 H 102.895 -0.736175 0.034857 0
M  V30 1085 H 105.537 -1.73694 0.770081 0
M  V30 1086 H 103.687 -3.84823 -0.533224 0
M  V30 1087 H 105.359 -4.12668 2.06162 0
M  V30 1088 H 103.602 -3.84916 2.00056 0
M  V30 1089 H 104.273 -5.35069 1.35665 0
M  V30 1090 H 106.749 -4.15805 -0.156776 0
M  V30 1091 H 105.625 -5.45038 -0.649942 0
M  V30 1092 H 105.886 -4.07598 -1.71219 0
M  V30 1093 N 104.945 -0.338344 -1.53925 0
M  V30 1094 C 106.175 0.260919 -2.04946 0
M  V30 1095 C 106.583 1.45174 -1.2133 0
M  V30 1096 O 105.926 1.82122 -0.240262 0
M  V30 1097 C 105.988 0.744596 -3.51704 0
M  V30 1098 C 105.652 -0.325883 -4.55837 0
M  V30 1099 C 106.649 -1.16687 -5.06636 0
M  V30 1100 C 104.334 -0.478317 -5.00017 0
M  V30 1101 C 106.328 -2.14588 -6.00192 0
M  V30 1102 C 104.015 -1.46073 -5.93385 0
M  V30 1103 C 105.013 -2.29297 -6.4336 0
M  V30 1104 O 104.701 -3.25867 -7.34892 0
M  V30 1105 H 104.433 0.0551207 -0.673749 0
M  V30 1106 H 106.987 -0.486984 -1.99544 0
M  V30 1107 H 105.217 1.54366 -3.54553 0
M  V30 1108 H 106.906 1.26383 -3.85723 0
M  V30 1109 H 107.672 -1.06016 -4.73271 0
M  V30 1110 H 103.551 0.159613 -4.60724 0
M  V30 1111 H 107.095 -2.79585 -6.39123 0
M  V30 1112 H 102.992 -1.56802 -6.26166 0
M  V30 1113 H 103.76 -3.21278 -7.5281 0
M  V30 1114 N 106.423 1.57458 -0.0668435 0
M  V30 1115 C 107.386 2.11323 0.887422 0
M  V30 1116 C 108.386 1.03618 1.22964 0
M  V30 1117 O 109.576 1.29626 1.16373 0
M  V30 1118 C 106.708 2.61048 2.19242 0
M  V30 1119 H 107.901 2.96942 0.420194 0
M  V30 1120 H 105.454 1.55239 0.181793 0
M  V30 1121 H 106.189 1.78868 2.70512 0
M  V30 1122 H 105.974 3.39769 1.95702 0
M  V30 1123 H 107.464 3.02814 2.87565 0
M  V30 1124 N 107.901 -0.206675 1.56239 0
M  V30 1125 C 109.317 -0.557025 1.49564 0
M  V30 1126 C 109.517 -1.86424 0.764735 0
M  V30 1127 O 108.573 -2.50584 0.310491 0
M  V30 1128 C 109.886 -0.622478 2.94186 0
M  V30 1129 C 111.434 -0.712099 3.04792 0
M  V30 1130 C 111.909 -0.808767 4.50803 0
M  V30 1131 N 113.4 -0.8726 4.54907 0
M  V30 1132 C 114.135 -0.967365 5.65181 0
M  V30 1133 N 113.631 -1.02515 6.85173 0
M  V30 1134 N 115.424 -1.00366 5.53067 0
M  V30 1135 H 107.575 0.650943 2.02179 0
M  V30 1136 H 109.838 0.230387 0.919579 0
M  V30 1137 H 109.544 0.268727 3.50672 0
M  V30 1138 H 109.418 -1.4811 3.46905 0
M  V30 1139 H 111.805 -1.59374 2.48363 0
M  V30 1140 H 111.886 0.172489 2.55218 0
M  V30 1141 H 111.53 0.0684754 5.07854 0
M  V30 1142 H 111.46 -1.70899 4.98098 0
M  V30 1143 H 113.951 -0.837657 3.68499 0
M  V30 1144 H 114.264 -1.09765 7.64965 0
M  V30 1145 H 112.609 -0.994026 6.87855 0
M  V30 1146 H 115.8 -0.95527 4.58249 0
M  V30 1147 H 115.973 -1.07405 6.39037 0
M  V30 1148 N 109.379 -1.50304 -0.473955 0
M  V30 1149 C 110.309 -1.71886 -1.58042 0
M  V30 1150 C 111.29 -0.567799 -1.60344 0
M  V30 1151 O 112.475 -0.806623 -1.76656 0
M  V30 1152 C 109.605 -1.81036 -2.96384 0
M  V30 1153 C 108.559 -2.962 -3.08949 0
M  V30 1154 C 107.885 -2.9049 -4.48909 0
M  V30 1155 C 109.185 -4.36752 -2.86434 0
M  V30 1156 H 110.879 -2.64527 -1.40234 0
M  V30 1157 H 108.425 -1.27295 -0.673201 0
M  V30 1158 H 110.378 -1.94719 -3.73714 0
M  V30 1159 H 109.102 -0.850147 -3.15341 0
M  V30 1160 H 107.761 -2.82164 -2.3405 0
M  V30 1161 H 107.409 -1.92321 -4.64781 0
M  V30 1162 H 107.109 -3.67802 -4.58253 0
M  V30 1163 H 108.633 -3.06218 -5.28264 0
M  V30 1164 H 110.047 -4.5133 -3.53517 0
M  V30 1165 H 108.444 -5.15493 -3.07225 0
M  V30 1166 H 109.514 -4.49321 -1.82316 0
M  V30 1167 N 110.857 0.726932 -1.39834 0
M  V30 1168 C 112.097 1.4992 -1.38936 0
M  V30 1169 C 112.461 1.91996 0.0126883 0
M  V30 1170 O 113.662 2.68399 0.146715 0
M  V30 1171 C 111.933 2.70013 -2.34153 0
M  V30 1172 S 113.492 3.59563 -2.51515 0
M  V30 1173 H 110.31 0.51271 -0.492595 0
M  V30 1174 H 112.912 0.85107 -1.76003 0
M  V30 1175 H 111.616 2.37254 -3.34871 0
M  V30 1176 H 111.147 3.39748 -1.98331 0
M  V30 1177 H 113.162 4.63973 -1.75909 0
M  V30 1178 N 112.336 1.25143 0.95797 0
M  V30 1179 C 113.613 1.00472 1.67823 0
M  V30 1180 C 113.993 -0.470056 2.058 0
M  V30 1181 O 113.341 -1.44663 1.76875 0
M  V30 1182 C 113.551 1.9372 2.90299 0
M  V30 1183 C 114.899 2.21371 3.62326 0
M  V30 1184 O 115.923 1.91451 3.00375 0
M  V30 1185 O 114.782 2.72231 4.7387 0
M  V30 1186 H 111.876 0.380752 0.734137 0
M  V30 1187 H 114.422 1.36283 1.01119 0
M  V30 1188 H 113.194 2.93316 2.59001 0
M  V30 1189 H 112.817 1.58286 3.64735 0
M  V30 1190 N 113.814 -1.1601 1.06675 0
M  V30 1191 C 114.761 -2.20525 0.680967 0
M  V30 1192 C 115.731 -1.62904 -0.324283 0
M  V30 1193 O 116.916 -1.89615 -0.212294 0
M  V30 1194 C 114.056 -3.45013 0.0776551 0
M  V30 1195 C 113.169 -4.16863 1.13355 0
M  V30 1196 C 112.304 -5.2888 0.49597 0
M  V30 1197 C 111.343 -5.92537 1.53513 0
M  V30 1198 N 110.48 -6.96038 0.920631 0
M  V30 1199 H 115.32 -2.52876 1.57663 0
M  V30 1200 H 112.857 -1.24199 0.788223 0
M  V30 1201 H 114.815 -4.16193 -0.289704 0
M  V30 1202 H 113.445 -3.132 -0.781393 0
M  V30 1203 H 112.497 -3.44248 1.61857 0
M  V30 1204 H 113.809 -4.60294 1.92174 0
M  V30 1205 H 112.963 -6.06653 0.0758604 0
M  V30 1206 H 111.702 -4.86622 -0.324062 0
M  V30 1207 H 110.707 -5.13482 1.9651 0
M  V30 1208 H 111.932 -6.36873 2.35733 0
M  V30 1209 H 109.878 -6.55888 0.12138 0
M  V30 1210 H 109.795 -7.3786 1.64616 0
M  V30 1211 H 111.063 -7.77725 0.525795 0
M  V30 1212 N 115.292 -0.849877 -1.32721 0
M  V30 1213 C 116.52 -0.464754 -2.01613 0
M  V30 1214 C 116.935 0.937191 -1.63897 0
M  V30 1215 O 116.292 1.61081 -0.857856 0
M  V30 1216 C 116.343 -0.588638 -3.56675 0
M  V30 1217 O 116.064 -1.93535 -3.93034 0
M  V30 1218 C 117.565 -0.2019 -4.4284 0
M  V30 1219 H 114.785 -0.183215 -0.645502 0
M  V30 1220 H 117.329 -1.1455 -1.69407 0
M  V30 1221 H 115.484 0.0443159 -3.87375 0
M  V30 1222 H 115.898 -1.92871 -4.87751 0
M  V30 1223 H 117.372 -0.339599 -5.50954 0
M  V30 1224 H 117.849 0.857224 -4.30753 0
M  V30 1225 H 118.455 -0.809733 -4.17521 0
M  V30 1226 N 116.77 1.45427 -0.607355 0
M  V30 1227 C 117.998 2.06614 -0.108814 0
M  V30 1228 C 118.413 1.45204 1.2067 0
M  V30 1229 O 117.77 0.566132 1.73497 0
M  V30 1230 C 117.821 3.61481 0.0375347 0
M  V30 1231 O 117.542 4.20598 -1.22593 0
M  V30 1232 C 119.043 4.39652 0.567561 0
M  V30 1233 H 116.263 0.66747 -0.0687351 0
M  V30 1234 H 118.807 1.86675 -0.835022 0
M  V30 1235 H 116.962 3.80762 0.714068 0
M  V30 1236 H 117.376 5.1377 -1.05547 0
M  V30 1237 H 118.85 5.48518 0.61905 0
M  V30 1238 H 119.327 4.09417 1.58978 0
M  V30 1239 H 119.933 4.25234 -0.0749202 0
M  V30 1240 N 118.248 0.346503 1.53744 0
M  V30 1241 C 119.659 -0.136779 1.86198 0
M  V30 1242 C 120.01 -1.49749 1.26766 0
M  V30 1243 O 119.135 -2.08417 0.582355 0
M  V30 1244 C 119.73 -0.254966 3.37839 0
M  V30 1245 C 118.289 -0.682482 3.70161 0
M  V30 1246 C 117.436 0.181981 2.76702 0
M  V30 1247 H 120.387 0.565994 1.48264 0
M  V30 1248 H 120.408 -1.08195 3.64793 0
M  V30 1249 H 119.92 0.735526 3.81066 0
M  V30 1250 H 118.021 -1.68189 3.3248 0
M  V30 1251 H 118.134 -0.470326 4.76786 0
M  V30 1252 H 116.498 -0.34615 2.52337 0
M  V30 1253 H 117.281 1.16966 3.2276 0
M  V30 1254 N 119.726 -1.57421 0.075193 0
M  V30 1255 C 120.954 -1.97946 -0.602076 0
M  V30 1256 C 121.369 -0.953674 -1.62943 0
M  V30 1257 O 120.726 0.0592551 -1.82404 0
M  V30 1258 C 120.777 -3.38546 -1.26762 0
M  V30 1259 O 120.498 -4.37195 -0.281376 0
M  V30 1260 C 121.999 -3.93966 -2.03239 0
M  V30 1261 H 119.219 -0.650918 -0.162931 0
M  V30 1262 H 121.763 -2.03959 0.148601 0
M  V30 1263 H 119.918 -3.33609 -1.96936 0
M  V30 1264 H 120.332 -5.18975 -0.759267 0
M  V30 1265 H 121.806 -4.94555 -2.45193 0
M  V30 1266 H 122.283 -3.30693 -2.8903 0
M  V30 1267 H 122.889 -4.02315 -1.37924 0
M  V30 1268 N 121.204 0.198386 -1.56346 0
M  V30 1269 C 122.452 0.91747 -1.80075 0
M  V30 1270 C 122.773 1.83929 -0.647692 0
M  V30 1271 O 122.043 1.93029 0.334166 0
M  V30 1272 H 120.623 0.341774 -0.664228 0
M  V30 1273 H 123.285 0.204684 -1.93822 0
M  V30 1274 H 122.381 1.51055 -2.7311 0
M  V30 1275 N 122.682 1.50554 0.465978 0
M  V30 1276 C 123.928 1.63006 1.21658 0
M  V30 1277 C 124.283 0.328613 1.89573 0
M  V30 1278 O 123.576 -0.673813 1.79361 0
M  V30 1279 C 123.77 2.75152 2.28093 0
M  V30 1280 C 123.599 4.16075 1.7062 0
M  V30 1281 C 122.369 4.82408 1.50368 0
M  V30 1282 C 124.567 5.00145 1.1983 0
M  V30 1283 N 122.549 6.07532 0.881924 0
M  V30 1284 C 123.92 6.16035 0.700083 0
M  V30 1285 C 125.975 4.85882 1.08733 0
M  V30 1286 C 124.678 7.19228 0.101835 0
M  V30 1287 C 126.704 5.89257 0.503016 0
M  V30 1288 C 126.066 7.04398 0.0152005 0
M  V30 1289 H 122.165 0.650596 0.433877 0
M  V30 1290 H 124.749 1.8769 0.517746 0
M  V30 1291 H 122.92 2.52181 2.95397 0
M  V30 1292 H 124.652 2.76935 2.95109 0
M  V30 1293 H 121.407 4.39788 1.75737 0
M  V30 1294 H 121.831 6.7443 0.589312 0
M  V30 1295 H 126.473 3.97144 1.4504 0
M  V30 1296 H 124.191 8.07637 -0.273426 0
M  V30 1297 H 127.777 5.80286 0.419451 0
M  V30 1298 H 126.657 7.83021 -0.429856 0
M  V30 1299 N 124.16 -0.719506 1.40217 0
M  V30 1300 C 125.388 -1.50864 1.41589 0
M  V30 1301 C 125.803 -1.88794 0.0145275 0
M  V30 1302 O 125.16 -1.55174 -0.960594 0
M  V30 1303 C 125.211 -2.78646 2.30302 0
M  V30 1304 O 124.932 -2.42321 3.64983 0
M  V30 1305 C 126.433 -3.72569 2.40224 0
M  V30 1306 H 123.653 -0.465709 0.48307 0
M  V30 1307 H 126.197 -0.88785 1.84221 0
M  V30 1308 H 124.352 -3.37019 1.91042 0
M  V30 1309 H 124.766 -3.24514 4.12057 0
M  V30 1310 H 126.24 -4.5908 3.06512 0
M  V30 1311 H 126.717 -4.15403 1.42608 0
M  V30 1312 H 127.323 -3.20109 2.80019 0
M  V30 1313 N 125.638 -1.25649 -0.95132 0
M  V30 1314 C 126.568 -1.08808 -2.06599 0
M  V30 1315 C 127.549 0.00382547 -1.701 0
M  V30 1316 O 128.734 -0.166325 -1.93486 0
M  V30 1317 C 125.864 -0.709542 -3.39975 0
M  V30 1318 C 124.818 -1.75206 -3.90496 0
M  V30 1319 C 124.144 -1.22811 -5.20405 0
M  V30 1320 C 125.444 -3.15153 -4.16504 0
M  V30 1321 H 127.138 -2.02048 -2.20946 0
M  V30 1322 H 124.684 -0.972835 -1.06169 0
M  V30 1323 H 126.637 -0.578649 -4.17408 0
M  V30 1324 H 125.361 0.258556 -3.25575 0
M  V30 1325 H 124.02 -1.87145 -3.15234 0
M  V30 1326 H 123.668 -0.250145 -5.02378 0
M  V30 1327 H 123.368 -1.92492 -5.55176 0
M  V30 1328 H 124.892 -1.10968 -6.00432 0
M  V30 1329 H 126.306 -3.06349 -4.84586 0
M  V30 1330 H 124.703 -3.82333 -4.62538 0
M  V30 1331 H 125.773 -3.61966 -3.22658 0
M  V30 1332 N 127.117 1.15442 -1.07289 0
M  V30 1333 C 128.394 1.82306 -0.708792 0
M  V30 1334 C 128.774 1.94991 0.808807 0
M  V30 1335 O 128.122 1.50085 1.72298 0
M  V30 1336 C 128.332 3.18695 -1.42247 0
M  V30 1337 C 129.68 3.94341 -1.57417 0
M  V30 1338 O 130.704 3.28247 -1.38319 0
M  V30 1339 O 129.563 5.12839 -1.88834 0
M  V30 1340 H 126.657 0.787628 -0.252132 0
M  V30 1341 H 129.203 1.22559 -1.17377 0
M  V30 1342 H 127.975 3.04557 -2.45684 0
M  V30 1343 H 127.598 3.86128 -0.948223 0
M  V30 1344 N 128.595 0.856903 1.32268 0
M  V30 1345 C 129.527 0.260412 2.27716 0
M  V30 1346 C 130.54 -0.569137 1.52528 0
M  V30 1347 O 131.729 -0.39326 1.74114 0
M  V30 1348 C 128.829 -0.650477 3.32599 0
M  V30 1349 C 128.002 0.14372 4.37164 0
M  V30 1350 C 127.061 -0.69328 5.21613 0
M  V30 1351 O 126.087 -0.12599 5.69061 0
M  V30 1352 N 127.289 -2.00761 5.44679 0
M  V30 1353 H 130.054 1.08059 2.79541 0
M  V30 1354 H 127.615 0.717103 1.45152 0
M  V30 1355 H 129.607 -1.21581 3.86005 0
M  V30 1356 H 128.177 -1.37133 2.80915 0
M  V30 1357 H 127.397 0.890486 3.8401 0
M  V30 1358 H 128.685 0.68915 5.04111 0
M  V30 1359 H 128.083 -2.49181 5.07863 0
M  V30 1360 H 126.64 -2.52103 6.01072 0
M  V30 1361 N 130.073 -1.45103 0.615059 0
M  V30 1362 C 131.313 -2.04069 0.116282 0
M  V30 1363 C 131.677 -1.4721 -1.2326 0
M  V30 1364 O 132.878 -1.97577 -1.82255 0
M  V30 1365 C 131.149 -3.57298 0.085482 0
M  V30 1366 S 132.708 -4.37394 -0.351015 0
M  V30 1367 H 129.526 -0.709006 0.0532183 0
M  V30 1368 H 132.128 -1.77709 0.81484 0
M  V30 1369 H 130.832 -3.9619 1.0706 0
M  V30 1370 H 130.363 -3.88244 -0.634835 0
M  V30 1371 H 132.378 -4.69734 -1.59889 0
M  V30 1372 N 131.551 -0.354651 -1.53558 0
M  V30 1373 C 132.8 0.239504 -2.00273 0
M  V30 1374 C 133.113 1.50759 -1.24623 0
M  V30 1375 O 134.319 2.17968 -1.61871 0
M  V30 1376 C 132.775 0.477341 -3.5672 0
M  V30 1377 C 132.383 -0.775488 -4.41237 0
M  V30 1378 C 134.127 1.02975 -4.11821 0
M  V30 1379 C 132.034 -0.507838 -5.89216 0
M  V30 1380 H 130.964 0.0932743 -0.748208 0
M  V30 1381 H 133.615 -0.471701 -1.77334 0
M  V30 1382 H 131.997 1.24953 -3.7577 0
M  V30 1383 H 133.171 -1.54963 -4.33962 0
M  V30 1384 H 131.486 -1.25033 -3.97185 0
M  V30 1385 H 134.083 1.24513 -5.2 0
M  V30 1386 H 134.426 1.98862 -3.65731 0
M  V30 1387 H 134.959 0.317994 -3.96527 0
M  V30 1388 H 131.698 -1.43674 -6.39561 0
M  V30 1389 H 131.218 0.228011 -5.99366 0
M  V30 1390 H 132.897 -0.129238 -6.46871 0
M  V30 1391 N 133.029 1.57378 -0.0835403 0
M  V30 1392 C 133.961 2.10389 0.909338 0
M  V30 1393 C 134.974 1.03858 1.25369 0
M  V30 1394 O 136.163 1.31338 1.20882 0
M  V30 1395 C 133.263 2.55908 2.2218 0
M  V30 1396 C 132.436 3.86145 2.05453 0
M  V30 1397 C 131.495 4.17633 3.20108 0
M  V30 1398 O 130.521 4.87043 2.94581 0
M  V30 1399 N 131.723 3.72113 4.45547 0
M  V30 1400 H 134.488 2.962 0.456657 0
M  V30 1401 H 132.049 1.61579 0.101877 0
M  V30 1402 H 134.041 2.74027 2.97811 0
M  V30 1403 H 132.611 1.75171 2.58909 0
M  V30 1404 H 131.831 3.7729 1.1422 0
M  V30 1405 H 133.119 4.7137 1.91541 0
M  V30 1406 H 132.517 3.16062 4.69171 0
M  V30 1407 H 131.074 3.95409 5.18165 0
M  V30 1408 N 134.507 -0.190092 1.56449 0
M  V30 1409 C 135.735 -0.925772 1.85033 0
M  V30 1410 C 136.15 -1.76638 0.666658 0
M  V30 1411 O 135.507 -1.78822 -0.364565 0
M  V30 1412 C 135.558 -1.81786 3.12468 0
M  V30 1413 O 135.279 -1.01118 4.26271 0
M  V30 1414 C 136.78 -2.6648 3.54265 0
M  V30 1415 H 134 -0.269872 0.614337 0
M  V30 1416 H 136.544 -0.195837 2.0356 0
M  V30 1417 H 134.699 -2.50136 2.95822 0
M  V30 1418 H 135.113 -1.61956 4.98869 0
M  V30 1419 H 136.587 -3.24722 4.46385 0
M  V30 1420 H 137.064 -3.40434 2.77491 0
M  V30 1421 H 137.67 -2.03493 3.73458 0
M  V30 1422 N 135.985 -1.50799 -0.457987 0
M  V30 1423 C 137.233 -1.62121 -1.2067 0
M  V30 1424 C 137.554 -0.329793 -1.92191 0
M  V30 1425 O 136.824 0.653409 -1.84682 0
M  V30 1426 H 135.404 -0.597441 -0.448411 0
M  V30 1427 H 138.066 -1.87637 -0.527096 0
M  V30 1428 H 137.162 -2.43882 -1.94751 0
M  V30 1429 N 137.463 0.71206 -1.40597 0
M  V30 1430 C 138.709 1.47416 -1.39271 0
M  V30 1431 C 139.042 1.942 0.00388791 0
M  V30 1432 O 138.317 1.68403 0.973179 0
M  V30 1433 C 138.6 2.69774 -2.38525 0
M  V30 1434 C 138.453 2.28861 -3.87224 0
M  V30 1435 C 139.772 3.71939 -2.35264 0
M  V30 1436 H 136.891 0.534713 -0.5072 0
M  V30 1437 H 139.533 0.812375 -1.71757 0
M  V30 1438 H 137.683 3.26238 -2.10953 0
M  V30 1439 H 139.355 1.77852 -4.25636 0
M  V30 1440 H 137.598 1.60824 -4.02887 0
M  V30 1441 H 138.269 3.16584 -4.52193 0
M  V30 1442 H 140.745 3.25113 -2.59694 0
M  V30 1443 H 139.621 4.55186 -3.06753 0
M  V30 1444 H 139.882 4.20484 -1.36549 0
M  V30 1445 N 138.941 1.26152 0.944643 0
M  V30 1446 C 140.218 1.02247 1.66748 0
M  V30 1447 C 140.598 -0.448202 2.06287 0
M  V30 1448 O 139.946 -1.42779 1.78399 0
M  V30 1449 C 140.156 1.96788 2.88228 0
M  V30 1450 C 141.504 2.25201 3.59958 0
M  V30 1451 O 142.528 1.94626 2.98327 0
M  V30 1452 O 141.387 2.77242 4.70956 0
M  V30 1453 H 138.481 0.388517 0.730057 0
M  V30 1454 H 141.027 1.37348 0.99668 0
M  V30 1455 H 139.799 2.96047 2.55875 0
M  V30 1456 H 139.422 1.62145 3.63035 0
M  V30 1457 N 140.419 -1.14872 1.07899 0
M  V30 1458 C 141.367 -2.21857 0.698727 0
M  V30 1459 C 142.361 -1.66845 -0.293086 0
M  V30 1460 O 143.567 -1.79321 -0.156204 0
M  V30 1461 H 139.942 -0.722691 0.207899 0
M  V30 1462 H 141.913 -2.51205 1.61054 0
M  V30 1463 C 140.662 -3.47498 0.11858 0
M  V30 1464 H 139.985 -3.90154 0.872914 0
M  V30 1465 H 141.425 -4.23858 -0.109759 0
M  V30 1466 C 139.884 -3.16947 -1.1422 0
M  V30 1467 O 140.414 -3.3426 -2.22785 0
M  V30 1468 N 138.62 -2.70946 -1.05055 0
M  V30 1469 H 138.167 -2.57058 -0.167038 0
M  V30 1470 H 138.125 -2.50879 -1.89491 0
M  V30 1471 N 141.898 -0.863906 -1.31812 0
M  V30 1472 C 143.309 -0.52522 -1.7916 0
M  V30 1473 C 143.66 0.957518 -1.71248 0
M  V30 1474 O 142.785 1.74734 -1.27659 0
M  V30 1475 C 143.38 -0.9466 -3.25307 0
M  V30 1476 C 141.939 -0.659668 -3.70574 0
M  V30 1477 C 141.086 -1.14126 -2.52726 0
M  V30 1478 H 144.037 -1.05022 -1.1898 0
M  V30 1479 H 144.058 -0.266766 -3.79564 0
M  V30 1480 H 143.57 -2.02579 -3.31034 0
M  V30 1481 H 141.671 0.408416 -3.70355 0
M  V30 1482 H 141.784 -1.23245 -4.62977 0
M  V30 1483 H 140.148 -0.561216 -2.4844 0
M  V30 1484 H 140.931 -2.22775 -2.61201 0
M  V30 1485 N 143.376 1.44774 -0.622745 0
M  V30 1486 C 144.624 2.01721 -0.123655 0
M  V30 1487 C 144.945 1.49172 1.25589 0
M  V30 1488 O 144.215 0.691974 1.83272 0
M  V30 1489 H 142.795 0.745777 -0.0427225 0
M  V30 1490 H 145.457 1.77382 -0.807559 0
M  V30 1491 H 144.553 3.11984 -0.0849534 0
M  V30 1492 N 144.854 0.36279 1.53368 0
M  V30 1493 C 145.804 -0.501391 2.22419 0
M  V30 1494 C 146.788 -1.0509 1.2184 0
M  V30 1495 O 147.98 -0.981404 1.47301 0
M  V30 1496 C 145.109 -1.64201 3.01484 0
M  V30 1497 C 144.195 -1.10552 4.09438 0
M  V30 1498 N 144.586 -0.291788 5.04958 0
M  V30 1499 C 142.884 -1.3806 4.24094 0
M  V30 1500 C 143.585 0.00162655 5.817 0
M  V30 1501 N 142.561 -0.595244 5.40331 0
M  V30 1502 H 146.363 0.127159 2.93625 0
M  V30 1503 H 143.877 0.170658 1.61501 0
M  V30 1504 H 145.874 -2.27326 3.49469 0
M  V30 1505 H 144.534 -2.27365 2.31809 0
M  V30 1506 H 145.545 0.0687731 5.17854 0
M  V30 1507 H 142.222 -2.01522 3.65644 0
M  V30 1508 H 143.612 0.659278 6.68658 0
M  V30 1509 N 146.332 -1.57332 0.0918853 0
M  V30 1510 C 147.743 -1.81496 -0.437739 0
M  V30 1511 C 148.094 -1.00727 -1.6837 0
M  V30 1512 O 147.219 -0.235694 -2.15113 0
M  V30 1513 C 147.814 -3.29197 -0.800939 0
M  V30 1514 C 146.373 -3.54136 -1.27532 0
M  V30 1515 C 145.52 -2.75979 -0.270392 0
M  V30 1516 H 148.471 -1.55494 0.317366 0
M  V30 1517 H 148.492 -3.42344 -1.66074 0
M  V30 1518 H 148.004 -3.87955 0.106078 0
M  V30 1519 H 146.105 -3.00705 -2.20016 0
M  V30 1520 H 146.218 -4.62792 -1.23938 0
M  V30 1521 H 144.582 -2.43349 -0.751872 0
M  V30 1522 H 145.365 -3.37484 0.629248 0
M  V30 1523 N 147.81 0.181792 -1.56548 0
M  V30 1524 C 149.057 0.900097 -1.81396 0
M  V30 1525 C 149.385 1.82695 -0.667281 0
M  V30 1526 O 148.64 1.92614 0.346146 0
M  V30 1527 C 148.939 1.73728 -3.12335 0
M  V30 1528 C 148.605 0.960255 -4.40556 0
M  V30 1529 C 147.267 0.745766 -4.75386 0
M  V30 1530 C 149.619 0.414477 -5.19549 0
M  V30 1531 C 146.947 -0.0257694 -5.86694 0
M  V30 1532 C 149.299 -0.343916 -6.31664 0
M  V30 1533 C 147.963 -0.569301 -6.65068 0
M  V30 1534 H 147.233 0.329369 -0.663775 0
M  V30 1535 H 149.88 0.165647 -1.90782 0
M  V30 1536 H 148.185 2.54081 -2.98245 0
M  V30 1537 H 149.882 2.29591 -3.28769 0
M  V30 1538 H 146.472 1.13746 -4.13231 0
M  V30 1539 H 150.656 0.567554 -4.93044 0
M  V30 1540 H 145.912 -0.210233 -6.11038 0
M  V30 1541 H 150.086 -0.774133 -6.92084 0
M  V30 1542 H 147.713 -1.16903 -7.51158 0
M  V30 1543 N 149.288 1.51039 0.449983 0
M  V30 1544 C 150.537 1.62317 1.19733 0
M  V30 1545 C 150.85 0.339101 1.92638 0
M  V30 1546 O 152.056 0.331069 2.69474 0
M  V30 1547 C 150.512 2.86608 2.17678 0
M  V30 1548 C 150.12 4.21972 1.50479 0
M  V30 1549 C 151.864 3.07239 2.92924 0
M  V30 1550 C 149.771 5.37426 2.46834 0
M  V30 1551 H 148.701 0.604532 0.450619 0
M  V30 1552 H 151.352 1.77494 0.465625 0
M  V30 1553 H 149.734 2.65037 2.94231 0
M  V30 1554 H 150.908 4.53878 0.795716 0
M  V30 1555 H 149.223 4.07117 0.874344 0
M  V30 1556 H 151.82 3.90668 3.65079 0
M  V30 1557 H 152.163 2.19807 3.5354 0
M  V30 1558 H 152.696 3.29091 2.23481 0
M  V30 1559 H 149.435 6.27079 1.90926 0
M  V30 1560 H 148.955 5.09912 3.15832 0
M  V30 1561 H 150.634 5.68862 3.08228 0
M  V30 1562 N 150.766 -0.704594 1.40972 0
M  V30 1563 C 151.713 -1.81862 1.42109 0
M  V30 1564 C 152.683 -1.63781 0.276593 0
M  V30 1565 O 153.868 -1.84759 0.4763 0
M  V30 1566 C 151.008 -3.19669 1.30022 0
M  V30 1567 C 150.121 -3.49246 2.54267 0
M  V30 1568 C 149.256 -4.76618 2.3454 0
M  V30 1569 C 148.295 -4.99133 3.54306 0
M  V30 1570 N 147.432 -6.17726 3.33706 0
M  V30 1571 H 152.272 -1.80226 2.37324 0
M  V30 1572 H 149.809 -0.880238 1.17857 0
M  V30 1573 H 151.767 -3.99263 1.21018 0
M  V30 1574 H 150.397 -3.20506 0.384192 0
M  V30 1575 H 149.449 -2.64125 2.73756 0
M  V30 1576 H 150.761 -3.61788 3.43381 0
M  V30 1577 H 149.915 -5.64249 2.22952 0
M  V30 1578 H 148.654 -4.66305 1.42867 0
M  V30 1579 H 147.659 -4.09953 3.66359 0
M  V30 1580 H 148.884 -5.11311 4.4692 0
M  V30 1581 H 146.83 -6.08642 2.44725 0
M  V30 1582 H 146.747 -6.30995 4.16391 0
M  V30 1583 H 148.015 -7.08115 3.25873 0
M  V30 1584 N 152.244 -1.26651 -0.937939 0
M  V30 1585 C 153.472 -1.15173 -1.7188 0
M  V30 1586 C 153.887 0.292668 -1.86518 0
M  V30 1587 O 153.244 1.20014 -1.37488 0
M  V30 1588 C 153.295 -1.81925 -3.12387 0
M  V30 1589 O 153.016 -3.2072 -2.98446 0
M  V30 1590 C 154.517 -1.76442 -4.06673 0
M  V30 1591 H 151.737 -0.400911 -0.538063 0
M  V30 1592 H 154.281 -1.67332 -1.1756 0
M  V30 1593 H 152.436 -1.33696 -3.63599 0
M  V30 1594 H 152.85 -3.53802 -3.872 0
M  V30 1595 H 154.324 -2.27781 -5.02812 0
M  V30 1596 H 154.801 -0.731608 -4.33064 0
M  V30 1597 H 155.407 -2.24238 -3.61382 0
M  V30 1598 N 153.722 1.14298 -1.08507 0
M  V30 1599 C 154.968 1.85633 -0.816581 0
M  V30 1600 C 155.301 1.82784 0.656021 0
M  V30 1601 O 154.576 1.25926 1.48233 0
M  V30 1602 C 154.859 3.34223 -1.34041 0
M  V30 1603 C 154.712 3.45639 -2.87843 0
M  V30 1604 C 156.031 4.29356 -0.9665 0
M  V30 1605 H 153.15 0.67402 -0.298104 0
M  V30 1606 H 155.792 1.34214 -1.34487 0
M  V30 1607 H 153.942 3.78144 -0.89104 0
M  V30 1608 H 155.614 3.10498 -3.41158 0
M  V30 1609 H 153.857 2.86817 -3.25451 0
M  V30 1610 H 154.528 4.50089 -3.19569 0
M  V30 1611 H 157.004 3.93457 -1.35391 0
M  V30 1612 H 155.88 5.3178 -1.3602 0
M  V30 1613 H 156.141 4.41919 0.126362 0
M  V30 1614 N 155.201 0.870884 1.31352 0
M  V30 1615 C 156.449 0.48132 1.96285 0
M  V30 1616 C 156.77 -0.969813 1.69173 0
M  V30 1617 O 156.04 -1.67998 1.00764 0
M  V30 1618 H 154.62 0.175002 0.726212 0
M  V30 1619 H 157.282 1.11087 1.60143 0
M  V30 1620 H 156.378 0.639825 3.05471 0
M  V30 1621 N 156.679 -1.44442 0.630414 0
M  V30 1622 C 157.612 -2.27862 -0.124247 0
M  V30 1623 C 158.59 -1.38495 -0.851931 0
M  V30 1624 O 159.774 -1.67935 -0.856166 0
M  V30 1625 C 156.901 -3.17407 -1.18197 0
M  V30 1626 C 155.947 -4.22875 -0.554892 0
M  V30 1627 S 156.78 -5.31485 0.654489 0
M  V30 1628 C 157.936 -6.246 -0.40326 0
M  V30 1629 H 158.169 -2.91519 0.583435 0
M  V30 1630 H 155.702 -1.48618 0.418565 0
M  V30 1631 H 157.66 -3.69549 -1.78728 0
M  V30 1632 H 156.321 -2.52971 -1.86184 0
M  V30 1633 H 155.514 -4.85542 -1.35148 0
M  V30 1634 H 155.116 -3.73992 -0.0242105 0
M  V30 1635 H 157.408 -6.65375 -1.27602 0
M  V30 1636 H 158.351 -7.07851 0.187813 0
M  V30 1637 H 158.759 -5.59775 -0.728837 0
M  V30 1638 N 158.157 -0.370918 -1.53173 0
M  V30 1639 C 159.403 0.217423 -2.01631 0
M  V30 1640 C 159.736 1.47983 -1.25756 0
M  V30 1641 O 159.011 1.91274 -0.352764 0
M  V30 1642 C 159.294 0.503982 -3.56556 0
M  V30 1643 C 159.147 -0.77243 -4.43118 0
M  V30 1644 C 160.466 1.30234 -4.20389 0
M  V30 1645 H 157.585 0.0775486 -0.732909 0
M  V30 1646 H 160.227 -0.496863 -1.83388 0
M  V30 1647 H 158.377 1.11248 -3.72231 0
M  V30 1648 H 160.049 -1.4098 -4.39229 0
M  V30 1649 H 158.292 -1.39167 -4.10871 0
M  V30 1650 H 158.963 -0.526815 -5.4948 0
M  V30 1651 H 161.439 0.787546 -4.08579 0
M  V30 1652 H 160.315 1.47158 -5.28806 0
M  V30 1653 H 160.576 2.31237 -3.76805 0
M  V30 1654 N 159.635 1.57281 -0.100228 0
M  V30 1655 C 160.598 2.13158 0.842398 0
M  V30 1656 C 161.598 1.06202 1.20738 0
M  V30 1657 O 162.788 1.32066 1.13597 0
M  V30 1658 C 159.92 2.65639 2.13655 0
M  V30 1659 H 161.113 2.97766 0.357114 0
M  V30 1660 H 158.666 1.5559 0.148823 0
M  V30 1661 H 159.401 1.84566 2.66657 0
M  V30 1662 H 159.186 3.43844 1.88451 0
M  V30 1663 H 160.676 3.08846 2.81077 0
M  V30 1664 N 161.113 -0.173488 1.56642 0
M  V30 1665 C 162.361 -0.888706 1.81512 0
M  V30 1666 C 162.682 -1.82875 0.676872 0
M  V30 1667 O 161.952 -1.93536 -0.303414 0
M  V30 1668 H 160.532 -0.331164 0.669582 0
M  V30 1669 H 163.194 -0.173823 1.94123 0
M  V30 1670 H 162.29 -1.46691 2.75478 0
M  V30 1671 N 162.591 -1.51276 -0.441967 0
M  V30 1672 C 163.868 -1.54252 -1.20273 0
M  V30 1673 C 164.248 -0.30408 -2.08898 0
M  V30 1674 O 163.596 0.711084 -2.17154 0
M  V30 1675 C 163.806 -2.85406 -2.00859 0
M  V30 1676 C 165.154 -3.37181 -2.58059 0
M  V30 1677 O 166.178 -2.86925 -2.11074 0
M  V30 1678 O 165.037 -4.24858 -3.43741 0
M  V30 1679 H 162.131 -0.619969 -0.547328 0
M  V30 1680 H 164.677 -1.63586 -0.451413 0
M  V30 1681 H 163.449 -3.67003 -1.35736 0
M  V30 1682 H 163.072 -2.79213 -2.83065 0
M  V30 1683 N 164.069 0.697108 -1.41344 0
M  V30 1684 C 164.979 1.84088 -1.45427 0
M  V30 1685 C 165.995 1.70545 -0.34501 0
M  V30 1686 O 167.171 1.92488 -0.592492 0
M  V30 1687 C 164.236 3.20056 -1.33286 0
M  V30 1688 C 163.297 3.45718 -2.54514 0
M  V30 1689 C 162.53 4.75199 -2.42944 0
M  V30 1690 O 162.753 5.51579 -1.45318 0
M  V30 1691 O 161.687 5.0161 -3.32672 0
M  V30 1692 H 165.513 1.836 -2.41919 0
M  V30 1693 H 163.098 0.849966 -1.22866 0
M  V30 1694 H 164.98 4.01236 -1.28794 0
M  V30 1695 H 163.655 3.2123 -0.39909 0
M  V30 1696 H 162.562 2.64474 -2.64583 0
M  V30 1697 H 163.895 3.49356 -3.46715 0
M  V30 1698 N 165.547 1.27147 0.931209 0
M  V30 1699 C 166.457 1.11372 2.06478 0
M  V30 1700 C 167.473 0.044645 1.73943 0
M  V30 1701 O 168.649 0.250417 1.99837 0
M  V30 1702 C 165.714 0.758838 3.38294 0
M  V30 1703 C 164.775 1.90841 3.84549 0
M  V30 1704 C 164.008 1.57036 5.10074 0
M  V30 1705 O 164.231 0.476645 5.68405 0
M  V30 1706 O 163.165 2.40839 5.51616 0
M  V30 1707 H 166.991 2.06493 2.22698 0
M  V30 1708 H 164.576 1.06301 1.04978 0
M  V30 1709 H 166.458 0.574098 4.17471 0
M  V30 1710 H 165.133 -0.162879 3.2329 0
M  V30 1711 H 164.04 2.14819 3.06274 0
M  V30 1712 H 165.373 2.81021 4.04089 0
M  V30 1713 N 167.025 -1.13721 1.09112 0
M  V30 1714 C 168.253 -1.88773 0.846899 0
M  V30 1715 C 168.668 -1.7896 -0.601572 0
M  V30 1716 O 168.025 -1.15394 -1.41388 0
M  V30 1717 C 168.076 -3.3849 1.26913 0
M  V30 1718 O 167.797 -3.48043 2.66079 0
M  V30 1719 C 169.298 -4.30518 1.05682 0
M  V30 1720 H 166.518 -0.59772 0.304914 0
M  V30 1721 H 169.062 -1.43977 1.45227 0
M  V30 1722 H 167.217 -3.80881 0.707723 0
M  V30 1723 H 167.631 -4.4109 2.83795 0
M  V30 1724 H 169.105 -5.3391 1.40156 0
M  V30 1725 H 169.582 -4.392 -0.00563416 0
M  V30 1726 H 170.188 -3.93893 1.60402 0
M  V30 1727 N 168.503 -0.877838 -1.30888 0
M  V30 1728 C 169.733 -0.506678 -2.00291 0
M  V30 1729 C 170.141 0.907449 -1.66018 0
M  V30 1730 O 169.484 1.60719 -0.88967 0
M  V30 1731 C 169.546 -0.59323 -3.54572 0
M  V30 1732 C 169.21 -1.97038 -4.12341 0
M  V30 1733 C 170.207 -2.93889 -4.28865 0
M  V30 1734 C 167.892 -2.27383 -4.47886 0
M  V30 1735 C 169.886 -4.19224 -4.80136 0
M  V30 1736 C 167.573 -3.52965 -4.98857 0
M  V30 1737 C 168.571 -4.48701 -5.14934 0
M  V30 1738 O 168.259 -5.72056 -5.64808 0
M  V30 1739 H 167.991 -0.1951 -0.647234 0
M  V30 1740 H 170.545 -1.18301 -1.6791 0
M  V30 1741 H 168.775 0.140057 -3.86446 0
M  V30 1742 H 170.464 -0.234372 -4.05223 0
M  V30 1743 H 171.23 -2.71756 -4.01714 0
M  V30 1744 H 167.109 -1.53639 -4.34645 0
M  V30 1745 H 170.653 -4.93956 -4.92599 0
M  V30 1746 H 166.55 -3.74939 -5.25443 0
M  V30 1747 H 167.318 -5.74337 -5.83163 0
M  V30 1748 N 169.982 1.44106 -0.638065 0
M  V30 1749 C 170.892 2.34513 0.0637334 0
M  V30 1750 C 171.908 1.53018 0.828346 0
M  V30 1751 O 173.084 1.85723 0.779036 0
M  V30 1752 C 170.149 3.31095 1.02844 0
M  V30 1753 C 169.21 4.28497 0.26244 0
M  V30 1754 C 168.443 5.20465 1.1812 0
M  V30 1755 O 168.666 5.16514 2.42011 0
M  V30 1756 O 167.6 5.98251 0.661774 0
M  V30 1757 H 171.426 2.95989 -0.68003 0
M  V30 1758 H 169.011 1.43994 -0.398252 0
M  V30 1759 H 170.893 3.90526 1.58327 0
M  V30 1760 H 169.568 2.72144 1.7527 0
M  V30 1761 H 168.475 3.72592 -0.335602 0
M  V30 1762 H 169.808 4.90388 -0.421936 0
M  V30 1763 N 171.46 0.379036 1.52974 0
M  V30 1764 C 172.706 -0.206727 2.01744 0
M  V30 1765 C 173.039 -1.47314 1.26539 0
M  V30 1766 O 172.314 -1.91084 0.362903 0
M  V30 1767 C 172.597 -0.485066 3.56818 0
M  V30 1768 C 172.45 0.795919 4.42702 0
M  V30 1769 C 173.769 -1.28003 4.21074 0
M  V30 1770 H 170.888 -0.0736607 0.73331 0
M  V30 1771 H 173.53 0.506581 1.83122 0
M  V30 1772 H 171.68 -1.09272 3.72816 0
M  V30 1773 H 173.352 1.43307 4.38476 0
M  V30 1774 H 171.595 1.41344 4.10127 0
M  V30 1775 H 172.266 0.555947 5.49193 0
M  V30 1776 H 174.742 -0.765867 4.08991 0
M  V30 1777 H 173.618 -1.44352 5.29579 0
M  V30 1778 H 173.879 -2.29236 3.78026 0
M  V30 1779 N 172.938 -1.57226 0.108567 0
M  V30 1780 C 174.185 -1.94833 -0.551943 0
M  V30 1781 C 174.513 -0.991204 -1.67348 0
M  V30 1782 O 173.768 -0.0131878 -1.95696 0
M  V30 1783 C 174.067 -3.38911 -1.13463 0
M  V30 1784 C 173.733 -4.50696 -0.135509 0
M  V30 1785 C 172.395 -4.80998 0.139252 0
M  V30 1786 C 174.747 -5.18333 0.545957 0
M  V30 1787 C 172.075 -5.76259 1.10194 0
M  V30 1788 C 174.427 -6.14627 1.49721 0
M  V30 1789 C 173.091 -6.43327 1.78006 0
M  V30 1790 H 172.361 -0.712944 -0.20197 0
M  V30 1791 H 175.008 -1.90582 0.18726 0
M  V30 1792 H 173.313 -3.39805 -1.95037 0
M  V30 1793 H 175.01 -3.65317 -1.65362 0
M  V30 1794 H 171.6 -4.27087 -0.359846 0
M  V30 1795 H 175.784 -4.95087 0.346842 0
M  V30 1796 H 171.04 -5.96804 1.32795 0
M  V30 1797 H 175.214 -6.66126 2.03099 0
M  V30 1798 H 172.841 -7.1695 2.52759 0
M  V30 1799 N 174.416 0.165178 -1.56732 0
M  V30 1800 C 175.379 1.18822 -1.95995 0
M  V30 1801 C 176.379 1.3685 -0.84431 0
M  V30 1802 O 177.569 1.34152 -1.11126 0
M  V30 1803 C 174.701 2.5521 -2.26011 0
M  V30 1804 H 175.894 0.851825 -2.87548 0
M  V30 1805 H 173.447 0.407857 -1.50885 0
M  V30 1806 H 174.182 2.93852 -1.37191 0
M  V30 1807 H 173.967 2.43489 -3.07336 0
M  V30 1808 H 175.457 3.28927 -2.57288 0
M  V30 1809 N 175.894 1.51508 0.433938 0
M  V30 1810 C 177.171 1.54888 1.19453 0
M  V30 1811 C 177.551 0.315154 2.08734 0
M  V30 1812 O 176.899 -0.699558 2.17528 0
M  V30 1813 C 177.109 2.86467 1.99342 0
M  V30 1814 C 178.457 3.38545 2.56267 0
M  V30 1815 O 179.481 2.88041 2.0955 0
M  V30 1816 O 178.34 4.26675 3.41483 0
M  V30 1817 H 175.434 0.622863 0.544032 0
M  V30 1818 H 177.98 1.63823 0.442732 0
M  V30 1819 H 176.752 3.67718 1.33788 0
M  V30 1820 H 176.375 2.8071 2.8158 0
M  V30 1821 N 177.372 -0.689602 1.41712 0
M  V30 1822 C 178.302 -1.81577 1.46806 0
M  V30 1823 C 179.283 -1.66945 0.326105 0
M  V30 1824 O 180.468 -1.86588 0.538377 0
M  V30 1825 C 177.598 -3.19762 1.35535 0
M  V30 1826 C 176.552 -3.49107 2.47605 0
M  V30 1827 C 175.878 -4.86711 2.21397 0
M  V30 1828 C 177.178 -3.47483 3.89939 0
M  V30 1829 H 178.872 -1.7757 2.41058 0
M  V30 1830 H 176.418 -0.852887 1.16025 0
M  V30 1831 H 178.371 -3.98263 1.3771 0
M  V30 1832 H 177.095 -3.24409 0.377708 0
M  V30 1833 H 175.754 -2.72959 2.44722 0
M  V30 1834 H 175.402 -4.8799 1.21961 0
M  V30 1835 H 175.102 -5.0731 2.96497 0
M  V30 1836 H 176.626 -5.67515 2.25297 0
M  V30 1837 H 178.04 -4.1598 3.94505 0
M  V30 1838 H 176.437 -3.79615 4.64771 0
M  V30 1839 H 177.507 -2.46341 4.17665 0
M  V30 1840 N 178.85 -1.27639 -0.924453 0
M  V30 1841 C 180.097 -1.14167 -1.67249 0
M  V30 1842 C 180.425 0.311863 -1.91984 0
M  V30 1843 O 179.68 1.24425 -1.51053 0
M  V30 1844 C 179.979 -1.87407 -3.04325 0
M  V30 1845 C 179.645 -3.37249 -2.99289 0
M  V30 1846 C 178.307 -3.7812 -2.97622 0
M  V30 1847 C 180.659 -4.32845 -2.90336 0
M  V30 1848 C 177.987 -5.12944 -2.8479 0
M  V30 1849 C 180.339 -5.6773 -2.79045 0
M  V30 1850 C 179.003 -6.07889 -2.7573 0
M  V30 1851 H 178.273 -0.417766 -0.612007 0
M  V30 1852 H 180.92 -1.58286 -1.07786 0
M  V30 1853 H 179.225 -1.35805 -3.67511 0
M  V30 1854 H 180.922 -1.74408 -3.61086 0
M  V30 1855 H 177.512 -3.04748 -3.01374 0
M  V30 1856 H 181.696 -4.02239 -2.90719 0
M  V30 1857 H 176.952 -5.432 -2.80612 0
M  V30 1858 H 181.126 -6.41472 -2.71083 0
M  V30 1859 H 178.753 -7.12314 -2.65544 0
M  V30 1860 N 180.328 1.1314 -1.09713 0
M  V30 1861 C 181.605 1.80762 -0.747302 0
M  V30 1862 C 181.985 1.96663 0.767265 0
M  V30 1863 O 181.333 1.53706 1.69076 0
M  V30 1864 C 181.543 3.15606 -1.48975 0
M  V30 1865 C 182.891 3.90914 -1.65746 0
M  V30 1866 O 183.915 3.25239 -1.45251 0
M  V30 1867 O 182.774 5.08718 -1.9967 0
M  V30 1868 H 179.868 0.782103 -0.268782 0
M  V30 1869 H 182.414 1.20041 -1.19951 0
M  V30 1870 H 181.186 2.99278 -2.52088 0
M  V30 1871 H 180.809 3.84029 -1.02991 0
M  V30 1872 N 181.806 0.884767 1.30421 0
M  V30 1873 C 183.217 0.553656 1.78302 0
M  V30 1874 C 183.568 -0.930153 1.7275 0
M  V30 1875 O 182.693 -1.72681 1.30423 0
M  V30 1876 C 183.288 0.998234 3.2376 0
M  V30 1877 C 181.847 0.71854 3.69478 0
M  V30 1878 C 180.994 1.18132 2.50879 0
M  V30 1879 H 183.945 1.06901 1.17294 0
M  V30 1880 H 183.966 0.327118 3.79091 0
M  V30 1881 H 183.478 2.0782 3.27769 0
M  V30 1882 H 181.579 -0.349444 3.70958 0
M  V30 1883 H 181.692 1.30595 4.60958 0
M  V30 1884 H 180.056 0.600669 2.47516 0
M  V30 1885 H 180.839 2.26902 2.57624 0
M  V30 1886 N 183.284 -1.43765 0.645699 0
M  V30 1887 C 184.53 -2.02197 0.156271 0
M  V30 1888 C 184.863 -1.50776 -1.22393 0
M  V30 1889 O 184.138 -0.697771 -1.81553 0
M  V30 1890 C 184.421 -3.59749 0.158872 0
M  V30 1891 C 184.274 -4.21419 1.57245 0
M  V30 1892 C 185.593 -4.37149 -0.50879 0
M  V30 1893 H 182.712 -0.734694 0.0582602 0
M  V30 1894 H 185.354 -1.71157 0.824951 0
M  V30 1895 H 183.504 -3.86325 -0.410525 0
M  V30 1896 H 185.176 -4.059 2.19186 0
M  V30 1897 H 183.419 -3.78356 2.122 0
M  V30 1898 H 184.09 -5.30482 1.52619 0
M  V30 1899 H 186.566 -4.16093 -0.024412 0
M  V30 1900 H 185.442 -5.4683 -0.476213 0
M  V30 1901 H 185.703 -4.12839 -1.58165 0
M  V30 1902 N 184.763 -0.387143 -1.52771 0
M  V30 1903 C 186.012 0.19697 -2.00736 0
M  V30 1904 C 186.325 1.48082 -1.27793 0
M  V30 1905 O 187.531 2.14485 -1.66458 0
M  V30 1906 C 185.987 0.401568 -3.57653 0
M  V30 1907 C 185.595 -0.868907 -4.39493 0
M  V30 1908 C 187.339 0.942164 -4.13912 0
M  V30 1909 C 185.246 -0.632705 -5.88006 0
M  V30 1910 H 184.176 0.0773827 -0.750019 0
M  V30 1911 H 186.827 -0.50921 -1.76293 0
M  V30 1912 H 185.209 1.16954 -3.78335 0
M  V30 1913 H 186.383 -1.64133 -4.30577 0
M  V30 1914 H 184.698 -1.33429 -3.94443 0
M  V30 1915 H 187.295 1.13455 -5.22525 0
M  V30 1916 H 187.638 1.9106 -3.69867 0
M  V30 1917 H 188.171 0.233814 -3.97112 0
M  V30 1918 H 184.91 -1.57208 -6.36369 0
M  V30 1919 H 184.43 0.100825 -5.99715 0
M  V30 1920 H 186.109 -0.26642 -6.46451 0
M  V30 1921 N 186.241 1.57166 -0.116904 0
M  V30 1922 C 187.173 2.12271 0.864507 0
M  V30 1923 C 188.186 1.06494 1.23138 0
M  V30 1924 O 189.375 1.33873 1.18069 0
M  V30 1925 C 186.475 2.60564 2.16702 0
M  V30 1926 C 185.648 3.90416 1.97216 0
M  V30 1927 C 184.707 4.24329 3.11178 0
M  V30 1928 O 183.733 4.93182 2.84184 0
M  V30 1929 N 184.935 3.8148 4.37554 0
M  V30 1930 H 187.7 2.97102 0.393726 0
M  V30 1931 H 185.261 1.61759 0.0675805 0
M  V30 1932 H 187.253 2.80282 2.91932 0
M  V30 1933 H 185.823 1.80623 2.55135 0
M  V30 1934 H 185.043 3.79627 1.06192 0
M  V30 1935 H 186.331 4.75327 1.81499 0
M  V30 1936 H 185.729 3.25943 4.62361 0
M  V30 1937 H 184.286 4.06311 5.09661 0
M  V30 1938 N 187.719 -0.156864 1.56817 0
M  V30 1939 C 188.629 -1.2136 2.00771 0
M  V30 1940 C 189.645 -1.47598 0.921459 0
M  V30 1941 O 190.821 -1.59462 1.2302 0
M  V30 1942 C 187.886 -2.52943 2.37109 0
M  V30 1943 C 186.947 -2.34439 3.59634 0
M  V30 1944 C 186.18 -3.59748 3.94229 0
M  V30 1945 O 186.403 -4.65526 3.29609 0
M  V30 1946 O 185.337 -3.52998 4.8752 0
M  V30 1947 H 189.163 -0.870468 2.90958 0
M  V30 1948 H 186.748 -0.36484 1.44877 0
M  V30 1949 H 188.63 -3.30538 2.61386 0
M  V30 1950 H 187.305 -2.86806 1.5008 0
M  V30 1951 H 186.212 -1.54828 3.40557 0
M  V30 1952 H 187.545 -2.05496 4.4725 0
M  V30 1953 N 189.197 -1.51736 -0.425897 0
M  V30 1954 C 190.613 -1.40166 -0.76326 0
M  V30 1955 C 190.813 -0.492962 -1.95377 0
M  V30 1956 O 189.869 0.0475815 -2.52455 0
M  V30 1957 C 191.182 -2.82403 -1.03291 0
M  V30 1958 C 192.73 -2.91632 -1.13665 0
M  V30 1959 C 193.205 -4.34801 -1.43916 0
M  V30 1960 N 194.696 -4.3796 -1.50816 0
M  V30 1961 C 195.431 -5.4578 -1.75817 0
M  V30 1962 N 194.927 -6.63744 -1.98534 0
M  V30 1963 N 196.72 -5.33274 -1.77694 0
M  V30 1964 H 188.871 -2.09361 0.358 0
M  V30 1965 H 191.134 -0.942941 0.0978094 0
M  V30 1966 H 190.84 -3.50943 -0.230696 0
M  V30 1967 H 190.714 -3.22428 -1.95754 0
M  V30 1968 H 193.101 -2.23284 -1.92947 0
M  V30 1969 H 193.182 -2.55088 -0.190756 0
M  V30 1970 H 192.826 -5.03703 -0.65157 0
M  V30 1971 H 192.756 -4.68868 -2.39729 0
M  V30 1972 H 195.247 -3.52919 -1.35118 0
M  V30 1973 H 195.56 -7.41704 -2.17013 0
M  V30 1974 H 193.905 -6.66839 -1.95832 0
M  V30 1975 H 197.096 -4.40098 -1.59473 0
M  V30 1976 H 197.269 -6.1738 -1.9684 0
M  V30 1977 N 190.675 0.682077 -1.42076 0
M  V30 1978 C 191.625 1.78823 -1.41444 0
M  V30 1979 C 192.609 1.58323 -0.28681 0
M  V30 1980 O 193.801 1.68926 -0.528498 0
M  V30 1981 C 190.93 3.17232 -1.3122 0
M  V30 1982 C 190.016 3.4338 -2.489 0
M  V30 1983 N 190.407 3.40152 -3.7434 0
M  V30 1984 C 188.705 3.73986 -2.43003 0
M  V30 1985 C 189.406 3.65581 -4.52466 0
M  V30 1986 N 188.382 3.85989 -3.8277 0
M  V30 1987 H 192.184 1.7471 -2.36334 0
M  V30 1988 H 189.698 0.882622 -1.36321 0
M  V30 1989 H 191.695 3.96489 -1.2885 0
M  V30 1990 H 190.355 3.22547 -0.373263 0
M  V30 1991 H 191.366 3.20221 -4.07037 0
M  V30 1992 H 188.043 3.86591 -1.57651 0
M  V30 1993 H 189.433 3.69108 -5.61435 0
M  V30 1994 N 192.153 1.28127 0.917671 0
M  V30 1995 C 193.101 1.11569 2.04096 0
M  V30 1996 C 194.095 0.0360242 1.69362 0
M  V30 1997 O 195.301 0.194501 1.78946 0
M  V30 1998 H 191.676 0.344097 0.668656 0
M  V30 1999 H 193.647 2.06711 2.15205 0
M  V30 2000 C 192.396 0.790197 3.38602 0
M  V30 2001 H 191.719 1.61293 3.6582 0
M  V30 2002 H 193.159 0.714271 4.1794 0
M  V30 2003 C 191.618 -0.505897 3.3308 0
M  V30 2004 O 192.148 -1.53736 3.71117 0
M  V30 2005 N 190.354 -0.505193 2.86175 0
M  V30 2006 H 189.901 0.334621 2.55417 0
M  V30 2007 H 189.859 -1.37243 2.82863 0
M  V30 2008 N 193.631 -1.12557 1.10312 0
M  V30 2009 C 194.879 -1.83675 0.843091 0
M  V30 2010 C 195.2 -1.84435 -0.633131 0
M  V30 2011 O 194.47 -1.30657 -1.45964 0
M  V30 2012 H 193.05 -0.680138 0.308904 0
M  V30 2013 H 195.712 -1.36301 1.39313 0
M  V30 2014 H 194.808 -2.87908 1.2048 0
M  V30 2015 N 195.109 -0.891671 -1.2995 0
M  V30 2016 C 196.339 -0.527893 -1.99742 0
M  V30 2017 C 196.747 0.88979 -1.66971 0
M  V30 2018 O 196.09 1.59766 -0.906667 0
M  V30 2019 C 196.152 -0.630804 -3.53922 0
M  V30 2020 C 195.816 -2.01401 -4.10228 0
M  V30 2021 C 196.813 -2.98422 -4.25724 0
M  V30 2022 C 194.498 -2.32121 -4.45449 0
M  V30 2023 C 196.492 -4.24293 -4.75662 0
M  V30 2024 C 194.179 -3.58237 -4.95086 0
M  V30 2025 C 195.177 -4.54137 -5.10146 0
M  V30 2026 O 194.865 -5.78014 -5.58708 0
M  V30 2027 H 194.597 -0.201953 -0.645129 0
M  V30 2028 H 197.151 -1.20076 -1.66646 0
M  V30 2029 H 195.381 0.0990616 -3.86573 0
M  V30 2030 H 197.07 -0.277338 -4.04951 0
M  V30 2031 H 197.836 -2.76001 -3.98809 0
M  V30 2032 H 193.715 -1.5824 -4.32991 0
M  V30 2033 H 197.259 -4.99153 -4.87332 0
M  V30 2034 H 193.156 -3.80491 -5.21437 0
M  V30 2035 H 193.924 -5.8049 -5.77039 0
M  V30 2036 N 196.587 1.43421 -0.653314 0
M  V30 2037 C 197.864 1.95361 -0.0966581 0
M  V30 2038 C 198.244 1.59461 1.38331 0
M  V30 2039 O 197.592 0.879777 2.10884 0
M  V30 2040 C 197.802 3.47311 -0.342988 0
M  V30 2041 C 199.15 4.23875 -0.24798 0
M  V30 2042 O 200.174 3.55133 -0.275553 0
M  V30 2043 O 199.033 5.4623 -0.171771 0
M  V30 2044 H 196.127 0.826945 0.00956291 0
M  V30 2045 H 198.673 1.5336 -0.726558 0
M  V30 2046 H 197.445 3.66569 -1.36906 0
M  V30 2047 H 197.068 3.9631 0.319975 0
M  V30 2048 N 198.065 0.39524 1.52563 0
M  V30 2049 C 199.476 -0.0774719 1.86539 0
M  V30 2050 C 199.827 -1.45641 1.31466 0
M  V30 2051 O 198.952 -2.06459 0.648367 0
M  V30 2052 C 199.547 -0.147356 3.38479 0
M  V30 2053 C 198.106 -0.564373 3.72145 0
M  V30 2054 C 197.253 0.269919 2.75983 0
M  V30 2055 H 200.204 0.612876 1.46388 0
M  V30 2056 H 200.225 -0.965343 3.68051 0
M  V30 2057 H 199.737 0.856387 3.78534 0
M  V30 2058 H 197.838 -1.57527 3.37663 0
M  V30 2059 H 197.951 -0.318402 4.78041 0
M  V30 2060 H 196.315 -0.265696 2.5331 0
M  V30 2061 H 197.098 1.27175 3.18875 0
M  V30 2062 N 199.544 -1.57102 0.125237 0
M  V30 2063 C 200.96 -1.57915 -0.231322 0
M  V30 2064 C 201.16 -1.13833 -1.66266 0
M  V30 2065 O 200.216 -0.828581 -2.38518 0
M  V30 2066 C 201.529 -3.00699 0.00766489 0
M  V30 2067 C 203.077 -3.12947 -0.0577483 0
M  V30 2068 C 203.552 -4.57742 0.153626 0
M  V30 2069 N 205.043 -4.63092 0.0998073 0
M  V30 2070 C 205.778 -5.72905 0.238174 0
M  V30 2071 N 205.274 -6.91445 0.433057 0
M  V30 2072 N 207.067 -5.6182 0.177308 0
M  V30 2073 H 199.218 -1.84055 1.06007 0
M  V30 2074 H 201.481 -0.850905 0.417929 0
M  V30 2075 H 201.187 -3.3726 0.997431 0
M  V30 2076 H 201.061 -3.70236 -0.721452 0
M  V30 2077 H 203.448 -2.7624 -1.03804 0
M  V30 2078 H 203.529 -2.4594 0.70335 0
M  V30 2079 H 203.173 -4.95149 1.13092 0
M  V30 2080 H 203.103 -5.22848 -0.627534 0
M  V30 2081 H 205.594 -3.77871 -0.047051 0
M  V30 2082 H 205.907 -7.70985 0.529332 0
M  V30 2083 H 204.252 -6.93415 0.469109 0
M  V30 2084 H 207.443 -4.68093 0.0259748 0
M  V30 2085 H 207.616 -6.47357 0.288582 0
M  V30 2086 N 201.022 0.148545 -1.56898 0
M  V30 2087 C 202.25 0.876389 -1.87422 0
M  V30 2088 C 202.665 1.74809 -0.713256 0
M  V30 2089 O 202.022 1.79725 0.317025 0
M  V30 2090 C 202.073 1.73438 -3.17178 0
M  V30 2091 O 201.794 0.897809 -4.28802 0
M  V30 2092 C 203.295 2.56993 -3.61205 0
M  V30 2093 H 200.515 0.253489 -0.621277 0
M  V30 2094 H 203.059 0.141798 -2.04008 0
M  V30 2095 H 201.214 2.42205 -3.0235 0
M  V30 2096 H 201.628 1.48672 -5.02988 0
M  V30 2097 H 203.102 3.12773 -4.54838 0
M  V30 2098 H 203.579 3.32958 -2.86419 0
M  V30 2099 H 204.185 1.9352 -3.78722 0
M  V30 2100 N 202.5 1.5196 0.417844 0
M  V30 2101 C 203.433 1.69387 1.52916 0
M  V30 2102 C 204.411 0.541419 1.53321 0
M  V30 2103 O 205.595 0.767695 1.72159 0
M  V30 2104 C 202.722 1.72525 2.91467 0
M  V30 2105 C 201.768 2.93967 3.09008 0
M  V30 2106 S 202.601 4.54461 2.83242 0
M  V30 2107 C 203.757 4.60372 4.24038 0
M  V30 2108 H 203.99 2.63382 1.37903 0
M  V30 2109 H 201.523 1.41889 0.608845 0
M  V30 2110 H 203.481 1.75018 3.7132 0
M  V30 2111 H 202.142 0.796733 3.03827 0
M  V30 2112 H 201.335 2.92619 4.10353 0
M  V30 2113 H 200.937 2.89316 2.37007 0
M  V30 2114 H 203.229 4.37213 5.17544 0
M  V30 2115 H 204.172 5.62273 4.30412 0
M  V30 2116 H 204.58 3.89492 4.08602 0
M  V30 2117 N 203.978 -0.674533 1.42435 0
M  V30 2118 C 204.925 -1.78807 1.45934 0
M  V30 2119 C 205.895 -1.63157 0.311271 0
M  V30 2120 O 207.08 -1.83707 0.515383 0
M  V30 2121 C 204.22 -3.16839 1.36773 0
M  V30 2122 C 203.333 -3.43774 2.61617 0
M  V30 2123 C 202.468 -4.71536 2.44597 0
M  V30 2124 C 201.507 -4.91505 3.64814 0
M  V30 2125 N 200.644 -6.10508 3.46734 0
M  V30 2126 H 205.484 -1.75151 2.41093 0
M  V30 2127 H 203.021 -0.85504 1.19697 0
M  V30 2128 H 204.979 -3.96606 1.29459 0
M  V30 2129 H 203.609 -3.19619 0.452089 0
M  V30 2130 H 202.661 -2.58259 2.79297 0
M  V30 2131 H 203.973 -3.54423 3.50978 0
M  V30 2132 H 203.127 -5.59393 2.3487 0
M  V30 2133 H 201.866 -4.6317 1.52726 0
M  V30 2134 H 200.871 -4.0209 3.74972 0
M  V30 2135 H 202.096 -5.01716 4.57665 0
M  V30 2136 H 200.042 -6.03315 2.5758 0
M  V30 2137 H 199.959 -6.2202 4.29682 0
M  V30 2138 H 201.227 -7.01044 3.40819 0
M  V30 2139 N 205.456 -1.28612 -0.910864 0
M  V30 2140 C 206.406 -1.09423 -2.00026 0
M  V30 2141 C 207.39 -0.0170079 -1.60891 0
M  V30 2142 O 208.582 -0.237472 -1.754 0
M  V30 2143 C 205.711 -0.76114 -3.34756 0
M  V30 2144 C 204.797 -1.87735 -3.80285 0
M  V30 2145 N 205.188 -3.11938 -3.98156 0
M  V30 2146 C 203.486 -1.76786 -4.09467 0
M  V30 2147 C 204.187 -3.84687 -4.36338 0
M  V30 2148 N 203.163 -3.12555 -4.44759 0
M  V30 2149 H 206.965 -2.03658 -2.11898 0
M  V30 2150 H 204.479 -1.19573 -1.09891 0
M  V30 2151 H 206.476 -0.604743 -4.12491 0
M  V30 2152 H 205.136 0.173403 -3.24237 0
M  V30 2153 H 206.147 -3.47516 -3.83996 0
M  V30 2154 H 202.824 -0.905284 -4.07567 0
M  V30 2155 H 204.214 -4.91518 -4.58104 0
M  V30 2156 N 206.934 1.1197 -1.10907 0
M  V30 2157 C 208.162 1.87402 -0.876824 0
M  V30 2158 C 208.577 1.79894 0.573025 0
M  V30 2159 O 207.934 1.17629 1.39534 0
M  V30 2160 C 207.985 3.36428 -1.32282 0
M  V30 2161 O 207.706 3.43765 -2.71582 0
M  V30 2162 C 209.207 4.28783 -1.12518 0
M  V30 2163 H 206.427 0.592793 -0.314384 0
M  V30 2164 H 208.971 1.41649 -1.47499 0
M  V30 2165 H 207.126 3.79706 -0.768229 0
M  V30 2166 H 207.54 4.3652 -2.90776 0
M  V30 2167 H 209.014 5.31613 -1.48633 0
M  V30 2168 H 209.491 4.39153 -0.0642394 0
M  V30 2169 H 210.097 3.91291 -1.66648 0
M  V30 2170 N 208.412 0.89855 1.29475 0
M  V30 2171 C 209.64 0.539261 1.99749 0
M  V30 2172 C 210.055 -0.875716 1.67262 0
M  V30 2173 O 209.412 -1.57786 0.917049 0
M  V30 2174 C 209.463 0.72061 3.54245 0
M  V30 2175 O 209.184 2.07989 3.8558 0
M  V30 2176 C 210.685 0.366118 4.41786 0
M  V30 2177 H 207.905 0.207047 0.638258 0
M  V30 2178 H 210.449 1.20758 1.65039 0
M  V30 2179 H 208.604 0.0994862 3.87272 0
M  V30 2180 H 209.018 2.10841 4.80257 0
M  V30 2181 H 210.492 0.543848 5.49314 0
M  V30 2182 H 210.969 -0.696763 4.33638 0
M  V30 2183 H 211.575 0.964135 4.14228 0
M  V30 2184 N 209.89 -1.43072 0.660911 0
M  V30 2185 C 211.167 -1.95307 0.107017 0
M  V30 2186 C 211.547 -1.60192 -1.37484 0
M  V30 2187 O 210.895 -0.890949 -2.10415 0
M  V30 2188 C 211.105 -3.47124 0.361402 0
M  V30 2189 C 212.453 -4.23738 0.270455 0
M  V30 2190 O 213.477 -3.54981 0.294382 0
M  V30 2191 O 212.336 -5.46131 0.200737 0
M  V30 2192 H 209.43 -0.826984 -0.00517729 0
M  V30 2193 H 211.976 -1.52972 0.734681 0
M  V30 2194 H 210.748 -3.65837 1.38848 0
M  V30 2195 H 210.371 -3.96475 -0.298953 0
M  V30 2196 N 211.368 -0.403325 -1.52352 0
M  V30 2197 C 212.298 0.416205 -2.29761 0
M  V30 2198 C 213.279 1.05123 -1.33728 0
M  V30 2199 O 214.464 1.06134 -1.62632 0
M  V30 2200 C 211.594 1.53624 -3.11475 0
M  V30 2201 C 210.548 1.02653 -4.15507 0
M  V30 2202 C 209.874 2.23971 -4.85532 0
M  V30 2203 C 211.174 0.08463 -5.22231 0
M  V30 2204 H 212.868 -0.229701 -2.98518 0
M  V30 2205 H 210.414 -0.111913 -1.43564 0
M  V30 2206 H 212.367 2.1165 -3.64393 0
M  V30 2207 H 211.091 2.20994 -2.40477 0
M  V30 2208 H 209.75 0.46871 -3.63591 0
M  V30 2209 H 209.398 2.89883 -4.11068 0
M  V30 2210 H 209.098 1.90521 -5.55856 0
M  V30 2211 H 210.622 2.82614 -5.41259 0
M  V30 2212 H 212.036 0.573509 -5.70424 0
M  V30 2213 H 210.433 -0.160783 -5.99885 0
M  V30 2214 H 211.503 -0.86237 -4.7717 0
M  V30 2215 N 212.846 1.57033 -0.133567 0
M  V30 2216 C 214.123 1.87256 0.56522 0
M  V30 2217 C 214.503 1.03726 1.83859 0
M  V30 2218 O 213.851 0.120247 2.28183 0
M  V30 2219 C 214.061 3.3865 0.843636 0
M  V30 2220 C 215.409 4.07574 1.19032 0
M  V30 2221 O 216.433 3.43752 0.933429 0
M  V30 2222 O 215.292 5.20259 1.67312 0
M  V30 2223 H 212.386 0.775678 0.286796 0
M  V30 2224 H 214.932 1.68855 -0.169168 0
M  V30 2225 H 213.704 3.91257 -0.0581149 0
M  V30 2226 H 213.327 3.62532 1.63268 0
M  V30 2227 N 214.325 -0.140222 1.56975 0
M  V30 2228 C 215.288 -1.15689 1.97861 0
M  V30 2229 C 216.288 -1.3549 0.865974 0
M  V30 2230 O 217.478 -1.32367 1.13246 0
M  V30 2231 C 214.61 -2.51582 2.30042 0
M  V30 2232 H 215.803 -0.805971 2.88867 0
M  V30 2233 H 213.356 -0.383801 1.51515 0
M  V30 2234 H 214.091 -2.91632 1.41849 0
M  V30 2235 H 213.876 -2.38569 3.11171 0
M  V30 2236 H 215.366 -3.24792 2.62488 0
M  V30 2237 N 215.803 -1.52179 -0.40978 0
M  V30 2238 C 217.028 -1.70347 -1.18308 0
M  V30 2239 C 217.453 -0.411887 -1.83535 0
M  V30 2240 O 216.811 0.630587 -1.6998 0
M  V30 2241 C 216.859 -2.83977 -2.22238 0
M  V30 2242 O 215.963 -2.495 -3.28365 0
M  V30 2243 H 215.304 -0.567103 -0.345384 0
M  V30 2244 H 217.834 -1.98879 -0.480445 0
M  V30 2245 H 217.844 -3.0887 -2.66577 0
M  V30 2246 H 216.519 -3.77685 -1.74146 0
M  V30 2247 H 215.096 -2.35277 -2.89308 0
M  V30 2248 N 217.281 0.66697 -1.42791 0
M  V30 2249 C 218.228 1.7803 -1.4688 0
M  V30 2250 C 219.198 1.6299 -0.319919 0
M  V30 2251 O 220.383 1.83432 -0.525118 0
M  V30 2252 C 217.523 3.1611 -1.38451 0
M  V30 2253 C 216.636 3.42381 -2.63437 0
M  V30 2254 C 215.771 4.70232 -2.47094 0
M  V30 2255 C 214.81 4.89564 -3.67415 0
M  V30 2256 N 213.947 6.08661 -3.49966 0
M  V30 2257 H 218.787 1.7387 -2.42019 0
M  V30 2258 H 216.324 0.84868 -1.20149 0
M  V30 2259 H 218.282 3.95914 -1.31561 0
M  V30 2260 H 216.912 3.19374 -0.469033 0
M  V30 2261 H 215.964 2.56774 -2.80662 0
M  V30 2262 H 217.276 3.52557 -3.52853 0
M  V30 2263 H 216.43 5.5814 -2.37834 0
M  V30 2264 H 215.169 4.62353 -1.5518 0
M  V30 2265 H 214.174 4.00096 -3.77099 0
M  V30 2266 H 215.399 4.99282 -4.6032 0
M  V30 2267 H 213.345 6.0194 -2.60776 0
M  V30 2268 H 213.262 6.19733 -4.32975 0
M  V30 2269 H 214.53 6.99226 -3.44532 0
M  V30 2270 N 218.759 1.29093 0.90403 0
M  V30 2271 C 220.008 1.16187 1.64874 0
M  V30 2272 C 220.321 -0.286742 1.93487 0
M  V30 2273 O 221.527 -0.537062 2.66135 0
M  V30 2274 C 219.983 2.03177 2.97064 0
M  V30 2275 C 219.591 3.52836 2.76062 0
M  V30 2276 C 221.335 1.98984 3.74974 0
M  V30 2277 C 219.242 4.31945 4.03952 0
M  V30 2278 H 218.172 0.431246 0.618501 0
M  V30 2279 H 220.823 1.53699 1.00243 0
M  V30 2280 H 219.205 1.5853 3.62883 0
M  V30 2281 H 220.379 4.05507 2.18863 0
M  V30 2282 H 218.694 3.58656 2.11553 0
M  V30 2283 H 221.291 2.55351 4.69787 0
M  V30 2284 H 221.634 0.968815 4.0487 0
M  V30 2285 H 222.167 2.41652 3.15989 0
M  V30 2286 H 218.906 5.34667 3.79225 0
M  V30 2287 H 218.426 3.84045 4.60727 0
M  V30 2288 H 220.105 4.42379 4.72133 0
M  V30 2289 N 220.237 -1.11381 1.11499 0
M  V30 2290 C 221.653 -1.35143 0.849031 0
M  V30 2291 C 221.853 -1.94515 -0.525938 0
M  V30 2292 O 220.909 -2.1785 -1.27662 0
M  V30 2293 C 222.222 -2.28249 1.95762 0
M  V30 2294 C 223.77 -2.41812 1.98736 0
M  V30 2295 C 224.245 -3.3824 3.088 0
M  V30 2296 N 225.736 -3.45803 3.08179 0
M  V30 2297 C 226.471 -4.20358 3.89982 0
M  V30 2298 N 225.967 -4.97884 4.8175 0
M  V30 2299 N 227.76 -4.15877 3.78157 0
M  V30 2300 H 219.911 -0.712062 2.00109 0
M  V30 2301 H 222.174 -0.376025 0.870235 0
M  V30 2302 H 221.88 -1.91817 2.94787 0
M  V30 2303 H 221.754 -3.28473 1.85433 0
M  V30 2304 H 224.141 -2.77518 1.00338 0
M  V30 2305 H 224.222 -1.41437 2.13141 0
M  V30 2306 H 223.866 -3.03261 4.07425 0
M  V30 2307 H 223.796 -4.38471 2.91635 0
M  V30 2308 H 226.287 -2.90506 2.41691 0
M  V30 2309 H 226.6 -5.52142 5.40702 0
M  V30 2310 H 224.945 -4.97043 4.85771 0
M  V30 2311 H 228.136 -3.544 3.05808 0
M  V30 2312 H 228.309 -4.73723 4.42143 0
M  V30 2313 N 221.715 -0.905404 -1.28997 0
M  V30 2314 C 222.94 -0.549175 -1.99997 0
M  V30 2315 C 223.365 0.860276 -1.67275 0
M  V30 2316 O 222.723 1.57355 -0.900502 0
M  V30 2317 C 222.771 -0.755185 -3.52604 0
M  V30 2318 O 221.875 0.189692 -4.11964 0
M  V30 2319 H 221.216 -0.213899 -0.628604 0
M  V30 2320 H 223.746 -1.21856 -1.64354 0
M  V30 2321 H 223.756 -0.662045 -4.02593 0
M  V30 2322 H 222.431 -1.78271 -3.75755 0
M  V30 2323 H 221.008 0.0485257 -3.72868 0
M  V30 2324 N 223.193 1.4272 -0.668489 0
M  V30 2325 C 224.441 2.01226 -0.187769 0
M  V30 2326 C 224.762 1.53092 1.2078 0
M  V30 2327 O 224.032 0.74993 1.80977 0
M  V30 2328 H 222.612 0.744041 -0.0664272 0
M  V30 2329 H 225.274 1.74723 -0.863583 0
M  V30 2330 H 224.37 3.11556 -0.184166 0
M  V30 2331 N 224.671 0.411399 1.52136 0
M  V30 2332 C 225.901 -0.16284 2.05957 0
M  V30 2333 C 226.309 -1.3922 1.28119 0
M  V30 2334 O 225.652 -1.80768 0.326881 0
M  V30 2335 C 225.714 -0.575946 3.54856 0
M  V30 2336 C 225.378 0.542998 4.53763 0
M  V30 2337 C 226.375 1.40726 5.00492 0
M  V30 2338 C 224.06 0.716337 4.97166 0
M  V30 2339 C 226.054 2.4298 5.8927 0
M  V30 2340 C 223.741 1.74218 5.8574 0
M  V30 2341 C 224.739 2.59731 6.31687 0
M  V30 2342 O 224.427 3.60558 7.18507 0
M  V30 2343 H 224.159 -0.0229125 0.675612 0
M  V30 2344 H 226.713 0.581634 1.96993 0
M  V30 2345 H 224.943 -1.37274 3.61515 0
M  V30 2346 H 226.632 -1.07836 3.91313 0
M  V30 2347 H 227.398 1.28476 4.67674 0
M  V30 2348 H 223.277 0.0603857 4.6096 0
M  V30 2349 H 226.821 3.0976 6.25055 0
M  V30 2350 H 222.718 1.86498 6.17971 0
M  V30 2351 H 223.486 3.56829 7.36624 0
M  V30 2352 N 226.149 -1.5696 0.141893 0
M  V30 2353 C 227.396 -1.9596 -0.510492 0
M  V30 2354 C 227.724 -1.02648 -1.65208 0
M  V30 2355 O 226.979 -0.0546947 -1.95624 0
M  V30 2356 C 227.278 -3.41242 -1.06249 0
M  V30 2357 C 226.944 -4.50882 -0.0398791 0
M  V30 2358 C 225.606 -4.80595 0.241247 0
M  V30 2359 C 227.958 -5.17058 0.65578 0
M  V30 2360 C 225.286 -5.73792 1.22393 0
M  V30 2361 C 227.638 -6.11313 1.62724 0
M  V30 2362 C 226.302 -6.39407 1.91612 0
M  V30 2363 H 225.572 -0.717068 -0.186802 0
M  V30 2364 H 228.219 -1.90142 0.227643 0
M  V30 2365 H 226.524 -3.43866 -1.87785 0
M  V30 2366 H 228.221 -3.68742 -1.57576 0
M  V30 2367 H 224.811 -4.27754 -0.269174 0
M  V30 2368 H 228.995 -4.94239 0.451779 0
M  V30 2369 H 224.251 -5.93853 1.45424 0
M  V30 2370 H 228.425 -6.61668 2.17183 0
M  V30 2371 H 226.052 -7.11427 2.6791 0
M  V30 2372 N 227.627 0.131896 -1.57047 0
M  V30 2373 C 228.904 0.871495 -1.75112 0
M  V30 2374 C 229.284 1.9866 -0.713949 0
M  V30 2375 O 228.632 2.26965 0.264447 0
M  V30 2376 C 228.842 1.40007 -3.19686 0
M  V30 2377 C 230.19 1.85752 -3.81813 0
M  V30 2378 O 231.214 1.49715 -3.23209 0
M  V30 2379 O 230.073 2.5226 -4.84796 0
M  V30 2380 H 227.167 0.412919 -0.716538 0
M  V30 2381 H 229.713 0.116641 -1.69299 0
M  V30 2382 H 228.485 0.599404 -3.86682 0
M  V30 2383 H 228.108 2.218 -3.29986 0
M  V30 2384 N 229.106 1.52395 0.401703 0
M  V30 2385 C 230.016 1.7917 1.51444 0
M  V30 2386 C 231.032 0.677691 1.6026 0
M  V30 2387 O 232.208 0.963909 1.76835 0
M  V30 2388 C 229.273 1.94347 2.87107 0
M  V30 2389 C 228.334 3.18257 2.88116 0
M  V30 2390 C 227.567 3.32701 4.17308 0
M  V30 2391 O 227.79 2.52238 5.11598 0
M  V30 2392 O 226.724 4.25891 4.25324 0
M  V30 2393 H 230.55 2.73633 1.31752 0
M  V30 2394 H 228.135 1.3733 0.588296 0
M  V30 2395 H 230.017 2.06109 3.67555 0
M  V30 2396 H 228.692 1.03073 3.06851 0
M  V30 2397 H 227.599 3.11947 2.06494 0
M  V30 2398 H 228.932 4.09336 2.73322 0
M  V30 2399 N 230.584 -0.659388 1.43143 0
M  V30 2400 C 232 -0.974337 1.26407 0
M  V30 2401 C 232.2 -2.007 0.179341 0
M  V30 2402 O 231.256 -2.4856 -0.444295 0
M  V30 2403 C 232.569 -1.46447 2.62628 0
M  V30 2404 C 234.117 -1.58144 2.7011 0
M  V30 2405 C 234.592 -2.1055 4.06734 0
M  V30 2406 N 236.083 -2.17861 4.08767 0
M  V30 2407 C 236.818 -2.59519 5.1131 0
M  V30 2408 N 236.314 -3.00518 6.24228 0
M  V30 2409 N 238.107 -2.59404 4.98664 0
M  V30 2410 H 230.258 0.0240528 2.12386 0
M  V30 2411 H 232.521 -0.0518065 0.946583 0
M  V30 2412 H 232.227 -0.780123 3.42939 0
M  V30 2413 H 232.101 -2.44058 2.87603 0
M  V30 2414 H 234.488 -2.25682 1.90136 0
M  V30 2415 H 234.569 -0.589828 2.48907 0
M  V30 2416 H 234.213 -1.43616 4.87172 0
M  V30 2417 H 234.143 -3.10531 4.25298 0
M  V30 2418 H 236.634 -1.88975 3.27257 0
M  V30 2419 H 236.947 -3.31036 6.98309 0
M  V30 2420 H 235.292 -2.98337 6.2771 0
M  V30 2421 H 238.483 -2.26747 4.09516 0
M  V30 2422 H 238.656 -2.91548 5.78709 0
M  V30 2423 N 232.062 -1.29571 -0.897171 0
M  V30 2424 C 233.292 -1.20408 -1.67886 0
M  V30 2425 C 233.7 0.237429 -1.87704 0
M  V30 2426 O 233.043 1.17048 -1.41582 0
M  V30 2427 C 233.105 -1.84887 -3.08314 0
M  V30 2428 C 232.769 -3.34189 -3.11716 0
M  V30 2429 C 233.766 -4.30374 -2.91675 0
M  V30 2430 C 231.451 -3.75431 -3.33701 0
M  V30 2431 C 233.445 -5.65776 -2.93557 0
M  V30 2432 C 231.132 -5.10955 -3.35214 0
M  V30 2433 C 232.13 -6.05938 -3.15164 0
M  V30 2434 O 231.818 -7.38987 -3.1647 0
M  V30 2435 H 231.55 -0.418289 -0.531046 0
M  V30 2436 H 234.104 -1.71514 -1.13014 0
M  V30 2437 H 232.334 -1.28295 -3.64798 0
M  V30 2438 H 234.023 -1.70011 -3.6858 0
M  V30 2439 H 234.789 -3.99844 -2.74499 0
M  V30 2440 H 230.668 -3.01953 -3.48347 0
M  V30 2441 H 234.212 -6.39889 -2.77826 0
M  V30 2442 H 230.109 -5.4113 -3.51922 0
M  V30 2443 H 230.877 -7.47823 -3.3272 0
M  V30 2444 N 233.54 1.10788 -1.12088 0
M  V30 2445 C 234.786 1.82942 -0.875226 0
M  V30 2446 C 235.119 1.84779 0.597538 0
M  V30 2447 O 234.394 1.30578 1.44152 0
M  V30 2448 C 234.677 3.29789 -1.44606 0
M  V30 2449 C 234.53 3.36307 -2.98693 0
M  V30 2450 C 235.849 4.26064 -1.10261 0
M  V30 2451 H 232.968 0.664195 -0.319397 0
M  V30 2452 H 235.61 1.29867 -1.38689 0
M  V30 2453 H 233.76 3.75118 -1.01089 0
M  V30 2454 H 235.432 2.99487 -3.50864 0
M  V30 2455 H 233.675 2.76318 -3.34411 0
M  V30 2456 H 234.346 4.39694 -3.33726 0
M  V30 2457 H 236.822 3.88951 -1.4784 0
M  V30 2458 H 235.698 5.27183 -1.52869 0
M  V30 2459 H 235.959 4.42098 -0.0142953 0
M  V30 2460 N 235.018 0.912232 1.28515 0
M  V30 2461 C 235.948 0.416403 2.29757 0
M  V30 2462 C 236.929 -0.515194 1.6211 0
M  V30 2463 O 238.114 -0.423253 1.89532 0
M  V30 2464 C 235.244 -0.34572 3.45575 0
M  V30 2465 C 234.198 0.496599 4.25109 0
M  V30 2466 C 233.524 -0.393771 5.33248 0
M  V30 2467 C 234.824 1.75307 4.92001 0
M  V30 2468 H 236.518 1.26249 2.7148 0
M  V30 2469 H 234.064 0.608515 1.30511 0
M  V30 2470 H 236.017 -0.703422 4.15488 0
M  V30 2471 H 234.741 -1.2257 3.02728 0
M  V30 2472 H 233.4 0.8368 3.56922 0
M  V30 2473 H 233.048 -1.27225 4.86644 0
M  V30 2474 H 232.748 0.166209 5.87365 0
M  V30 2475 H 234.272 -0.747389 6.06009 0
M  V30 2476 H 235.686 1.46437 5.54283 0
M  V30 2477 H 234.083 2.25534 5.56106 0
M  V30 2478 H 235.153 2.48176 4.16577 0
M  V30 2479 N 236.496 -1.42363 0.676048 0
M  V30 2480 C 237.721 -2.06377 0.205705 0
M  V30 2481 C 238.146 -1.50463 -1.12883 0
M  V30 2482 O 237.504 -0.623619 -1.70237 0
M  V30 2483 C 237.552 -3.60277 0.152655 0
M  V30 2484 O 236.656 -4.02935 -0.87845 0
M  V30 2485 H 235.997 -0.655588 0.105359 0
M  V30 2486 H 238.527 -1.82475 0.925412 0
M  V30 2487 H 238.537 -4.07993 -0.0230675 0
M  V30 2488 H 237.212 -4.00346 1.12675 0
M  V30 2489 H 235.789 -3.66764 -0.673668 0
M  V30 2490 N 237.974 -0.419461 -1.51915 0
M  V30 2491 C 239.199 0.154572 -2.06823 0
M  V30 2492 C 239.624 1.3722 -1.28656 0
M  V30 2493 O 238.982 1.78461 -0.319583 0
M  V30 2494 C 239.03 0.473172 -3.57482 0
M  V30 2495 O 238.134 1.56255 -3.81652 0
M  V30 2496 H 237.475 0.0096924 -0.663929 0
M  V30 2497 H 240.005 -0.595642 -1.95738 0
M  V30 2498 H 240.015 0.728825 -4.01438 0
M  V30 2499 H 238.69 -0.416873 -4.13805 0
M  V30 2500 H 237.267 1.29825 -3.49571 0
M  V30 2501 N 239.452 1.56882 -0.150215 0
M  V30 2502 C 240.868 1.58263 0.20617 0
M  V30 2503 C 241.068 1.16464 1.64434 0
M  V30 2504 O 240.124 0.866422 2.3717 0
M  V30 2505 C 241.437 3.00649 -0.0555025 0
M  V30 2506 C 242.985 3.12999 0.00795388 0
M  V30 2507 C 243.46 4.5744 -0.226429 0
M  V30 2508 N 244.951 4.62875 -0.173469 0
M  V30 2509 C 245.686 5.72454 -0.329288 0
M  V30 2510 N 245.182 6.90669 -0.543005 0
M  V30 2511 N 246.975 5.61467 -0.266666 0
M  V30 2512 H 239.126 1.82345 -1.08922 0
M  V30 2513 H 241.389 0.844149 -0.431413 0
M  V30 2514 H 241.095 3.3563 -1.05096 0
M  V30 2515 H 240.969 3.71337 0.66246 0
M  V30 2516 H 243.356 2.77857 0.993966 0
M  V30 2517 H 243.437 2.4479 -0.742388 0
M  V30 2518 H 243.081 4.93287 -1.20956 0
M  V30 2519 H 243.011 5.2378 0.544274 0
M  V30 2520 H 245.502 3.77898 -0.0130709 0
M  V30 2521 H 245.815 7.70045 -0.651922 0
M  V30 2522 H 244.16 6.92581 -0.579366 0
M  V30 2523 H 247.351 4.67992 -0.100441 0
M  V30 2524 H 247.524 6.46816 -0.391535 0
M  V30 2525 N 240.93 -0.123565 1.57115 0
M  V30 2526 C 242.176 -0.833386 1.84885 0
M  V30 2527 C 242.509 -1.79742 0.735292 0
M  V30 2528 O 241.784 -1.92764 -0.25925 0
M  V30 2529 C 242.067 -1.5873 3.23228 0
M  V30 2530 C 241.92 -0.643183 4.45178 0
M  V30 2531 C 243.239 -2.54453 3.59085 0
M  V30 2532 H 240.358 -0.301518 0.6725 0
M  V30 2533 H 243 -0.097778 1.89748 0
M  V30 2534 H 241.15 -2.21438 3.19214 0
M  V30 2535 H 242.822 -0.0253015 4.61293 0
M  V30 2536 H 241.065 0.0456139 4.33776 0
M  V30 2537 H 241.736 -1.20724 5.38637 0
M  V30 2538 H 244.212 -2.01853 3.63861 0
M  V30 2539 H 243.088 -3.04238 4.5687 0
M  V30 2540 H 243.349 -3.36906 2.86264 0
M  V30 2541 N 242.408 -1.52605 -0.393616 0
M  V30 2542 C 243.824 -1.41753 -0.733357 0
M  V30 2543 C 244.024 -0.534293 -1.94287 0
M  V30 2544 O 243.08 -0.0059787 -2.52499 0
M  V30 2545 C 244.393 -2.84531 -0.972772 0
M  V30 2546 C 245.941 -2.93978 -1.07453 0
M  V30 2547 C 246.416 -4.37756 -1.3466 0
M  V30 2548 N 247.907 -4.4106 -1.41492 0
M  V30 2549 C 248.642 -5.49387 -1.642 0
M  V30 2550 N 248.138 -6.67806 -1.8441 0
M  V30 2551 N 249.931 -5.36923 -1.66342 0
M  V30 2552 H 242.082 -2.08555 0.402328 0
M  V30 2553 H 244.345 -0.940654 0.117789 0
M  V30 2554 H 244.051 -3.51353 -0.156204 0
M  V30 2555 H 243.925 -3.26508 -1.88871 0
M  V30 2556 H 246.312 -2.27326 -1.88167 0
M  V30 2557 H 246.393 -2.55435 -0.136605 0
M  V30 2558 H 246.037 -5.04972 -0.544581 0
M  V30 2559 H 245.967 -4.73848 -2.2973 0
M  V30 2560 H 248.458 -3.55705 -1.27601 0
M  V30 2561 H 248.771 -7.46141 -2.01231 0
M  V30 2562 H 247.116 -6.70843 -1.81644 0
M  V30 2563 H 250.307 -4.43381 -1.50102 0
M  V30 2564 H 250.48 -6.21416 -1.837 0
M  V30 2565 N 243.887 0.651787 -1.4349 0
M  V30 2566 C 245.115 1.43937 -1.48626 0
M  V30 2567 C 245.53 1.8851 -0.104587 0
M  V30 2568 O 244.887 1.5958 0.885464 0
M  V30 2569 C 244.938 2.6734 -2.43334 0
M  V30 2570 O 244.659 2.24631 -3.76128 0
M  V30 2571 C 246.16 3.60683 -2.57726 0
M  V30 2572 H 243.38 0.44213 -0.504739 0
M  V30 2573 H 245.924 0.798944 -1.88248 0
M  V30 2574 H 244.079 3.2752 -2.06904 0
M  V30 2575 H 244.493 3.04485 -4.2707 0
M  V30 2576 H 245.967 4.43933 -3.28067 0
M  V30 2577 H 246.444 4.08126 -1.62265 0
M  V30 2578 H 247.05 3.06384 -2.94973 0
M  V30 2579 N 245.365 1.30045 0.890287 0
M  V30 2580 C 246.613 1.18327 1.63839 0
M  V30 2581 C 246.934 -0.263455 1.93212 0
M  V30 2582 O 246.204 -1.17856 1.56482 0
M  V30 2583 H 244.784 0.434933 0.607324 0
M  V30 2584 H 247.446 1.631 1.06698 0
M  V30 2585 H 246.542 1.74024 2.59079 0
M  V30 2586 N 246.843 -1.10192 1.12674 0
M  V30 2587 C 248.259 -1.34235 0.863317 0
M  V30 2588 C 248.459 -1.95062 -0.505277 0
M  V30 2589 O 247.515 -2.19192 -1.25345 0
M  V30 2590 C 248.828 -2.2616 1.98172 0
M  V30 2591 C 250.376 -2.3969 2.0129 0
M  V30 2592 C 250.851 -3.34946 3.1237 0
M  V30 2593 N 252.342 -3.42515 3.11829 0
M  V30 2594 C 253.077 -4.16199 3.94419 0
M  V30 2595 N 252.573 -4.92747 4.87004 0
M  V30 2596 N 254.366 -4.11843 3.82547 0
M  V30 2597 H 246.517 -0.690798 2.00853 0
M  V30 2598 H 248.78 -0.366774 0.874174 0
M  V30 2599 H 248.486 -1.8868 2.96804 0
M  V30 2600 H 248.36 -3.26488 1.88906 0
M  V30 2601 H 250.747 -2.76438 1.03276 0
M  V30 2602 H 250.828 -1.39169 2.14629 0
M  V30 2603 H 250.472 -2.98923 4.10619 0
M  V30 2604 H 250.402 -4.35353 2.96269 0
M  V30 2605 H 252.893 -2.87926 2.44759 0
M  V30 2606 H 253.206 -5.46376 5.46528 0
M  V30 2607 H 251.551 -4.91862 4.91016 0
M  V30 2608 H 254.742 -3.51136 3.0955 0
M  V30 2609 H 254.915 -4.69007 4.47142 0
M  V30 2610 N 248.321 -0.919034 -1.28029 0
M  V30 2611 C 249.546 -0.570357 -1.99403 0
M  V30 2612 C 249.971 0.842486 -1.68178 0
M  V30 2613 O 249.329 1.56391 -0.917141 0
M  V30 2614 C 249.377 -0.792541 -3.51783 0
M  V30 2615 O 248.481 0.145988 -4.12142 0
M  V30 2616 H 247.822 -0.220555 -0.6263 0
M  V30 2617 H 250.352 -1.23592 -1.63053 0
M  V30 2618 H 250.362 -0.704708 -4.01868 0
M  V30 2619 H 249.037 -1.82247 -3.73844 0
M  V30 2620 H 247.614 0.00897528 -3.72899 0
M  V30 2621 N 249.799 1.42003 -0.683588 0
M  V30 2622 C 251.048 2.00638 -0.206681 0
M  V30 2623 C 251.361 1.5472 1.19671 0
M  V30 2624 O 252.567 2.05833 1.77045 0
M  V30 2625 C 251.023 3.58487 -0.318632 0
M  V30 2626 C 250.631 4.1339 -1.72663 0
M  V30 2627 C 252.375 4.24384 0.0991141 0
M  V30 2628 C 250.282 5.63633 -1.79087 0
M  V30 2629 H 249.212 0.750408 -0.0735107 0
M  V30 2630 H 251.863 1.62624 -0.850048 0
M  V30 2631 H 250.245 3.94047 0.392781 0
M  V30 2632 H 251.419 3.89273 -2.46583 0
M  V30 2633 H 249.734 3.59976 -2.09299 0
M  V30 2634 H 252.331 5.34652 0.0713833 0
M  V30 2635 H 252.674 4.00505 1.13586 0
M  V30 2636 H 253.207 3.93816 -0.561599 0
M  V30 2637 H 249.946 5.92323 -2.80774 0
M  V30 2638 H 249.466 5.89714 -1.09535 0
M  V30 2639 H 251.145 6.28201 -1.5483 0
M  V30 2640 N 251.277 0.427512 1.51691 0
M  V30 2641 C 252.693 0.0792977 1.59403 0
M  V30 2642 C 252.893 -1.41035 1.43914 0
M  V30 2643 O 251.949 -2.17922 1.27539 0
M  V30 2644 C 253.262 0.590636 2.94842 0
M  V30 2645 C 254.81 0.550215 3.08126 0
M  V30 2646 C 255.285 1.03836 4.46074 0
M  V30 2647 N 256.776 0.995943 4.52366 0
M  V30 2648 C 257.511 1.34463 5.57411 0
M  V30 2649 N 257.007 1.76569 6.69922 0
M  V30 2650 N 258.8 1.26343 5.47717 0
M  V30 2651 H 250.951 1.39687 1.60004 0
M  V30 2652 H 253.214 0.575003 0.753708 0
M  V30 2653 H 252.92 1.63251 3.11516 0
M  V30 2654 H 252.794 0.0102061 3.77199 0
M  V30 2655 H 255.181 -0.482654 2.91126 0
M  V30 2656 H 255.262 1.16693 2.27632 0
M  V30 2657 H 254.906 2.06965 4.63819 0
M  V30 2658 H 254.836 0.398286 5.25092 0
M  V30 2659 H 257.327 0.68661 3.7161 0
M  V30 2660 H 257.64 2.01438 7.46085 0
M  V30 2661 H 255.985 1.80488 6.71155 0
M  V30 2662 H 259.176 0.933209 4.58703 0
M  V30 2663 H 259.349 1.53846 6.29472 0
M  V30 2664 N 252.755 -1.56801 0.158532 0
M  V30 2665 C 254.003 -1.96102 -0.488712 0
M  V30 2666 C 254.324 -1.04498 -1.64636 0
M  V30 2667 O 253.594 -0.108783 -1.95598 0
M  V30 2668 H 252.174 -0.724102 -0.183535 0
M  V30 2669 H 254.836 -1.93457 0.236728 0
M  V30 2670 H 253.932 -3.00097 -0.857219 0
M  V30 2671 N 254.233 0.115231 -1.57178 0
M  V30 2672 C 255.163 1.1423 -2.03651 0
M  V30 2673 C 256.144 1.42967 -0.921655 0
M  V30 2674 O 257.329 1.53343 -1.19162 0
M  V30 2675 C 254.459 2.4675 -2.44401 0
M  V30 2676 C 253.413 2.32467 -3.59365 0
M  V30 2677 C 252.739 3.69984 -3.86026 0
M  V30 2678 C 254.039 1.78203 -4.90959 0
M  V30 2679 H 255.733 0.755749 -2.89705 0
M  V30 2680 H 253.279 0.362093 -1.39373 0
M  V30 2681 H 255.232 3.18854 -2.75517 0
M  V30 2682 H 253.956 2.87302 -1.55322 0
M  V30 2683 H 252.615 1.62811 -3.28463 0
M  V30 2684 H 252.263 4.08028 -2.94147 0
M  V30 2685 H 251.963 3.61279 -4.63412 0
M  V30 2686 H 253.487 4.43587 -4.19599 0
M  V30 2687 H 254.901 2.40128 -5.20587 0
M  V30 2688 H 253.298 1.8031 -5.72371 0
M  V30 2689 H 254.368 0.739876 -4.79222 0
M  V30 2690 N 255.711 1.52812 0.385517 0
M  V30 2691 C 256.936 1.72207 1.15583 0
M  V30 2692 C 257.361 0.441034 1.82857 0
M  V30 2693 O 256.719 -0.603465 1.70962 0
M  V30 2694 C 256.767 2.87476 2.17692 0
M  V30 2695 O 255.871 2.54693 3.24354 0
M  V30 2696 H 255.212 0.572526 0.336319 0
M  V30 2697 H 257.742 1.99618 0.448744 0
M  V30 2698 H 257.752 3.13072 2.6163 0
M  V30 2699 H 256.427 3.80408 1.68115 0
M  V30 2700 H 255.004 2.3985 2.85529 0
M  V30 2701 N 257.189 -0.644168 1.43834 0
M  V30 2702 C 258.119 -1.76814 1.52509 0
M  V30 2703 C 259.1 -1.65823 0.379052 0
M  V30 2704 O 260.285 -1.84781 0.597466 0
M  V30 2705 C 257.415 -3.15288 1.4564 0
M  V30 2706 C 256.369 -3.41053 2.58586 0
M  V30 2707 C 255.695 -4.79421 2.36769 0
M  V30 2708 C 256.995 -3.34902 4.00797 0
M  V30 2709 H 258.689 -1.69812 2.46586 0
M  V30 2710 H 256.235 -0.815542 1.1868 0
M  V30 2711 H 258.188 -3.93681 1.50311 0
M  V30 2712 H 256.912 -3.23043 0.480725 0
M  V30 2713 H 255.571 -2.65035 2.53282 0
M  V30 2714 H 255.219 -4.83863 1.37424 0
M  V30 2715 H 254.919 -4.9762 3.12487 0
M  V30 2716 H 256.443 -5.6006 2.43238 0
M  V30 2717 H 257.857 -4.03218 4.07539 0
M  V30 2718 H 256.254 -3.64637 4.76613 0
M  V30 2719 H 257.324 -2.32928 4.25291 0
M  V30 2720 N 258.668 -1.30515 -0.883378 0
M  V30 2721 C 260.079 -1.17509 -1.45081 0
M  V30 2722 C 260.43 0.223605 -1.94922 0
M  V30 2723 O 259.555 1.12041 -1.85137 0
M  V30 2724 C 260.15 -2.12715 -2.63701 0
M  V30 2725 C 258.709 -2.03682 -3.16529 0
M  V30 2726 C 257.856 -2.02706 -1.89224 0
M  V30 2727 H 260.807 -1.42762 -0.693165 0
M  V30 2728 H 260.828 -1.70891 -3.39965 0
M  V30 2729 H 260.34 -3.14505 -2.27395 0
M  V30 2730 H 258.441 -1.05039 -3.57488 0
M  V30 2731 H 258.554 -2.92146 -3.7972 0
M  V30 2732 H 256.918 -1.4753 -2.07622 0
M  V30 2733 H 257.701 -3.06229 -1.55174 0
M  V30 2734 N 260.146 1.09593 -1.13257 0
M  V30 2735 C 261.557 1.63229 -0.906274 0
M  V30 2736 C 261.908 1.8811 0.557578 0
M  V30 2737 O 261.033 1.62953 1.42391 0
M  V30 2738 C 261.628 2.96535 -1.63867 0
M  V30 2739 C 260.187 3.47003 -1.45828 0
M  V30 2740 C 259.334 2.2145 -1.66898 0
M  V30 2741 H 262.285 0.92978 -1.28611 0
M  V30 2742 H 262.306 3.64411 -1.09476 0
M  V30 2743 H 261.818 2.78394 -2.70404 0
M  V30 2744 H 259.919 3.70272 -0.415848 0
M  V30 2745 H 260.032 4.24551 -2.2202 0
M  V30 2746 H 258.396 2.30022 -1.09371 0
M  V30 2747 H 259.179 2.0583 -2.74752 0
M  V30 2748 N 261.624 0.925811 1.2754 0
M  V30 2749 C 262.587 0.428129 2.25166 0
M  V30 2750 C 263.587 -0.452261 1.54309 0
M  V30 2751 O 264.777 -0.253608 1.72344 0
M  V30 2752 C 261.909 -0.384749 3.38722 0
M  V30 2753 H 263.102 1.29066 2.70706 0
M  V30 2754 H 260.655 0.706323 1.3943 0
M  V30 2755 H 261.39 -1.26618 2.98561 0
M  V30 2756 H 261.175 0.246454 3.91325 0
M  V30 2757 H 262.665 -0.723389 4.11287 0
M  V30 2758 N 263.102 -1.41638 0.69111 0
M  V30 2759 C 264.342 -2.03166 0.224291 0
M  V30 2760 C 264.706 -1.53537 -1.15284 0
M  V30 2761 O 265.907 -2.0696 -1.71525 0
M  V30 2762 C 264.178 -3.56342 0.274758 0
M  V30 2763 S 265.737 -4.3864 -0.118669 0
M  V30 2764 H 262.555 -0.705188 0.0907263 0
M  V30 2765 H 265.157 -1.7314 0.907895 0
M  V30 2766 H 263.861 -3.89958 1.2791 0
M  V30 2767 H 263.392 -3.91063 -0.428142 0
M  V30 2768 H 265.407 -4.77549 -1.34764 0
M  V30 2769 N 264.58 -0.43555 -1.51462 0
M  V30 2770 C 265.808 0.130242 -2.0649 0
M  V30 2771 C 266.223 1.36614 -1.30315 0
M  V30 2772 O 265.58 1.78869 -0.362223 0
M  V30 2773 C 265.631 0.454253 -3.58635 0
M  V30 2774 O 265.352 -0.73259 -4.31931 0
M  V30 2775 C 266.853 1.07091 -4.3017 0
M  V30 2776 H 264.073 0.00871669 -0.670943 0
M  V30 2777 H 266.617 -0.614117 -1.95061 0
M  V30 2778 H 264.772 1.14851 -3.69984 0
M  V30 2779 H 265.186 -0.455787 -5.22516 0
M  V30 2780 H 266.66 1.24764 -5.37716 0
M  V30 2781 H 267.137 2.05144 -3.88346 0
M  V30 2782 H 267.743 0.416089 -4.2326 0
M  V30 2783 N 266.058 1.56714 -0.166846 0
M  V30 2784 C 267.474 1.58473 0.189372 0
M  V30 2785 C 267.674 1.18201 1.63189 0
M  V30 2786 O 266.73 0.891528 2.36237 0
M  V30 2787 C 268.043 3.00573 -0.0873872 0
M  V30 2788 C 269.591 3.1299 -0.0252443 0
M  V30 2789 C 270.066 4.57174 -0.274934 0
M  V30 2790 N 271.557 4.62665 -0.222553 0
M  V30 2791 C 272.292 5.72072 -0.389985 0
M  V30 2792 N 271.788 6.90054 -0.616229 0
M  V30 2793 N 273.581 5.61153 -0.326202 0
M  V30 2794 H 265.732 1.8118 -1.10849 0
M  V30 2795 H 267.995 0.839525 -0.440342 0
M  V30 2796 H 267.701 3.34497 -1.0865 0
M  V30 2797 H 267.575 3.72019 0.623037 0
M  V30 2798 H 269.962 2.78895 0.96444 0
M  V30 2799 H 270.043 2.43989 -0.768309 0
M  V30 2800 H 269.687 4.91976 -1.26181 0
M  V30 2801 H 269.617 5.24328 0.48869 0
M  V30 2802 H 272.108 3.77863 -0.0531512 0
M  V30 2803 H 272.421 7.69311 -0.733559 0
M  V30 2804 H 270.766 6.91927 -0.652791 0
M  V30 2805 H 273.957 4.67859 -0.150072 0
M  V30 2806 H 274.13 6.46364 -0.460116 0
M  V30 2807 N 267.536 -0.106894 1.57237 0
M  V30 2808 C 268.499 -1.11466 2.0027 0
M  V30 2809 C 269.499 -1.33623 0.894519 0
M  V30 2810 O 270.689 -1.29935 1.16028 0
M  V30 2811 C 267.821 -2.46646 2.35327 0
M  V30 2812 H 269.014 -0.744516 2.90512 0
M  V30 2813 H 266.567 -0.351576 1.52295 0
M  V30 2814 H 267.302 -2.88558 1.48003 0
M  V30 2815 H 267.087 -2.31915 3.16161 0
M  V30 2816 H 268.577 -3.19151 2.69318 0
M  V30 2817 N 269.014 -1.53014 -0.377408 0
M  V30 2818 C 269.924 -1.81557 -1.48574 0
M  V30 2819 C 270.94 -0.703102 -1.59162 0
M  V30 2820 O 272.116 -0.99192 -1.75279 0
M  V30 2821 C 269.181 -1.9889 -2.83978 0
M  V30 2822 C 268.242 -3.22801 -2.83016 0
M  V30 2823 C 267.475 -3.39298 -4.11962 0
M  V30 2824 O 267.698 -2.60345 -5.0752 0
M  V30 2825 O 266.632 -4.32604 -4.18494 0
M  V30 2826 H 270.458 -2.75695 -1.27382 0
M  V30 2827 H 268.043 -1.38248 -0.566373 0
M  V30 2828 H 269.925 -2.11931 -3.6423 0
M  V30 2829 H 268.6 -1.07942 -3.05172 0
M  V30 2830 H 267.507 -3.15193 -2.01505 0
M  V30 2831 H 268.84 -4.13632 -2.66775 0
M  V30 2832 N 270.492 0.636531 -1.44174 0
M  V30 2833 C 271.908 0.954104 -1.27941 0
M  V30 2834 C 272.108 2.0039 -0.211248 0
M  V30 2835 O 271.164 2.49236 0.404695 0
M  V30 2836 C 272.477 1.4225 -2.64925 0
M  V30 2837 C 274.025 1.53827 -2.72592 0
M  V30 2838 C 274.5 2.04053 -4.10032 0
M  V30 2839 N 275.991 2.11331 -4.12182 0
M  V30 2840 C 276.726 2.51352 -5.15374 0
M  V30 2841 N 276.222 2.90549 -6.2893 0
M  V30 2842 N 278.015 2.51438 -5.02728 0
M  V30 2843 H 270.166 -0.0578386 -2.12321 0
M  V30 2844 H 272.429 0.0367406 -0.947288 0
M  V30 2845 H 272.135 0.725466 -3.44136 0
M  V30 2846 H 272.009 2.39451 -2.9145 0
M  V30 2847 H 274.396 2.22628 -1.93702 0
M  V30 2848 H 274.477 0.550154 -2.49814 0
M  V30 2849 H 274.121 1.35848 -4.89395 0
M  V30 2850 H 274.051 3.03726 -4.30184 0
M  V30 2851 H 276.542 1.83745 -3.30222 0
M  V30 2852 H 276.855 3.19884 -7.03487 0
M  V30 2853 H 275.2 2.88313 -6.32377 0
M  V30 2854 H 278.391 2.20203 -4.13072 0
M  V30 2855 H 278.564 2.82304 -5.83274 0
M  V30 2856 N 271.97 1.30982 0.876444 0
M  V30 2857 C 273.386 1.09498 1.16113 0
M  V30 2858 C 273.586 -0.13875 2.01022 0
M  V30 2859 O 272.642 -0.829935 2.38471 0
M  V30 2860 C 273.955 2.36308 1.85954 0
M  V30 2861 C 275.503 2.41856 1.98683 0
M  V30 2862 C 275.978 3.6853 2.71937 0
M  V30 2863 N 277.469 3.69387 2.79477 0
M  V30 2864 C 278.204 4.64096 3.36753 0
M  V30 2865 N 277.7 5.69155 3.95012 0
M  V30 2866 N 279.493 4.51626 3.3465 0
M  V30 2867 H 271.644 2.10118 0.310494 0
M  V30 2868 H 273.907 0.926634 0.200131 0
M  V30 2869 H 273.613 3.26388 1.31011 0
M  V30 2870 H 273.487 2.4561 2.86278 0
M  V30 2871 H 275.874 1.52249 2.52793 0
M  V30 2872 H 275.955 2.36523 0.9742 0
M  V30 2873 H 275.599 4.58499 2.18496 0
M  V30 2874 H 275.529 3.71127 3.73593 0
M  V30 2875 H 278.02 2.93438 2.38123 0
M  V30 2876 H 278.333 6.3751 4.36808 0
M  V30 2877 H 276.678 5.72937 3.93406 0
M  V30 2878 H 279.869 3.68728 2.8837 0
M  V30 2879 H 280.042 5.25614 3.7899 0
M  V30 2880 N 273.449 -1.08991 1.13837 0
M  V30 2881 C 274.359 -2.19301 0.833333 0
M  V30 2882 C 275.375 -1.73026 -0.183847 0
M  V30 2883 O 276.551 -2.01395 -0.0138092 0
M  V30 2884 C 273.616 -3.45323 0.308651 0
M  V30 2885 C 272.677 -4.06255 1.38764 0
M  V30 2886 C 271.91 -5.26262 0.887896 0
M  V30 2887 O 272.133 -5.69747 -0.27287 0
M  V30 2888 O 271.067 -5.78435 1.66421 0
M  V30 2889 H 274.893 -2.47854 1.75506 0
M  V30 2890 H 272.478 -1.18012 0.916166 0
M  V30 2891 H 274.36 -4.21394 0.0216739 0
M  V30 2892 H 273.035 -3.18362 -0.585431 0
M  V30 2893 H 271.942 -3.318 1.72799 0
M  V30 2894 H 273.275 -4.37452 2.25602 0
M  V30 2895 N 274.927 -0.932562 -1.27047 0
M  V30 2896 C 276.173 -0.576412 -1.94436 0
M  V30 2897 C 276.506 0.880891 -1.73072 0
M  V30 2898 O 275.781 1.62905 -1.06264 0
M  V30 2899 C 276.064 -0.909031 -3.48437 0
M  V30 2900 C 275.917 -2.42044 -3.79123 0
M  V30 2901 C 277.236 -0.418341 -4.38107 0
M  V30 2902 H 274.355 -0.210888 -0.706184 0
M  V30 2903 H 276.997 -1.16522 -1.50075 0
M  V30 2904 H 275.147 -0.407947 -3.86352 0
M  V30 2905 H 276.819 -2.99359 -3.50973 0
M  V30 2906 H 275.062 -2.86758 -3.25503 0
M  V30 2907 H 275.733 -2.6037 -4.86736 0
M  V30 2908 H 278.209 -0.847856 -4.0737 0
M  V30 2909 H 277.085 -0.679981 -5.44672 0
M  V30 2910 H 277.346 0.681642 -4.36814 0
M  V30 2911 N 276.405 1.4127 -0.698611 0
M  V30 2912 C 277.315 2.34573 -0.0357891 0
M  V30 2913 C 278.331 1.56393 0.762701 0
M  V30 2914 O 279.507 1.8886 0.699564 0
M  V30 2915 C 276.572 3.35159 0.887089 0
M  V30 2916 C 275.633 4.29225 0.0804634 0
M  V30 2917 C 274.866 5.25006 0.959387 0
M  V30 2918 O 275.089 5.26314 2.19886 0
M  V30 2919 O 274.023 6.00519 0.407439 0
M  V30 2920 H 277.849 2.92838 -0.804957 0
M  V30 2921 H 275.434 1.42175 -0.458966 0
M  V30 2922 H 277.316 3.9689 1.41621 0
M  V30 2923 H 275.991 2.79333 1.6357 0
M  V30 2924 H 274.898 3.70833 -0.493328 0
M  V30 2925 H 276.231 4.88157 -0.629547 0
M  V30 2926 N 277.883 0.443576 1.51229 0
M  V30 2927 C 279.299 0.0962001 1.5931 0
M  V30 2928 C 279.499 -1.39501 1.45402 0
M  V30 2929 O 278.555 -2.16557 1.29843 0
M  V30 2930 C 279.868 0.621875 2.94199 0
M  V30 2931 C 281.416 0.582865 3.07525 0
M  V30 2932 C 281.891 1.08562 4.44948 0
M  V30 2933 N 283.382 1.04387 4.51284 0
M  V30 2934 C 284.117 1.40368 5.55954 0
M  V30 2935 N 283.613 1.83664 6.68011 0
M  V30 2936 N 285.406 1.32145 5.46346 0
M  V30 2937 H 277.557 1.41376 1.58514 0
M  V30 2938 H 279.82 0.582965 0.747567 0
M  V30 2939 H 279.526 1.66546 3.09767 0
M  V30 2940 H 279.4 0.0502125 3.77167 0
M  V30 2941 H 281.787 -0.451749 2.91622 0
M  V30 2942 H 281.868 1.191 2.26382 0
M  V30 2943 H 281.512 2.11873 4.61598 0
M  V30 2944 H 281.442 0.453956 5.2464 0
M  V30 2945 H 283.933 0.725986 3.70861 0
M  V30 2946 H 284.246 2.0934 7.43906 0
M  V30 2947 H 282.591 1.87596 6.69203 0
M  V30 2948 H 285.782 0.981808 4.57688 0
M  V30 2949 H 285.955 1.60514 6.27805 0
M  V30 2950 N 279.361 -1.56624 0.175154 0
M  V30 2951 C 280.607 -1.9729 -0.469506 0
M  V30 2952 C 280.94 -1.06128 -1.62636 0
M  V30 2953 O 280.215 -0.109183 -1.94193 0
M  V30 2954 C 280.498 -3.47375 -0.948804 0
M  V30 2955 C 280.351 -4.49317 0.208491 0
M  V30 2956 C 281.67 -4.00652 -1.82116 0
M  V30 2957 H 278.789 -0.717317 -0.16919 0
M  V30 2958 H 281.431 -1.88184 0.262062 0
M  V30 2959 H 279.581 -3.55267 -1.57219 0
M  V30 2960 H 281.253 -4.53482 0.845682 0
M  V30 2961 H 279.496 -4.25121 0.863395 0
M  V30 2962 H 280.167 -5.51741 -0.169059 0
M  V30 2963 H 282.643 -3.95416 -1.2956 0
M  V30 2964 H 281.519 -5.06075 -2.12554 0
M  V30 2965 H 281.78 -3.44699 -2.7683 0
M  V30 2966 N 280.839 0.0985539 -1.57292 0
M  V30 2967 C 282.085 0.803867 -1.86188 0
M  V30 2968 C 282.418 1.78549 -0.763794 0
M  V30 2969 O 281.693 1.93153 0.22855 0
M  V30 2970 C 281.976 1.53568 -3.25713 0
M  V30 2971 C 281.829 0.572277 -4.46145 0
M  V30 2972 C 283.148 2.48708 -3.63087 0
M  V30 2973 H 280.267 0.290781 -0.677211 0
M  V30 2974 H 282.909 0.0675783 -1.8988 0
M  V30 2975 H 281.059 2.16332 -3.22696 0
M  V30 2976 H 282.731 -0.0480894 -4.61275 0
M  V30 2977 H 280.974 -0.114618 -4.33649 0
M  V30 2978 H 281.645 1.12139 -5.40489 0
M  V30 2979 H 284.121 1.96039 -3.67026 0
M  V30 2980 H 282.997 2.96932 -4.61652 0
M  V30 2981 H 283.258 3.32309 -2.91588 0
M  V30 2982 N 282.317 1.53212 0.369288 0
M  V30 2983 C 283.563 1.69466 1.11397 0
M  V30 2984 C 283.896 0.443257 1.89074 0
M  V30 2985 O 283.171 -0.559386 1.86282 0
M  V30 2986 C 283.454 2.9422 2.07621 0
M  V30 2987 C 283.307 4.29508 1.33577 0
M  V30 2988 C 284.626 3.14565 3.07794 0
M  V30 2989 H 281.745 0.616667 0.403597 0
M  V30 2990 H 284.387 1.85845 0.395179 0
M  V30 2991 H 282.537 2.80387 2.68916 0
M  V30 2992 H 284.209 4.55147 0.750955 0
M  V30 2993 H 282.452 4.29088 0.637618 0
M  V30 2994 H 283.123 5.12926 2.03989 0
M  V30 2995 H 285.599 3.2756 2.56601 0
M  V30 2996 H 284.475 4.03297 3.72348 0
M  V30 2997 H 284.736 2.29675 3.77759 0
M  V30 2998 N 283.795 -0.628877 1.44509 0
M  V30 2999 C 285.072 -1.38733 1.37886 0
M  V30 3000 C 285.452 -2.11065 0.0387008 0
M  V30 3001 O 284.8 -2.06476 -0.97878 0
M  V30 3002 C 285.01 -2.35188 2.57852 0
M  V30 3003 C 286.358 -2.9845 3.02014 0
M  V30 3004 O 287.382 -2.45513 2.58073 0
M  V30 3005 O 286.241 -3.94487 3.78209 0
M  V30 3006 H 283.335 -0.621015 0.54614 0
M  V30 3007 H 285.881 -0.653744 1.56602 0
M  V30 3008 H 284.653 -1.80855 3.46998 0
M  V30 3009 H 284.276 -3.1596 2.4136 0
M  V30 3010 N 285.273 -1.31445 -0.869486 0
M  V30 3011 C 286.236 -1.19094 -1.9583 0
M  V30 3012 C 287.236 -0.117906 -1.60367 0
M  V30 3013 O 288.426 -0.367208 -1.70286 0
M  V30 3014 C 285.558 -0.828165 -3.30688 0
M  V30 3015 H 286.751 -2.15842 -2.08212 0
M  V30 3016 H 284.304 -1.15063 -1.05784 0
M  V30 3017 H 285.039 0.138142 -3.24006 0
M  V30 3018 H 284.824 -1.6038 -3.578 0
M  V30 3019 H 286.314 -0.765658 -4.10521 0
M  V30 3020 N 286.751 1.08385 -1.14413 0
M  V30 3021 C 287.681 2.17321 -0.854044 0
M  V30 3022 C 288.662 1.69024 0.191049 0
M  V30 3023 O 289.847 1.94141 0.0476779 0
M  V30 3024 C 286.977 3.45719 -0.330983 0
M  V30 3025 C 285.931 4.07409 -1.31155 0
M  V30 3026 C 285.257 5.30762 -0.64778 0
M  V30 3027 C 286.557 4.48665 -2.67388 0
M  V30 3028 H 288.251 2.41845 -1.76498 0
M  V30 3029 H 285.797 1.16233 -0.850051 0
M  V30 3030 H 287.75 4.21241 -0.115645 0
M  V30 3031 H 286.474 3.2075 0.615381 0
M  V30 3032 H 285.133 3.33919 -1.51306 0
M  V30 3033 H 284.781 5.02078 0.304398 0
M  V30 3034 H 284.481 5.72992 -1.30207 0
M  V30 3035 H 286.005 6.08998 -0.441972 0
M  V30 3036 H 287.419 5.15364 -2.51143 0
M  V30 3037 H 285.816 5.01814 -3.29093 0
M  V30 3038 H 286.886 3.60543 -3.24248 0
M  V30 3039 N 288.23 0.939286 1.26551 0
M  V30 3040 C 289.455 0.602008 1.98471 0
M  V30 3041 C 289.88 -0.815624 1.69497 0
M  V30 3042 O 289.238 -1.54912 0.941905 0
M  V30 3043 C 289.286 0.848407 3.50477 0
M  V30 3044 O 288.39 -0.0804009 4.12322 0
M  V30 3045 H 287.731 0.23049 0.622712 0
M  V30 3046 H 290.261 1.2617 1.61066 0
M  V30 3047 H 290.271 0.768553 4.00696 0
M  V30 3048 H 288.946 1.88171 3.70897 0
M  V30 3049 H 287.523 0.0503508 3.72866 0
M  V30 3050 N 289.708 -1.40897 0.706093 0
M  V30 3051 C 290.956 -2.00657 0.241054 0
M  V30 3052 C 291.277 -1.56241 -1.16678 0
M  V30 3053 O 290.547 -0.79765 -1.78926 0
M  V30 3054 H 289.127 -0.742018 0.0861308 0
M  V30 3055 H 291.789 -1.72372 0.909604 0
M  V30 3056 H 290.885 -3.10958 0.266705 0
M  V30 3057 N 291.186 -0.45159 -1.50991 0
M  V30 3058 C 292.116 0.342898 -2.30969 0
M  V30 3059 C 293.097 1.00815 -1.37005 0
M  V30 3060 O 294.282 1.00907 -1.65926 0
M  V30 3061 C 291.412 1.43637 -3.16205 0
M  V30 3062 C 290.366 0.893818 -4.18563 0
M  V30 3063 C 289.692 2.08411 -4.92411 0
M  V30 3064 C 290.992 -0.0815568 -5.22236 0
M  V30 3065 H 292.686 -0.324556 -2.97636 0
M  V30 3066 H 290.232 -0.157531 -1.43136 0
M  V30 3067 H 292.185 1.9995 -3.70942 0
M  V30 3068 H 290.909 2.13232 -2.47386 0
M  V30 3069 H 289.568 0.352798 -3.64898 0
M  V30 3070 H 289.216 2.76658 -4.20082 0
M  V30 3071 H 288.916 1.72741 -5.61636 0
M  V30 3072 H 290.44 2.65251 -5.49976 0
M  V30 3073 H 291.854 0.391742 -5.7196 0
M  V30 3074 H 290.251 -0.351551 -5.99069 0
M  V30 3075 H 291.321 -1.01374 -4.74185 0
M  V30 3076 N 292.664 1.56529 -0.183458 0
M  V30 3077 C 293.611 2.18546 0.742055 0
M  V30 3078 C 294.581 1.12912 1.2182 0
M  V30 3079 O 295.766 1.41115 1.28418 0
M  V30 3080 C 292.906 2.83977 1.96089 0
M  V30 3081 C 292.019 4.04105 1.52719 0
M  V30 3082 C 291.154 4.57427 2.70063 0
M  V30 3083 C 290.193 5.69938 2.23243 0
M  V30 3084 N 289.33 6.17717 3.33722 0
M  V30 3085 H 294.17 2.97284 0.206432 0
M  V30 3086 H 291.707 1.46823 0.0901571 0
M  V30 3087 H 293.665 3.20077 2.67594 0
M  V30 3088 H 292.295 2.07822 2.47002 0
M  V30 3089 H 291.347 3.73745 0.708436 0
M  V30 3090 H 292.659 4.85513 1.1436 0
M  V30 3091 H 291.813 4.95772 3.49708 0
M  V30 3092 H 290.552 3.75101 3.11689 0
M  V30 3093 H 289.557 5.31133 1.42048 0
M  V30 3094 H 290.782 6.54073 1.82661 0
M  V30 3095 H 288.728 5.38317 3.74902 0
M  V30 3096 H 288.645 6.94146 2.99495 0
M  V30 3097 H 289.913 6.60713 4.13616 0
M  V30 3098 N 294.142 -0.090211 1.57342 0
M  V30 3099 C 295.39 -0.791241 1.85967 0
M  V30 3100 C 295.711 -1.7903 0.772859 0
M  V30 3101 O 294.981 -1.94872 -0.200398 0
M  V30 3102 H 293.561 -0.295205 0.686195 0
M  V30 3103 H 296.223 -0.0706782 1.94772 0
M  V30 3104 H 295.319 -1.31882 2.82867 0
M  V30 3105 N 295.62 -1.53406 -0.361157 0
M  V30 3106 C 296.897 -1.60411 -1.11927 0
M  V30 3107 C 297.277 -0.414385 -2.06993 0
M  V30 3108 O 296.625 0.594976 -2.20618 0
M  V30 3109 C 296.835 -2.95652 -1.85448 0
M  V30 3110 C 298.183 -3.50386 -2.39823 0
M  V30 3111 O 299.207 -2.97711 -1.95568 0
M  V30 3112 O 298.066 -4.42482 -3.20737 0
M  V30 3113 H 295.16 -0.64811 -0.513695 0
M  V30 3114 H 297.706 -1.65749 -0.364065 0
M  V30 3115 H 296.478 -3.73682 -1.16091 0
M  V30 3116 H 296.101 -2.93825 -2.67866 0
M  V30 3117 N 297.098 0.621204 -1.44841 0
M  V30 3118 C 298.028 1.74366 -1.55303 0
M  V30 3119 C 299.009 1.65199 -0.405385 0
M  V30 3120 O 300.194 1.83807 -0.626787 0
M  V30 3121 C 297.324 3.12931 -1.50637 0
M  V30 3122 C 296.278 3.36896 -2.63979 0
M  V30 3123 C 295.604 4.75594 -2.44366 0
M  V30 3124 C 296.904 3.28483 -4.06074 0
M  V30 3125 H 298.598 1.65867 -2.49256 0
M  V30 3126 H 296.144 0.796558 -1.19962 0
M  V30 3127 H 298.097 3.9124 -1.56555 0
M  V30 3128 H 296.821 3.22237 -0.532057 0
M  V30 3129 H 295.48 2.60972 -2.57467 0
M  V30 3130 H 295.128 4.81616 -1.45105 0
M  V30 3131 H 294.828 4.92586 -3.20364 0
M  V30 3132 H 296.352 5.5612 -2.52117 0
M  V30 3133 H 297.766 3.96684 -4.13902 0
M  V30 3134 H 296.163 3.57008 -4.82354 0
M  V30 3135 H 297.233 2.26133 -4.28943 0
M  V30 3136 N 298.576 1.31904 0.862503 0
M  V30 3137 C 299.539 1.20131 1.95195 0
M  V30 3138 C 300.539 0.126409 1.60302 0
M  V30 3139 O 301.729 0.376234 1.70089 0
M  V30 3140 C 298.861 0.845691 3.30244 0
M  V30 3141 H 300.054 2.16943 2.07064 0
M  V30 3142 H 297.607 1.15622 1.05172 0
M  V30 3143 H 298.342 -0.120957 3.24074 0
M  V30 3144 H 298.127 1.62276 3.56944 0
M  V30 3145 H 299.617 0.787418 4.10109 0
M  V30 3146 N 300.054 -1.07777 1.14986 0
M  V30 3147 C 301.302 -1.79934 0.920235 0
M  V30 3148 C 301.623 -1.86955 -0.554336 0
M  V30 3149 O 300.893 -1.36731 -1.40291 0
M  V30 3150 H 299.473 -0.666424 0.337473 0
M  V30 3151 H 302.135 -1.3027 1.44968 0
M  V30 3152 H 301.231 -2.82539 1.32583 0
M  V30 3153 N 301.532 -0.945985 -1.26051 0
M  V30 3154 C 302.948 -0.649045 -1.45807 0
M  V30 3155 C 303.148 0.796158 -1.85104 0
M  V30 3156 O 302.204 1.57233 -1.97571 0
M  V30 3157 C 303.517 -1.61458 -2.53677 0
M  V30 3158 C 305.065 -1.62481 -2.67524 0
M  V30 3159 C 305.54 -2.57776 -3.7857 0
M  V30 3160 N 307.031 -2.5609 -3.85969 0
M  V30 3161 C 307.766 -3.26508 -4.7136 0
M  V30 3162 N 307.262 -4.0637 -5.61102 0
M  V30 3163 N 309.055 -3.15437 -4.65248 0
M  V30 3164 H 301.206 -1.88005 -0.988328 0
M  V30 3165 H 303.469 -0.808198 -0.4955 0
M  V30 3166 H 303.175 -2.64644 -2.31638 0
M  V30 3167 H 303.049 -1.37036 -3.51427 0
M  V30 3168 H 305.436 -0.600167 -2.88933 0
M  V30 3169 H 305.517 -1.90958 -1.70202 0
M  V30 3170 H 305.161 -3.60361 -3.57913 0
M  V30 3171 H 305.091 -2.26587 -4.75359 0
M  V30 3172 H 307.582 -1.98105 -3.21812 0
M  V30 3173 H 307.895 -4.57042 -6.23164 0
M  V30 3174 H 306.24 -4.10469 -5.60839 0
M  V30 3175 H 309.431 -2.52525 -3.94143 0
M  V30 3176 H 309.604 -3.70584 -5.31575 0
M  V30 3177 N 303.011 1.40521 -0.713556 0
M  V30 3178 C 304.241 2.0494 -0.261395 0
M  V30 3179 C 304.649 1.53861 1.10107 0
M  V30 3180 O 303.992 0.689321 1.70276 0
M  V30 3181 C 304.054 3.59138 -0.161227 0
M  V30 3182 C 303.718 4.33096 -1.45865 0
M  V30 3183 C 304.715 4.61182 -2.40016 0
M  V30 3184 C 302.4 4.72043 -1.71701 0
M  V30 3185 C 304.394 5.27196 -3.58251 0
M  V30 3186 C 302.081 5.37789 -2.90218 0
M  V30 3187 C 303.079 5.65295 -3.83315 0
M  V30 3188 O 302.767 6.29683 -4.99754 0
M  V30 3189 H 302.499 0.666041 -0.115608 0
M  V30 3190 H 305.053 1.80954 -0.971849 0
M  V30 3191 H 303.283 3.81936 0.605153 0
M  V30 3192 H 304.972 4.05091 0.256105 0
M  V30 3193 H 305.738 4.31559 -2.21318 0
M  V30 3194 H 301.617 4.50003 -1.00092 0
M  V30 3195 H 305.161 5.48582 -4.30934 0
M  V30 3196 H 301.058 5.66831 -3.08825 0
M  V30 3197 H 301.826 6.4818 -4.99805 0
M  V30 3198 N 304.489 0.459591 1.5075 0
M  V30 3199 C 305.719 -0.0972338 2.06371 0
M  V30 3200 C 306.127 -1.35074 1.32483 0
M  V30 3201 O 305.47 -1.79637 0.384226 0
M  V30 3202 C 305.532 -0.462759 3.56509 0
M  V30 3203 C 305.196 0.687084 4.51805 0
M  V30 3204 C 306.193 1.56578 4.95761 0
M  V30 3205 C 303.878 0.874144 4.94635 0
M  V30 3206 C 305.872 2.61604 5.81242 0
M  V30 3207 C 303.559 1.92765 5.79901 0
M  V30 3208 C 304.557 2.79697 6.23104 0
M  V30 3209 O 304.245 3.83235 7.06673 0
M  V30 3210 H 303.977 -0.00140687 0.675999 0
M  V30 3211 H 306.531 0.644011 1.95043 0
M  V30 3212 H 304.761 -1.25703 3.65699 0
M  V30 3213 H 306.45 -0.953323 3.94546 0
M  V30 3214 H 307.216 1.4329 4.6335 0
M  V30 3215 H 303.095 0.207006 4.60535 0
M  V30 3216 H 306.639 3.29489 6.14884 0
M  V30 3217 H 302.536 2.06064 6.11725 0
M  V30 3218 H 303.304 3.80084 7.24899 0
M  V30 3219 N 305.967 -1.56429 0.191757 0
M  V30 3220 C 307.383 -1.58754 -0.164137 0
M  V30 3221 C 307.583 -1.20782 -1.61288 0
M  V30 3222 O 306.639 -0.928999 -2.34789 0
M  V30 3223 C 307.952 -3.00396 0.135195 0
M  V30 3224 C 309.5 -3.1291 0.0750351 0
M  V30 3225 C 309.975 -4.56679 0.347632 0
M  V30 3226 N 311.466 -4.62252 0.296131 0
M  V30 3227 C 312.201 -5.71379 0.480948 0
M  V30 3228 N 311.697 -6.88986 0.725933 0
M  V30 3229 N 313.49 -5.60563 0.415435 0
M  V30 3230 H 305.641 -1.79393 1.13718 0
M  V30 3231 H 307.904 -0.832414 0.453643 0
M  V30 3232 H 307.61 -3.32726 1.13958 0
M  V30 3233 H 307.484 -3.72963 -0.563773 0
M  V30 3234 H 309.871 -2.80394 -0.919948 0
M  V30 3235 H 309.952 -2.42736 0.807029 0
M  V30 3236 H 309.596 -4.89907 1.33992 0
M  V30 3237 H 309.526 -5.25039 -0.405212 0
M  V30 3238 H 312.017 -3.7773 0.113259 0
M  V30 3239 H 312.33 -7.68046 0.855857 0
M  V30 3240 H 310.675 -6.90801 0.762788 0
M  V30 3241 H 313.866 -4.67561 0.224486 0
M  V30 3242 H 314.039 -6.45551 0.562889 0
M  V30 3243 N 307.445 0.0818655 -1.57387 0
M  V30 3244 C 308.375 1.09885 -2.06028 0
M  V30 3245 C 309.356 1.4098 -0.951774 0
M  V30 3246 O 310.541 1.50781 -1.22387 0
M  V30 3247 C 307.671 2.4151 -2.4958 0
M  V30 3248 C 306.625 2.24792 -3.64215 0
M  V30 3249 C 305.951 3.61712 -3.93787 0
M  V30 3250 C 307.251 1.67749 -4.94629 0
M  V30 3251 H 308.945 0.694128 -2.91243 0
M  V30 3252 H 306.491 0.332448 -1.4011 0
M  V30 3253 H 308.444 3.12939 -2.82219 0
M  V30 3254 H 307.168 2.83943 -1.61381 0
M  V30 3255 H 305.827 1.55807 -3.31843 0
M  V30 3256 H 305.475 4.01697 -3.02735 0
M  V30 3257 H 305.175 3.51368 -4.70971 0
M  V30 3258 H 306.699 4.34587 -4.28913 0
M  V30 3259 H 308.113 2.29032 -5.25564 0
M  V30 3260 H 306.51 1.68128 -5.76067 0
M  V30 3261 H 307.58 0.638059 -4.80684 0
M  V30 3262 N 308.923 1.53595 0.353017 0
M  V30 3263 C 310.148 1.7462 1.11904 0
M  V30 3264 C 310.573 0.479721 1.8188 0
M  V30 3265 O 309.931 -0.567066 1.72204 0
M  V30 3266 C 309.979 2.92029 2.11545 0
M  V30 3267 O 309.083 2.61516 3.18878 0
M  V30 3268 H 308.424 0.579531 0.324099 0
M  V30 3269 H 310.954 2.00525 0.406301 0
M  V30 3270 H 310.964 3.18551 2.5493 0
M  V30 3271 H 309.639 3.83888 1.60008 0
M  V30 3272 H 308.216 2.45852 2.80377 0
M  V30 3273 N 310.401 -0.613514 1.45168 0
M  V30 3274 C 311.311 -1.75296 1.55912 0
M  V30 3275 C 312.327 -1.68244 0.443856 0
M  V30 3276 O 313.503 -1.88706 0.70371 0
M  V30 3277 C 310.568 -3.1174 1.5172 0
M  V30 3278 C 309.629 -3.30291 2.74238 0
M  V30 3279 C 308.862 -4.60226 2.70236 0
M  V30 3280 O 309.085 -5.42168 1.77229 0
M  V30 3281 O 308.019 -4.81361 3.61352 0
M  V30 3282 H 311.845 -1.69183 2.52212 0
M  V30 3283 H 309.43 -0.776886 1.27612 0
M  V30 3284 H 311.312 -3.93044 1.51968 0
M  V30 3285 H 309.987 -3.18357 0.585697 0
M  V30 3286 H 308.894 -2.48598 2.79553 0
M  V30 3287 H 310.227 -3.28547 3.66494 0
M  V30 3288 N 311.879 -1.3236 -0.855495 0
M  V30 3289 C 312.812 -1.15559 -1.96777 0
M  V30 3290 C 313.79 -0.0552681 -1.62506 0
M  V30 3291 O 314.974 -0.214419 -1.87277 0
M  V30 3292 C 312.101 -0.768851 -3.29858 0
M  V30 3293 C 311.147 -1.87429 -3.83109 0
M  V30 3294 S 311.98 -3.48243 -4.06801 0
M  V30 3295 C 313.136 -3.11539 -5.42858 0
M  V30 3296 H 313.369 -2.09717 -2.10727 0
M  V30 3297 H 310.902 -1.17011 -1.00737 0
M  V30 3298 H 312.86 -0.55248 -4.06765 0
M  V30 3299 H 311.521 0.153857 -3.13723 0
M  V30 3300 H 310.714 -1.55667 -4.79358 0
M  V30 3301 H 310.316 -2.04647 -3.13042 0
M  V30 3302 H 312.608 -2.61331 -6.2507 0
M  V30 3303 H 313.551 -4.06806 -5.79582 0
M  V30 3304 H 313.959 -2.48582 -5.06821 0
M  V30 3305 N 313.357 1.07166 -1.15556 0
M  V30 3306 C 314.585 1.83514 -0.955519 0
M  V30 3307 C 315 1.82163 0.49621 0
M  V30 3308 O 314.357 1.23441 1.34419 0
M  V30 3309 C 314.408 3.30515 -1.46432 0
M  V30 3310 O 314.129 3.31937 -2.85918 0
M  V30 3311 C 315.63 4.23625 -1.30603 0
M  V30 3312 H 312.85 0.578926 -0.339244 0
M  V30 3313 H 315.394 1.35265 -1.53374 0
M  V30 3314 H 313.549 3.76106 -0.928584 0
M  V30 3315 H 313.963 4.23794 -3.09029 0
M  V30 3316 H 315.437 5.24831 -1.71047 0
M  V30 3317 H 315.914 4.38485 -0.250441 0
M  V30 3318 H 316.52 3.83871 -1.83094 0
M  V30 3319 N 314.835 0.952656 1.25548 0
M  V30 3320 C 315.745 0.47782 2.29682 0
M  V30 3321 C 316.761 -0.453859 1.67977 0
M  V30 3322 O 317.937 -0.330587 1.98668 0
M  V30 3323 C 315.002 -0.238655 3.45878 0
M  V30 3324 C 314.063 0.730994 4.23031 0
M  V30 3325 C 313.296 0.0486165 5.33678 0
M  V30 3326 O 313.519 -1.16612 5.58353 0
M  V30 3327 O 312.453 0.733152 5.97418 0
M  V30 3328 H 316.279 1.34312 2.72386 0
M  V30 3329 H 313.864 0.719026 1.30959 0
M  V30 3330 H 315.746 -0.641774 4.16484 0
M  V30 3331 H 314.421 -1.07916 3.05181 0
M  V30 3332 H 313.328 1.18428 3.5486 0
M  V30 3333 H 314.661 1.53946 4.67506 0
M  V30 3334 N 316.313 -1.40141 0.720998 0
M  V30 3335 C 317.276 -2.29058 0.0805834 0
M  V30 3336 C 318.276 -1.45632 -0.681758 0
M  V30 3337 O 319.466 -1.6648 -0.512856 0
M  V30 3338 C 316.598 -3.28925 -0.895593 0
M  V30 3339 H 317.791 -2.87191 0.863793 0
M  V30 3340 H 315.344 -1.48553 0.485975 0
M  V30 3341 H 316.079 -2.75822 -1.70566 0
M  V30 3342 H 315.864 -3.90519 -0.351766 0
M  V30 3343 H 317.354 -3.95494 -1.34069 0
M  V30 3344 N 317.792 -0.46758 -1.50504 0
M  V30 3345 C 318.702 0.33382 -2.32213 0
M  V30 3346 C 319.718 0.999323 -1.42441 0
M  V30 3347 O 320.894 0.988068 -1.75497 0
M  V30 3348 C 317.959 1.4035 -3.17022 0
M  V30 3349 C 317.02 0.754961 -4.2261 0
M  V30 3350 C 316.253 1.77367 -5.03365 0
M  V30 3351 O 316.476 2.99976 -4.8515 0
M  V30 3352 O 315.41 1.34744 -5.86624 0
M  V30 3353 H 319.236 -0.334067 -3.01857 0
M  V30 3354 H 316.821 -0.229496 -1.47627 0
M  V30 3355 H 318.703 2.02318 -3.69656 0
M  V30 3356 H 317.378 2.05492 -2.5011 0
M  V30 3357 H 316.285 0.0964244 -3.73976 0
M  V30 3358 H 317.618 0.146545 -4.91982 0
M  V30 3359 N 319.27 1.56325 -0.20005 0
M  V30 3360 C 320.202 2.16555 0.750771 0
M  V30 3361 C 321.215 1.12871 1.1732 0
M  V30 3362 O 322.404 1.39943 1.10807 0
M  V30 3363 C 319.504 2.71684 2.02586 0
M  V30 3364 C 318.677 4.00321 1.76244 0
M  V30 3365 C 317.736 4.40227 2.88248 0
M  V30 3366 O 316.762 5.07552 2.57642 0
M  V30 3367 N 317.964 4.04138 4.16717 0
M  V30 3368 H 320.729 2.98772 0.235685 0
M  V30 3369 H 318.29 1.6189 -0.0182594 0
M  V30 3370 H 320.282 2.95363 2.76664 0
M  V30 3371 H 318.852 1.93893 2.45202 0
M  V30 3372 H 318.072 3.84723 0.85919 0
M  V30 3373 H 319.36 4.84279 1.56048 0
M  V30 3374 H 318.758 3.49993 4.44434 0
M  V30 3375 H 317.315 4.32756 4.87407 0
M  V30 3376 N 320.748 -0.0735177 1.57428 0
M  V30 3377 C 321.68 -1.11423 2.00294 0
M  V30 3378 C 322.693 -1.35084 0.908637 0
M  V30 3379 O 323.882 -1.33355 1.18654 0
M  V30 3380 C 320.982 -2.46548 2.32523 0
M  V30 3381 C 320.155 -2.42867 3.63778 0
M  V30 3382 C 319.214 -3.60087 3.83697 0
M  V30 3383 O 318.24 -3.41595 4.55304 0
M  V30 3384 N 319.442 -4.80372 3.25919 0
M  V30 3385 H 322.207 -0.749206 2.90184 0
M  V30 3386 H 319.768 -0.262195 1.59763 0
M  V30 3387 H 321.76 -3.23607 2.43024 0
M  V30 3388 H 320.33 -2.75059 1.48531 0
M  V30 3389 H 319.55 -1.51206 3.64047 0
M  V30 3390 H 320.838 -2.37506 4.49965 0
M  V30 3391 H 320.236 -4.983 2.67795 0
M  V30 3392 H 318.793 -5.54948 3.41871 0
M  V30 3393 N 322.226 -1.5378 -0.344866 0
M  V30 3394 C 323.158 -1.77988 -1.44406 0
M  V30 3395 C 324.171 -0.661138 -1.48771 0
M  V30 3396 O 325.36 -0.937842 -1.51877 0
M  V30 3397 C 322.46 -1.86345 -2.8307 0
M  V30 3398 C 321.633 -3.16256 -3.0216 0
M  V30 3399 C 320.692 -3.15588 -4.21059 0
M  V30 3400 O 319.718 -3.89314 -4.15239 0
M  V30 3401 N 320.92 -2.37864 -5.29529 0
M  V30 3402 H 323.685 -2.72839 -1.24012 0
M  V30 3403 H 321.246 -1.52814 -0.534737 0
M  V30 3404 H 323.238 -1.83351 -3.60783 0
M  V30 3405 H 321.808 -0.986858 -2.96614 0
M  V30 3406 H 321.028 -3.32385 -2.11929 0
M  V30 3407 H 322.316 -4.0207 -3.11797 0
M  V30 3408 H 321.714 -1.77514 -5.37127 0
M  V30 3409 H 320.271 -2.40668 -6.05741 0
M  V30 3410 N 323.704 0.605807 -1.45491 0
M  V30 3411 C 324.634 1.72709 -1.57143 0
M  V30 3412 C 325.615 1.6476 -0.422884 0
M  V30 3413 O 326.8 1.83132 -0.646247 0
M  V30 3414 C 323.93 3.11316 -1.53948 0
M  V30 3415 C 322.884 3.34077 -2.67537 0
M  V30 3416 C 322.21 4.72975 -2.49397 0
M  V30 3417 C 323.51 3.24158 -4.09535 0
M  V30 3418 H 325.204 1.63214 -2.51001 0
M  V30 3419 H 322.75 0.78379 -1.208 0
M  V30 3420 H 324.703 3.89557 -1.60696 0
M  V30 3421 H 323.427 3.21655 -0.566205 0
M  V30 3422 H 322.086 2.58227 -2.6022 0
M  V30 3423 H 321.734 4.8005 -1.50205 0
M  V30 3424 H 321.434 4.8916 -3.25571 0
M  V30 3425 H 322.958 5.53414 -2.58002 0
M  V30 3426 H 324.372 3.92271 -4.18086 0
M  V30 3427 H 322.769 3.51872 -4.86113 0
M  V30 3428 H 323.839 2.2157 -4.31317 0
M  V30 3429 N 325.182 1.32811 0.848464 0
M  V30 3430 C 326.431 1.23075 1.59798 0
M  V30 3431 C 326.744 -0.204419 1.94529 0
M  V30 3432 O 327.95 -0.423701 2.68173 0
M  V30 3433 C 326.406 2.15594 2.88179 0
M  V30 3434 C 326.014 3.64228 2.60849 0
M  V30 3435 C 327.758 2.14709 3.66197 0
M  V30 3436 C 325.665 4.48689 3.85269 0
M  V30 3437 H 324.595 0.457091 0.599653 0
M  V30 3438 H 327.246 1.57813 0.936342 0
M  V30 3439 H 325.628 1.73778 3.55833 0
M  V30 3440 H 326.802 4.14424 2.01467 0
M  V30 3441 H 325.117 3.67306 1.96151 0
M  V30 3442 H 327.714 2.75046 4.58534 0
M  V30 3443 H 328.057 1.13966 4.00397 0
M  V30 3444 H 328.59 2.54837 3.05455 0
M  V30 3445 H 325.329 5.5027 3.56207 0
M  V30 3446 H 324.849 4.03241 4.44024 0
M  V30 3447 H 326.528 4.62006 4.52946 0
M  V30 3448 N 326.66 -1.06551 1.16123 0
M  V30 3449 C 327.937 -1.76097 0.85142 0
M  V30 3450 C 328.317 -2.00802 -0.6513 0
M  V30 3451 O 327.665 -1.63302 -1.59827 0
M  V30 3452 C 327.875 -3.06384 1.67122 0
M  V30 3453 C 329.223 -3.80585 1.88255 0
M  V30 3454 O 330.247 -3.16218 1.63966 0
M  V30 3455 O 329.106 -4.96212 2.2899 0
M  V30 3456 H 326.2 -0.765102 0.313923 0
M  V30 3457 H 328.746 -1.12844 1.26745 0
M  V30 3458 H 327.518 -2.84071 2.69108 0
M  V30 3459 H 327.141 -3.77371 1.25206 0
M  V30 3460 N 328.138 -0.959301 -1.25041 0
M  V30 3461 C 329.415 -0.533805 -1.88175 0
M  V30 3462 C 329.795 0.988994 -1.865 0
M  V30 3463 O 329.143 1.85677 -1.33177 0
M  V30 3464 C 329.353 -1.11575 -3.30684 0
M  V30 3465 C 330.701 -1.19548 -4.07423 0
M  V30 3466 O 331.725 -1.06765 -3.39823 0
M  V30 3467 O 330.584 -1.39656 -5.28354 0
M  V30 3468 H 327.678 -0.176772 -0.807887 0
M  V30 3469 H 330.224 -1.05303 -1.33076 0
M  V30 3470 H 328.996 -2.15884 -3.26358 0
M  V30 3471 H 328.619 -0.580059 -3.93346 0
M  V30 3472 N 329.616 1.39756 -0.72842 0
M  V30 3473 C 330.566 2.2792 -0.0603424 0
M  V30 3474 C 331.55 1.43922 0.719399 0
M  V30 3475 O 332.742 1.66895 0.589489 0
M  V30 3476 C 329.871 3.32582 0.851104 0
M  V30 3477 C 328.957 4.24049 0.0658641 0
M  V30 3478 N 329.348 4.96653 -0.957578 0
M  V30 3479 C 327.646 4.45013 0.296509 0
M  V30 3480 C 328.347 5.63836 -1.43052 0
M  V30 3481 N 327.323 5.38397 -0.750315 0
M  V30 3482 H 331.125 2.81504 -0.84455 0
M  V30 3483 H 328.639 1.5236 -0.562155 0
M  V30 3484 H 330.636 3.94603 1.34514 0
M  V30 3485 H 329.296 2.80558 1.63454 0
M  V30 3486 H 330.307 5.00297 -1.33877 0
M  V30 3487 H 326.984 4.03943 1.05527 0
M  V30 3488 H 328.374 6.31974 -2.28163 0
M  V30 3489 N 331.094 0.475555 1.50254 0
M  V30 3490 C 332.341 -0.0778919 2.0235 0
M  V30 3491 C 332.669 -1.39319 1.35722 0
M  V30 3492 O 331.924 -1.89888 0.473395 0
M  V30 3493 C 332.223 -0.305114 3.56095 0
M  V30 3494 C 331.889 0.92903 4.41225 0
M  V30 3495 C 330.551 1.26739 4.6421 0
M  V30 3496 C 332.903 1.75054 4.90923 0
M  V30 3497 C 330.231 2.42724 5.34137 0
M  V30 3498 C 332.583 2.9017 5.62125 0
M  V30 3499 C 331.247 3.24416 5.83362 0
M  V30 3500 H 330.517 -0.0285027 0.740452 0
M  V30 3501 H 333.164 0.630543 1.80821 0
M  V30 3502 H 331.469 -1.09584 3.76163 0
M  V30 3503 H 333.166 -0.747377 3.93974 0
M  V30 3504 H 329.756 0.655428 4.23559 0
M  V30 3505 H 333.94 1.50231 4.73016 0
M  V30 3506 H 329.196 2.69525 5.48786 0
M  V30 3507 H 333.37 3.54169 5.99614 0
M  V30 3508 H 330.997 4.14396 6.37323 0
M  V30 3509 N 332.573 -1.56217 0.208337 0
M  V30 3510 C 333.503 -2.22694 -0.702116 0
M  V30 3511 C 334.484 -1.19432 -1.2112 0
M  V30 3512 O 335.669 -1.47978 -1.25762 0
M  V30 3513 C 332.799 -2.8966 -1.9161 0
M  V30 3514 C 331.753 -3.9928 -1.5414 0
M  V30 3515 C 331.079 -4.53476 -2.83308 0
M  V30 3516 C 332.379 -5.17012 -0.741339 0
M  V30 3517 H 334.073 -2.99034 -0.147898 0
M  V30 3518 H 331.619 -1.43831 -0.0696951 0
M  V30 3519 H 333.572 -3.34852 -2.55836 0
M  V30 3520 H 332.296 -2.10746 -2.49507 0
M  V30 3521 H 330.955 -3.54799 -0.922668 0
M  V30 3522 H 330.603 -3.71308 -3.39322 0
M  V30 3523 H 330.303 -5.27451 -2.58976 0
M  V30 3524 H 331.827 -5.01378 -3.485 0
M  V30 3525 H 333.241 -5.58667 -1.28699 0
M  V30 3526 H 331.638 -5.97137 -0.595627 0
M  V30 3527 H 332.708 -4.8423 0.254851 0
M  V30 3528 N 334.051 0.0651679 -1.57465 0
M  V30 3529 C 335.298 0.763063 -1.87573 0
M  V30 3530 C 335.626 1.77242 -0.800961 0
M  V30 3531 O 334.881 1.94651 0.202316 0
M  V30 3532 C 335.18 1.50081 -3.24362 0
M  V30 3533 C 334.846 0.630816 -4.46466 0
M  V30 3534 C 333.508 0.391082 -4.79608 0
M  V30 3535 C 335.86 0.0279465 -5.21193 0
M  V30 3536 C 333.188 -0.460894 -5.84887 0
M  V30 3537 C 335.54 -0.811522 -6.27373 0
M  V30 3538 C 334.204 -1.06106 -6.59013 0
M  V30 3539 H 333.474 0.279224 -0.686378 0
M  V30 3540 H 336.121 0.0236726 -1.91485 0
M  V30 3541 H 334.426 2.31258 -3.16271 0
M  V30 3542 H 336.123 2.04571 -3.44894 0
M  V30 3543 H 332.713 0.8278 -4.2053 0
M  V30 3544 H 336.897 0.200262 -4.95896 0
M  V30 3545 H 332.153 -0.662907 -6.07796 0
M  V30 3546 H 336.327 -1.28537 -6.84435 0
M  V30 3547 H 333.954 -1.723 -7.40417 0
M  V30 3548 N 335.529 1.53961 0.336706 0
M  V30 3549 C 336.806 1.62171 1.09361 0
M  V30 3550 C 337.186 0.447263 2.06307 0
M  V30 3551 O 336.534 -0.559802 2.21537 0
M  V30 3552 C 336.744 2.98565 1.80721 0
M  V30 3553 C 338.092 3.54157 2.34218 0
M  V30 3554 O 339.116 3.00784 1.90807 0
M  V30 3555 O 337.975 4.47528 3.13657 0
M  V30 3556 H 335.069 0.6562 0.503319 0
M  V30 3557 H 337.615 1.66307 0.33765 0
M  V30 3558 H 336.387 3.75482 1.10132 0
M  V30 3559 H 336.01 2.9805 2.63158 0
M  V30 3560 N 337.007 -0.598083 1.45811 0
M  V30 3561 C 337.954 -1.7082 1.55207 0
M  V30 3562 C 338.924 -1.61278 0.39732 0
M  V30 3563 O 340.109 -1.80717 0.612038 0
M  V30 3564 C 337.249 -3.09144 1.53376 0
M  V30 3565 C 336.362 -3.29423 2.79472 0
M  V30 3566 C 335.497 -4.57907 2.69248 0
M  V30 3567 C 334.536 -4.71476 3.90354 0
M  V30 3568 N 333.673 -5.9127 3.78608 0
M  V30 3569 H 338.513 -1.62125 2.50039 0
M  V30 3570 H 336.05 -0.790389 1.24062 0
M  V30 3571 H 338.008 -3.89186 1.50301 0
M  V30 3572 H 336.638 -3.16773 0.620876 0
M  V30 3573 H 335.69 -2.43091 2.92594 0
M  V30 3574 H 337.002 -3.3532 3.69272 0
M  V30 3575 H 336.156 -5.46157 2.64192 0
M  V30 3576 H 334.895 -4.54423 1.77063 0
M  V30 3577 H 333.9 -3.81648 3.95759 0
M  V30 3578 H 335.125 -4.76751 4.83617 0
M  V30 3579 H 333.071 -5.88813 2.89199 0
M  V30 3580 H 332.988 -5.98369 4.6205 0
M  V30 3581 H 334.256 -6.81992 3.77501 0
M  V30 3582 N 338.485 -1.33259 -0.841409 0
M  V30 3583 C 339.896 -1.22066 -1.41269 0
M  V30 3584 C 340.247 0.161479 -1.95534 0
M  V30 3585 O 339.372 1.06094 -1.88608 0
M  V30 3586 C 339.967 -2.20996 -2.568 0
M  V30 3587 C 338.526 -2.13649 -3.09888 0
M  V30 3588 C 337.673 -2.08623 -1.82679 0
M  V30 3589 H 340.624 -1.44895 -0.647395 0
M  V30 3590 H 340.645 -1.81621 -3.34356 0
M  V30 3591 H 340.157 -3.2158 -2.17274 0
M  V30 3592 H 338.258 -1.16359 -3.53965 0
M  V30 3593 H 338.371 -3.04079 -3.70234 0
M  V30 3594 H 336.735 -1.54061 -2.02824 0
M  V30 3595 H 337.518 -3.1101 -1.45353 0
M  V30 3596 N 339.963 1.05934 -1.16686 0
M  V30 3597 C 341.209 1.79065 -0.95203 0
M  V30 3598 C 341.542 1.87147 0.518629 0
M  V30 3599 O 340.817 1.36574 1.38484 0
M  V30 3600 C 341.1 3.23359 -1.58464 0
M  V30 3601 C 340.953 3.23336 -3.12689 0
M  V30 3602 C 342.272 4.21004 -1.28232 0
M  V30 3603 H 339.391 0.65005 -0.34728 0
M  V30 3604 H 342.033 1.23868 -1.44072 0
M  V30 3605 H 340.183 3.70493 -1.16908 0
M  V30 3606 H 341.855 2.84336 -3.6325 0
M  V30 3607 H 340.098 2.61886 -3.4583 0
M  V30 3608 H 340.769 4.25144 -3.52075 0
M  V30 3609 H 343.245 3.8233 -1.64203 0
M  V30 3610 H 342.121 5.20225 -1.75092 0
M  V30 3611 H 342.382 4.41639 -0.201791 0
M  V30 3612 N 341.441 0.965919 1.2453 0
M  V30 3613 C 342.666 0.643971 1.97149 0
M  V30 3614 C 343.091 -0.779487 1.71189 0
M  V30 3615 O 342.449 -1.5288 0.974553 0
M  V30 3616 C 342.497 0.922557 3.48599 0
M  V30 3617 O 341.601 0.00707672 4.12399 0
M  V30 3618 H 340.942 0.243647 0.617683 0
M  V30 3619 H 343.472 1.29558 1.58353 0
M  V30 3620 H 343.482 0.853373 3.98976 0
M  V30 3621 H 342.157 1.95996 3.66822 0
M  V30 3622 H 340.734 0.12943 3.72675 0
M  V30 3623 N 342.919 -1.39368 0.735821 0
M  V30 3624 C 344.33 -1.83313 0.354015 0
M  V30 3625 C 344.681 -1.61461 -1.11466 0
M  V30 3626 O 343.806 -1.10621 -1.85989 0
M  V30 3627 C 344.401 -3.32781 0.635769 0
M  V30 3628 C 342.96 -3.75142 0.307448 0
M  V30 3629 C 342.107 -2.62358 0.897974 0
M  V30 3630 H 345.058 -1.28349 0.933398 0
M  V30 3631 H 345.079 -3.80388 -0.0921773 0
M  V30 3632 H 344.591 -3.48654 1.70476 0
M  V30 3633 H 342.692 -3.64857 -0.755674 0
M  V30 3634 H 342.805 -4.72532 0.790583 0
M  V30 3635 H 341.169 -2.52624 0.324551 0
M  V30 3636 H 341.952 -2.81036 1.97164 0
M  V30 3637 N 344.397 -0.483516 -1.5 0
M  V30 3638 C 345.327 0.293829 -2.31644 0
M  V30 3639 C 346.308 0.978864 -1.39112 0
M  V30 3640 O 347.493 0.973644 -1.68029 0
M  V30 3641 C 344.623 1.36897 -3.19181 0
M  V30 3642 C 343.577 0.804833 -4.20365 0
M  V30 3643 C 342.903 1.9792 -4.96721 0
M  V30 3644 C 344.203 -0.192313 -5.21946 0
M  V30 3645 H 345.897 -0.387616 -2.9688 0
M  V30 3646 H 343.443 -0.187856 -1.42769 0
M  V30 3647 H 345.396 1.92037 -3.751 0
M  V30 3648 H 344.12 2.07936 -2.51853 0
M  V30 3649 H 342.779 0.275319 -3.65565 0
M  V30 3650 H 342.427 2.67686 -4.25856 0
M  V30 3651 H 342.127 1.60789 -5.65173 0
M  V30 3652 H 343.651 2.53526 -5.55479 0
M  V30 3653 H 345.065 0.270333 -5.72662 0
M  V30 3654 H 343.462 -0.478543 -5.98189 0
M  V30 3655 H 344.532 -1.11409 -4.71928 0
M  V30 3656 N 345.875 1.56104 -0.216619 0
M  V30 3657 C 346.805 2.23063 0.690296 0
M  V30 3658 C 347.786 1.20072 1.20485 0
M  V30 3659 O 348.971 1.48643 1.24976 0
M  V30 3660 C 346.101 2.90672 1.90072 0
M  V30 3661 C 345.055 4.00092 1.5202 0
M  V30 3662 C 344.381 4.54972 2.80899 0
M  V30 3663 C 345.681 5.17398 0.71391 0
M  V30 3664 H 347.375 2.99109 0.132038 0
M  V30 3665 H 344.921 1.43866 0.0620664 0
M  V30 3666 H 346.874 3.36204 2.54057 0
M  V30 3667 H 345.598 2.12066 2.48386 0
M  V30 3668 H 344.257 3.55283 0.903839 0
M  V30 3669 H 343.905 3.73102 3.37348 0
M  V30 3670 H 343.605 5.28817 2.56176 0
M  V30 3671 H 345.129 5.0322 3.45836 0
M  V30 3672 H 346.543 5.59342 1.25735 0
M  V30 3673 H 344.94 5.97444 0.563951 0
M  V30 3674 H 346.01 4.84088 -0.280527 0
M  V30 3675 N 347.353 -0.0568162 1.57498 0
M  V30 3676 C 348.581 -0.765626 1.92213 0
M  V30 3677 C 348.996 -1.70353 0.813961 0
M  V30 3678 O 348.353 -1.81268 -0.211701 0
M  V30 3679 C 348.404 -1.5465 3.2675 0
M  V30 3680 O 348.125 -0.646278 4.33307 0
M  V30 3681 C 349.626 -2.35497 3.75574 0
M  V30 3682 H 346.846 -0.216835 0.634999 0
M  V30 3683 H 349.39 -0.0226146 2.04487 0
M  V30 3684 H 347.545 -2.24165 3.15957 0
M  V30 3685 H 347.959 -1.19093 5.108 0
M  V30 3686 H 349.433 -2.85722 4.72299 0
M  V30 3687 H 349.91 -3.15692 3.05344 0
M  V30 3688 H 350.516 -1.7111 3.8936 0
M  V30 3689 N 348.832 -1.54138 -0.328536 0
M  V30 3690 C 349.795 -1.82462 -1.38709 0
M  V30 3691 C 350.795 -0.696229 -1.44946 0
M  V30 3692 O 351.985 -0.964535 -1.4506 0
M  V30 3693 C 349.117 -1.98018 -2.77492 0
M  V30 3694 H 350.31 -2.77037 -1.14851 0
M  V30 3695 H 347.863 -1.45779 -0.563751 0
M  V30 3696 H 348.598 -1.05637 -3.06613 0
M  V30 3697 H 348.383 -2.80124 -2.74359 0
M  V30 3698 H 349.873 -2.21396 -3.54081 0
M  V30 3699 N 350.31 0.590341 -1.46126 0
M  V30 3700 C 351.273 1.68194 -1.55703 0
M  V30 3701 C 352.273 1.54808 -0.434868 0
M  V30 3702 O 353.463 1.59564 -0.698928 0
M  V30 3703 C 350.595 3.07575 -1.47005 0
M  V30 3704 H 351.788 1.61064 -2.52979 0
M  V30 3705 H 349.341 0.807541 -1.33823 0
M  V30 3706 H 350.076 3.20268 -0.509785 0
M  V30 3707 H 349.861 3.187 -2.28414 0
M  V30 3708 H 351.351 3.87055 -1.56776 0
M  V30 3709 N 351.788 1.33704 0.83433 0
M  V30 3710 C 353.036 1.25169 1.58673 0
M  V30 3711 C 353.357 -0.18127 1.94156 0
M  V30 3712 O 352.627 -1.11113 1.6134 0
M  V30 3713 H 351.207 0.4603 0.58833 0
M  V30 3714 H 353.869 1.67478 0.996847 0
M  V30 3715 H 352.965 1.84856 2.51465 0
M  V30 3716 N 353.266 -1.05314 1.17247 0
M  V30 3717 C 354.199 -2.12512 0.831507 0
M  V30 3718 C 355.177 -1.61351 -0.201168 0
M  V30 3719 O 356.361 -1.88317 -0.0829831 0
M  V30 3720 C 353.488 -3.37848 0.24015 0
M  V30 3721 C 352.534 -4.07832 1.24801 0
M  V30 3722 S 353.367 -4.56537 2.79882 0
M  V30 3723 C 354.523 -5.85122 2.22223 0
M  V30 3724 H 354.756 -2.41106 1.7394 0
M  V30 3725 H 352.289 -1.17896 0.996988 0
M  V30 3726 H 354.247 -4.10391 -0.0945588 0
M  V30 3727 H 352.908 -3.07392 -0.645668 0
M  V30 3728 H 352.101 -4.97883 0.78287 0
M  V30 3729 H 351.703 -3.41348 1.52831 0
M  V30 3730 H 353.995 -6.58408 1.59703 0
M  V30 3731 H 354.938 -6.36381 3.10523 0
M  V30 3732 H 355.346 -5.39626 1.65722 0
M  V30 3733 N 354.744 -0.972509 -1.24016 0
M  V30 3734 C 355.707 -0.511403 -2.23422 0
M  V30 3735 C 356.707 0.394679 -1.55881 0
M  V30 3736 O 357.897 0.189469 -1.73167 0
M  V30 3737 C 355.029 0.258769 -3.39916 0
M  V30 3738 H 356.222 -1.39024 -2.6573 0
M  V30 3739 H 353.775 -0.757585 -1.36713 0
M  V30 3740 H 354.51 1.1545 -3.03054 0
M  V30 3741 H 354.295 -0.391522 -3.9014 0
M  V30 3742 H 355.785 0.570244 -4.13688 0
M  V30 3743 N 356.222 1.38976 -0.743202 0
M  V30 3744 C 357.638 1.53984 -0.419664 0
M  V30 3745 C 357.838 1.70837 1.0685 0
M  V30 3746 O 356.894 1.7135 1.8546 0
M  V30 3747 C 358.207 2.75287 -1.20985 0
M  V30 3748 C 359.755 2.89129 -1.19889 0
M  V30 3749 C 360.23 4.13381 -1.97181 0
M  V30 3750 N 361.721 4.20437 -1.94389 0
M  V30 3751 C 362.456 5.15547 -2.50996 0
M  V30 3752 N 361.952 6.16395 -3.16274 0
M  V30 3753 N 363.745 5.07822 -2.40984 0
M  V30 3754 H 355.896 1.26285 -1.7078 0
M  V30 3755 H 358.159 0.612689 -0.723406 0
M  V30 3756 H 357.865 2.69204 -2.26323 0
M  V30 3757 H 357.739 3.68184 -0.819759 0
M  V30 3758 H 360.126 2.947 -0.153606 0
M  V30 3759 H 360.207 1.97272 -1.62841 0
M  V30 3760 H 359.851 4.08572 -3.01714 0
M  V30 3761 H 359.781 5.04298 -1.51629 0
M  V30 3762 H 362.272 3.48205 -1.46839 0
M  V30 3763 H 362.585 6.85443 -3.56915 0
M  V30 3764 H 360.93 6.16758 -3.20367 0
M  V30 3765 H 364.121 4.27973 -1.89622 0
M  V30 3766 H 364.294 5.81767 -2.85397 0
M  V30 3767 N 357.7 0.491464 1.49741 0
M  V30 3768 C 358.977 -0.118984 1.95238 0
M  V30 3769 C 359.357 -1.55044 1.43264 0
M  V30 3770 O 358.705 -2.19287 0.642287 0
M  V30 3771 C 358.915 -0.0414187 3.48975 0
M  V30 3772 C 360.263 -0.220133 4.24029 0
M  V30 3773 O 361.287 -0.117055 3.56008 0
M  V30 3774 O 360.146 -0.430567 5.44801 0
M  V30 3775 H 357.24 -0.100536 0.820866 0
M  V30 3776 H 359.786 0.553322 1.60426 0
M  V30 3777 H 358.558 0.957214 3.79412 0
M  V30 3778 H 358.181 -0.754292 3.9038 0
M  V30 3779 N 359.178 -1.55987 0.224894 0
M  V30 3780 C 360.424 -1.99433 -0.39973 0
M  V30 3781 C 360.779 -1.11004 -1.57149 0
M  V30 3782 O 360.072 -0.160725 -1.90925 0
M  V30 3783 C 360.266 -3.46394 -0.880106 0
M  V30 3784 C 360.095 -4.4904 0.243565 0
M  V30 3785 C 358.865 -5.00272 0.711056 0
M  V30 3786 C 361.063 -5.03195 1.06299 0
M  V30 3787 N 359.045 -5.86628 1.80944 0
M  V30 3788 C 360.416 -5.86508 2.01017 0
M  V30 3789 C 362.471 -4.8555 1.10205 0
M  V30 3790 C 361.174 -6.54062 2.99324 0
M  V30 3791 C 363.2 -5.53866 2.07332 0
M  V30 3792 C 362.562 -6.3695 3.00789 0
M  V30 3793 H 358.661 -0.773815 -0.112847 0
M  V30 3794 H 361.245 -1.91754 0.337432 0
M  V30 3795 H 359.416 -3.54515 -1.58662 0
M  V30 3796 H 361.148 -3.76752 -1.47783 0
M  V30 3797 H 357.903 -4.72655 0.29906 0
M  V30 3798 H 358.327 -6.34507 2.36073 0
M  V30 3799 H 362.969 -4.20966 0.39343 0
M  V30 3800 H 360.687 -7.17827 3.71147 0
M  V30 3801 H 364.273 -5.42178 2.11032 0
M  V30 3802 H 363.153 -6.8888 3.74718 0
M  V30 3803 N 360.656 0.0484629 -1.57525 0
M  V30 3804 C 362.067 0.597486 -1.76881 0
M  V30 3805 C 362.418 1.76664 -0.853475 0
M  V30 3806 O 361.543 2.16357 -0.0433656 0
M  V30 3807 C 362.138 1.09066 -3.20765 0
M  V30 3808 C 360.697 1.58535 -3.41385 0
M  V30 3809 C 359.844 0.514868 -2.72478 0
M  V30 3810 H 362.795 -0.177758 -1.57701 0
M  V30 3811 H 362.816 1.95875 -3.2621 0
M  V30 3812 H 362.328 0.239521 -3.8736 0
M  V30 3813 H 360.429 2.45898 -2.79937 0
M  V30 3814 H 360.542 1.64622 -4.49929 0
M  V30 3815 H 358.906 0.965407 -2.35695 0
M  V30 3816 H 359.689 -0.32648 -3.41744 0
M  V30 3817 N 362.134 1.5431 0.320358 0
M  V30 3818 C 363.411 1.63322 1.07635 0
M  V30 3819 C 363.791 0.46912 2.05821 0
M  V30 3820 O 363.139 -0.536274 2.22118 0
M  V30 3821 C 363.349 3.00465 1.77544 0
M  V30 3822 C 364.697 3.56621 2.30449 0
M  V30 3823 O 365.721 3.02791 1.87606 0
M  V30 3824 O 364.58 4.5083 3.08892 0
M  V30 3825 H 361.674 0.661502 0.496331 0
M  V30 3826 H 364.22 1.66656 0.319992 0
M  V30 3827 H 362.992 3.76629 1.06143 0
M  V30 3828 H 362.615 3.00824 2.59982 0
M  V30 3829 N 363.613 -0.582584 1.46437 0
M  V30 3830 C 364.576 -1.67366 1.56592 0
M  V30 3831 C 365.576 -1.54575 0.443072 0
M  V30 3832 O 366.766 -1.59191 0.707381 0
M  V30 3833 C 363.898 -3.06791 1.48634 0
M  V30 3834 H 365.091 -1.5972 2.5383 0
M  V30 3835 H 362.644 -0.800432 1.34249 0
M  V30 3836 H 363.379 -3.19993 0.526763 0
M  V30 3837 H 363.164 -3.17484 2.30101 0
M  V30 3838 H 364.654 -3.86218 1.58826 0
M  V30 3839 N 365.091 -1.34144 -0.827227 0
M  V30 3840 C 366.507 -1.13732 -1.11969 0
M  V30 3841 C 366.707 0.0640463 -2.01398 0
M  V30 3842 O 365.763 0.740856 -2.41387 0
M  V30 3843 C 367.076 -2.43047 -1.77055 0
M  V30 3844 C 368.624 -2.49063 -1.89569 0
M  V30 3845 C 369.099 -3.78369 -2.58072 0
M  V30 3846 N 370.59 -3.79505 -2.65575 0
M  V30 3847 C 371.325 -4.76274 -3.19297 0
M  V30 3848 N 370.821 -5.83424 -3.73616 0
M  V30 3849 N 372.614 -4.63735 -3.17658 0
M  V30 3850 H 364.765 -2.11126 -0.232296 0
M  V30 3851 H 367.028 -0.933424 -0.165602 0
M  V30 3852 H 366.734 -3.31025 -1.18807 0
M  V30 3853 H 366.608 -2.56066 -2.76966 0
M  V30 3854 H 368.995 -1.61527 -2.46968 0
M  V30 3855 H 369.076 -2.39975 -0.885745 0
M  V30 3856 H 368.72 -4.66293 -2.01329 0
M  V30 3857 H 368.65 -3.84737 -3.59562 0
M  V30 3858 H 371.141 -3.02074 -2.27068 0
M  V30 3859 H 371.454 -6.53282 -4.12846 0
M  V30 3860 H 369.799 -5.87143 -3.71871 0
M  V30 3861 H 372.99 -3.79177 -2.74486 0
M  V30 3862 H 373.163 -5.39318 -3.59221 0
M  V30 3863 N 366.569 1.04691 -1.17803 0
M  V30 3864 C 367.817 1.7743 -0.967617 0
M  V30 3865 C 368.138 1.88359 0.504574 0
M  V30 3866 O 367.408 1.40402 1.36617 0
M  V30 3867 H 365.988 0.657242 -0.355024 0
M  V30 3868 H 368.65 1.2638 -1.48371 0
M  V30 3869 H 367.746 2.78924 -1.40027 0
M  V30 3870 N 368.047 0.979072 1.23499 0
M  V30 3871 C 369.296 0.642751 1.91185 0
M  V30 3872 C 369.609 -0.827253 1.77245 0
M  V30 3873 O 370.815 -1.27458 2.39722 0
M  V30 3874 C 369.271 1.09901 3.42709 0
M  V30 3875 C 368.879 2.59327 3.65313 0
M  V30 3876 C 370.623 0.836371 4.16179 0
M  V30 3877 C 368.53 2.98627 5.10467 0
M  V30 3878 H 367.46 0.236698 0.715884 0
M  V30 3879 H 370.111 1.1868 1.39955 0
M  V30 3880 H 368.493 0.48319 3.93041 0
M  V30 3881 H 369.667 3.26136 3.25533 0
M  V30 3882 H 367.982 2.83323 3.05151 0
M  V30 3883 H 370.579 1.10586 5.23139 0
M  V30 3884 H 370.922 -0.227509 4.15678 0
M  V30 3885 H 371.455 1.41371 3.71832 0
M  V30 3886 H 368.194 4.04133 5.16098 0
M  V30 3887 H 367.714 2.3651 5.51201 0
M  V30 3888 H 369.393 2.89159 5.78788 0
M  V30 3889 N 369.525 -1.3858 0.750561 0
M  V30 3890 C 370.771 -2.0095 0.31477 0
M  V30 3891 C 371.126 -1.58509 -1.09053 0
M  V30 3892 O 370.419 -0.8112 -1.7358 0
M  V30 3893 C 370.613 -3.55455 0.372373 0
M  V30 3894 C 370.442 -4.12898 1.78173 0
M  V30 3895 C 369.212 -4.44797 2.39757 0
M  V30 3896 C 371.41 -4.35366 2.7379 0
M  V30 3897 N 369.392 -4.87831 3.72685 0
M  V30 3898 C 370.763 -4.80775 3.91478 0
M  V30 3899 C 372.818 -4.1746 2.71351 0
M  V30 3900 C 371.521 -5.10155 5.07084 0
M  V30 3901 C 373.547 -4.47963 3.86113 0
M  V30 3902 C 372.909 -4.93593 5.02539 0
M  V30 3903 H 369.008 -0.765083 0.161776 0
M  V30 3904 H 371.592 -1.68246 0.979867 0
M  V30 3905 H 369.763 -3.87512 -0.26244 0
M  V30 3906 H 371.495 -4.04614 -0.0834479 0
M  V30 3907 H 368.25 -4.33135 1.91548 0
M  V30 3908 H 368.674 -5.13685 4.40972 0
M  V30 3909 H 373.316 -3.81372 1.82524 0
M  V30 3910 H 371.034 -5.45141 5.96529 0
M  V30 3911 H 374.62 -4.35717 3.85542 0
M  V30 3912 H 373.5 -5.16746 5.89867 0
M  V30 3913 N 371.003 -0.499398 -1.49478 0
M  V30 3914 C 371.953 0.299103 -2.2603 0
M  V30 3915 C 372.937 0.936934 -1.30807 0
M  V30 3916 O 374.129 0.844798 -1.55538 0
M  V30 3917 C 371.258 1.36391 -3.15044 0
M  V30 3918 C 370.344 0.732398 -4.17728 0
M  V30 3919 N 370.735 -0.164028 -5.05534 0
M  V30 3920 C 369.033 0.993162 -4.34801 0
M  V30 3921 C 369.734 -0.525345 -5.79323 0
M  V30 3922 N 368.71 0.106348 -5.43496 0
M  V30 3923 H 372.512 -0.391003 -2.91287 0
M  V30 3924 H 370.026 -0.31537 -1.59308 0
M  V30 3925 H 372.023 1.94939 -3.68516 0
M  V30 3926 H 370.683 2.05571 -2.51338 0
M  V30 3927 H 371.694 -0.534736 -5.15132 0
M  V30 3928 H 368.371 1.67783 -3.82302 0
M  V30 3929 H 369.761 -1.25862 -6.60006 0
M  V30 3930 N 372.481 1.55866 -0.233164 0
M  V30 3931 C 373.429 2.22176 0.68851 0
M  V30 3932 C 374.423 1.20487 1.19076 0
M  V30 3933 O 375.629 1.38536 1.14925 0
M  V30 3934 H 372.004 0.712511 0.240483 0
M  V30 3935 H 373.975 2.98212 0.105935 0
M  V30 3936 C 372.724 2.92446 1.88071 0
M  V30 3937 H 372.047 3.70458 1.50337 0
M  V30 3938 H 373.487 3.42226 2.50314 0
M  V30 3939 C 371.946 1.95555 2.74335 0
M  V30 3940 O 372.476 1.47986 3.73447 0
M  V30 3941 N 370.682 1.62953 2.40613 0
M  V30 3942 H 370.229 2.01831 1.60069 0
M  V30 3943 H 370.187 0.983886 2.98609 0
M  V30 3944 N 373.959 -0.0401083 1.57549 0
M  V30 3945 C 374.907 -1.06264 2.06908 0
M  V30 3946 C 375.901 -1.38132 0.980608 0
M  V30 3947 O 377.107 -1.37167 1.16556 0
M  V30 3948 H 373.482 -0.360166 0.660139 0
M  V30 3949 H 375.453 -0.620445 2.91878 0
M  V30 3950 C 374.202 -2.35846 2.55483 0
M  V30 3951 H 373.525 -2.12183 3.38849 0
M  V30 3952 H 374.965 -3.05765 2.93741 0
M  V30 3953 C 373.424 -3.0404 1.45126 0
M  V30 3954 O 373.954 -3.93424 0.811216 0
M  V30 3955 N 372.16 -2.65184 1.18852 0
M  V30 3956 H 371.707 -1.92584 1.71083 0
M  V30 3957 H 371.665 -3.1113 0.452244 0
M  V30 3958 N 375.437 -1.54477 -0.31217 0
M  V30 3959 C 376.347 -1.87695 -1.4074 0
M  V30 3960 C 377.363 -0.769975 -1.56036 0
M  V30 3961 O 378.539 -1.06537 -1.70915 0
M  V30 3962 C 375.604 -2.10755 -2.75287 0
M  V30 3963 C 374.665 -3.34514 -2.69071 0
M  V30 3964 C 373.898 -3.56465 -3.97201 0
M  V30 3965 O 374.121 -2.81637 -4.96021 0
M  V30 3966 O 373.055 -4.49964 -3.9977 0
M  V30 3967 H 376.881 -2.80849 -1.15574 0
M  V30 3968 H 374.466 -1.40526 -0.507228 0
M  V30 3969 H 376.348 -2.27188 -3.54913 0
M  V30 3970 H 375.023 -1.20788 -3.0032 0
M  V30 3971 H 373.93 -3.23456 -1.87955 0
M  V30 3972 H 375.263 -4.24575 -2.48992 0
M  V30 3973 N 376.915 0.57481 -1.46744 0
M  V30 3974 C 377.862 1.68329 -1.57905 0
M  V30 3975 C 378.832 1.60625 -0.422927 0
M  V30 3976 O 380.017 1.79721 -0.640711 0
M  V30 3977 C 377.157 3.06665 -1.58274 0
M  V30 3978 C 376.27 3.24935 -2.84678 0
M  V30 3979 C 375.405 4.53566 -2.76499 0
M  V30 3980 C 374.444 4.65207 -3.97806 0
M  V30 3981 N 373.581 5.85172 -3.87967 0
M  V30 3982 H 378.421 1.58127 -2.52587 0
M  V30 3983 H 375.958 0.770552 -1.25303 0
M  V30 3984 H 377.916 3.86745 -1.56473 0
M  V30 3985 H 376.546 3.15745 -0.671194 0
M  V30 3986 H 375.598 2.38405 -2.96424 0
M  V30 3987 H 376.91 3.29403 -3.7456 0
M  V30 3988 H 376.064 5.41885 -2.72848 0
M  V30 3989 H 374.803 4.51548 -1.8427 0
M  V30 3990 H 373.808 3.75304 -4.0178 0
M  V30 3991 H 375.033 4.68997 -4.9114 0
M  V30 3992 H 372.979 5.84137 -2.98529 0
M  V30 3993 H 372.896 5.90943 -4.71511 0
M  V30 3994 H 374.164 6.759 -3.88303 0
M  V30 3995 N 378.394 1.34581 0.820102 0
M  V30 3996 C 379.619 1.30333 1.61332 0
M  V30 3997 C 380.044 -0.119339 1.87721 0
M  V30 3998 O 379.402 -1.08197 1.45475 0
M  V30 3999 C 379.45 2.10258 2.92957 0
M  V30 4000 O 378.554 1.47404 3.85157 0
M  V30 4001 H 377.895 0.447488 0.490561 0
M  V30 4002 H 380.425 1.77425 1.01889 0
M  V30 4003 H 380.435 2.21718 3.42498 0
M  V30 4004 H 379.11 3.13693 2.73074 0
M  V30 4005 H 377.687 1.44703 3.43679 0
M  V30 4006 N 379.872 -1.04064 1.18357 0
M  V30 4007 C 381.119 -1.77265 0.978947 0
M  V30 4008 C 381.447 -1.88189 -0.491428 0
M  V30 4009 O 380.702 -1.38653 -1.38108 0
M  V30 4010 C 381.001 -3.20634 1.57888 0
M  V30 4011 C 380.667 -3.29743 3.07539 0
M  V30 4012 C 379.329 -3.31937 3.48384 0
M  V30 4013 C 381.681 -3.29841 4.03552 0
M  V30 4014 C 379.009 -3.3187 4.83818 0
M  V30 4015 C 381.361 -3.31313 5.38901 0
M  V30 4016 C 380.025 -3.31799 5.79194 0
M  V30 4017 H 379.295 -0.648659 0.358222 0
M  V30 4018 H 381.942 -1.22225 1.47422 0
M  V30 4019 H 380.247 -3.78675 1.00561 0
M  V30 4020 H 381.944 -3.75917 1.39598 0
M  V30 4021 H 378.534 -3.28757 2.74986 0
M  V30 4022 H 382.718 -3.27337 3.73047 0
M  V30 4023 H 377.974 -3.30562 5.14333 0
M  V30 4024 H 382.148 -3.30338 6.13066 0
M  V30 4025 H 379.775 -3.315 6.84114 0
M  V30 4026 N 381.35 -0.985608 -1.22978 0
M  V30 4027 C 382.28 -0.549649 -2.26939 0
M  V30 4028 C 383.261 0.419803 -1.64838 0
M  V30 4029 O 384.446 0.31203 -1.91677 0
M  V30 4030 C 381.576 0.143652 -3.47003 0
M  V30 4031 C 380.53 -0.743606 -4.21491 0
M  V30 4032 C 379.856 0.0822027 -5.34637 0
M  V30 4033 C 381.156 -2.03694 -4.80943 0
M  V30 4034 H 382.85 -1.41862 -2.63658 0
M  V30 4035 H 380.396 -0.683571 -1.26741 0
M  V30 4036 H 382.349 0.459985 -4.18882 0
M  V30 4037 H 381.073 1.04711 -3.09359 0
M  V30 4038 H 379.732 -1.04347 -3.51436 0
M  V30 4039 H 379.38 0.986359 -4.93234 0
M  V30 4040 H 379.08 -0.508377 -5.85397 0
M  V30 4041 H 380.604 0.392797 -6.09335 0
M  V30 4042 H 382.018 -1.78504 -5.44802 0
M  V30 4043 H 380.415 -2.57573 -5.42011 0
M  V30 4044 H 381.485 -2.72042 -4.01399 0
M  V30 4045 N 382.828 1.3818 -0.7579 0
M  V30 4046 C 384.077 1.99261 -0.312744 0
M  V30 4047 C 384.39 1.60846 1.11301 0
M  V30 4048 O 385.596 2.14929 1.65885 0
M  V30 4049 C 384.052 3.56294 -0.50821 0
M  V30 4050 C 383.66 4.03657 -1.94333 0
M  V30 4051 C 385.404 4.24313 -0.125982 0
M  V30 4052 C 383.311 5.53347 -2.08712 0
M  V30 4053 H 382.241 0.745456 -0.113185 0
M  V30 4054 H 384.892 1.57889 -0.935056 0
M  V30 4055 H 383.274 3.95575 0.183353 0
M  V30 4056 H 384.448 3.75655 -2.66871 0
M  V30 4057 H 382.763 3.48376 -2.28086 0
M  V30 4058 H 385.36 5.34279 -0.212125 0
M  V30 4059 H 385.703 4.05962 0.921964 0
M  V30 4060 H 386.236 3.90285 -0.769563 0
M  V30 4061 H 382.975 5.76607 -3.11777 0
M  V30 4062 H 382.495 5.83078 -1.4064 0
M  V30 4063 H 384.174 6.19111 -1.87912 0
M  V30 4064 N 384.306 0.507319 1.49211 0
M  V30 4065 C 385.552 -0.0269732 2.03382 0
M  V30 4066 C 385.907 -1.34111 1.37957 0
M  V30 4067 O 385.2 -1.84733 0.508351 0
M  V30 4068 C 385.394 -0.229513 3.56662 0
M  V30 4069 C 385.223 1.06344 4.36945 0
M  V30 4070 C 383.993 1.617 4.78729 0
M  V30 4071 C 386.191 1.96833 4.75143 0
M  V30 4072 N 384.173 2.8552 5.43463 0
M  V30 4073 C 385.544 3.0523 5.39661 0
M  V30 4074 C 387.599 1.97434 4.57082 0
M  V30 4075 C 386.302 4.14265 5.88028 0
M  V30 4076 C 388.328 3.05448 5.06414 0
M  V30 4077 C 387.69 4.12564 5.70938 0
M  V30 4078 H 383.789 0.0310673 0.781383 0
M  V30 4079 H 386.373 0.683579 1.82305 0
M  V30 4080 H 384.544 -0.909127 3.7761 0
M  V30 4081 H 386.276 -0.761377 3.97473 0
M  V30 4082 H 383.031 1.16132 4.59141 0
M  V30 4083 H 383.455 3.48499 5.80412 0
M  V30 4084 H 388.097 1.15924 4.06597 0
M  V30 4085 H 385.815 4.96569 6.3753 0
M  V30 4086 H 389.401 3.06941 4.94246 0
M  V30 4087 H 388.281 4.94767 6.0842 0
M  V30 4088 N 385.784 -1.5574 0.241426 0
M  V30 4089 C 387.03 -1.99104 -0.385406 0
M  V30 4090 C 387.363 -1.1293 -1.57988 0
M  V30 4091 O 386.638 -0.191449 -1.93555 0
M  V30 4092 C 386.921 -3.51087 -0.800616 0
M  V30 4093 C 386.774 -4.48028 0.398874 0
M  V30 4094 C 388.093 -4.08015 -1.64959 0
M  V30 4095 H 385.212 -0.723848 -0.138614 0
M  V30 4096 H 387.854 -1.86903 0.341642 0
M  V30 4097 H 386.004 -3.61615 -1.4201 0
M  V30 4098 H 387.676 -4.49487 1.03726 0
M  V30 4099 H 385.919 -4.21077 1.04293 0
M  V30 4100 H 386.59 -5.51962 0.0651056 0
M  V30 4101 H 389.066 -4.00555 -1.12672 0
M  V30 4102 H 387.942 -5.14635 -1.90898 0
M  V30 4103 H 388.203 -3.56131 -2.61961 0
M  V30 4104 N 387.262 0.0317525 -1.57568 0
M  V30 4105 C 388.21 1.05165 -2.07468 0
M  V30 4106 C 389.204 1.3761 -0.98792 0
M  V30 4107 O 390.41 1.36546 -1.17282 0
M  V30 4108 H 386.785 0.35666 -0.66204 0
M  V30 4109 H 388.756 0.604958 -2.92203 0
M  V30 4110 C 387.505 2.34488 -2.56731 0
M  V30 4111 H 386.828 2.10383 -3.39969 0
M  V30 4112 H 388.268 3.04203 -2.95358 0
M  V30 4113 C 386.727 3.03266 -1.46736 0
M  V30 4114 O 387.257 3.92988 -0.832069 0
M  V30 4115 N 385.463 2.6455 -1.20256 0
M  V30 4116 H 385.01 1.91674 -1.72102 0
M  V30 4117 H 384.968 3.10886 -0.468737 0
M  V30 4118 N 388.74 1.54641 0.303973 0
M  V30 4119 C 389.65 1.88439 1.39743 0
M  V30 4120 C 390.666 0.778239 1.55626 0
M  V30 4121 O 391.842 1.07442 1.70347 0
M  V30 4122 C 388.907 2.12212 2.74166 0
M  V30 4123 C 387.968 3.35936 2.67293 0
M  V30 4124 C 387.201 3.58566 3.95305 0
M  V30 4125 O 387.424 2.84263 4.9452 0
M  V30 4126 O 386.358 4.52078 3.97378 0
M  V30 4127 H 390.184 2.81458 1.14083 0
M  V30 4128 H 387.769 1.40793 0.499768 0
M  V30 4129 H 389.651 2.29067 3.53704 0
M  V30 4130 H 388.326 1.22379 2.99675 0
M  V30 4131 H 387.233 3.24448 1.86237 0
M  V30 4132 H 388.566 4.2589 2.46736 0
M  V30 4133 N 390.218 -0.567019 1.47046 0
M  V30 4134 C 391.128 -1.70247 1.6141 0
M  V30 4135 C 392.144 -1.66746 0.497157 0
M  V30 4136 O 393.32 -1.86371 0.763389 0
M  V30 4137 C 390.385 -3.06756 1.61561 0
M  V30 4138 C 389.446 -3.21399 2.84607 0
M  V30 4139 C 388.679 -4.51396 2.84741 0
M  V30 4140 O 388.902 -5.36255 1.94388 0
M  V30 4141 O 387.836 -4.69621 3.76483 0
M  V30 4142 H 391.662 -1.61073 2.57467 0
M  V30 4143 H 389.247 -0.735894 1.30019 0
M  V30 4144 H 391.129 -3.8801 1.64396 0
M  V30 4145 H 389.804 -3.16333 0.686684 0
M  V30 4146 H 388.711 -2.39579 2.8732 0
M  V30 4147 H 390.044 -3.16721 3.76761 0
M  V30 4148 N 391.696 -1.35014 -0.812953 0
M  V30 4149 C 392.973 -1.18502 -1.55617 0
M  V30 4150 C 393.353 0.238421 -2.09749 0
M  V30 4151 O 392.701 1.2411 -1.91857 0
M  V30 4152 C 392.911 -2.24783 -2.66971 0
M  V30 4153 C 394.259 -2.60268 -3.35478 0
M  V30 4154 O 395.283 -2.23648 -2.77236 0
M  V30 4155 O 394.142 -3.2321 -4.40678 0
M  V30 4156 H 391.236 -0.459984 -0.687272 0
M  V30 4157 H 393.782 -1.46677 -0.853464 0
M  V30 4158 H 392.554 -3.20284 -2.24798 0
M  V30 4159 H 392.177 -1.97841 -3.44884 0
M  V30 4160 N 393.175 1.03435 -1.18907 0
M  V30 4161 C 394.125 2.09924 -0.889706 0
M  V30 4162 C 395.109 1.60261 0.143216 0
M  V30 4163 O 396.301 1.76892 -0.0617122 0
M  V30 4164 C 393.43 3.40669 -0.424168 0
M  V30 4165 C 392.516 3.97082 -1.48952 0
M  V30 4166 N 392.907 4.27227 -2.70759 0
M  V30 4167 C 391.205 4.25029 -1.35152 0
M  V30 4168 C 391.906 4.7246 -3.39347 0
M  V30 4169 N 390.882 4.7366 -2.66735 0
M  V30 4170 H 394.684 2.31116 -1.81555 0
M  V30 4171 H 392.198 1.21246 -1.08042 0
M  V30 4172 H 394.195 4.16461 -0.191176 0
M  V30 4173 H 392.855 3.20901 0.495263 0
M  V30 4174 H 393.866 4.16678 -3.0757 0
M  V30 4175 H 390.543 4.14554 -0.495126 0
M  V30 4176 H 391.933 5.04751 -4.43481 0
M  V30 4177 N 394.653 0.992116 1.22453 0
M  V30 4178 C 395.881 0.685944 1.95198 0
M  V30 4179 C 396.296 -0.749233 1.73297 0
M  V30 4180 O 395.653 -1.50549 1.03156 0
M  V30 4181 C 395.704 0.981395 3.47924 0
M  V30 4182 O 395.425 2.36018 3.6909 0
M  V30 4183 C 396.926 0.692815 4.37853 0
M  V30 4184 H 394.146 0.253821 0.621141 0
M  V30 4185 H 396.69 1.32668 1.55626 0
M  V30 4186 H 394.845 0.386481 3.85467 0
M  V30 4187 H 395.259 2.45884 4.63294 0
M  V30 4188 H 396.733 0.949818 5.43767 0
M  V30 4189 H 397.21 -0.373181 4.37612 0
M  V30 4190 H 397.816 1.26874 4.05935 0
M  V30 4191 N 396.131 -1.37776 0.765217 0
M  V30 4192 C 397.547 -1.53297 0.444108 0
M  V30 4193 C 397.747 -1.72515 -1.04119 0
M  V30 4194 O 396.803 -1.74278 -1.82711 0
M  V30 4195 C 398.116 -2.73328 1.25349 0
M  V30 4196 C 399.664 -2.87185 1.24473 0
M  V30 4197 C 400.139 -4.10191 2.03733 0
M  V30 4198 N 401.63 -4.17291 2.01053 0
M  V30 4199 C 402.365 -5.11488 2.59166 0
M  V30 4200 N 401.861 -6.11285 3.26041 0
M  V30 4201 N 403.654 -5.03924 2.49032 0
M  V30 4202 H 395.805 -1.23552 1.72768 0
M  V30 4203 H 398.068 -0.601103 0.733062 0
M  V30 4204 H 397.774 -2.6557 2.30577 0
M  V30 4205 H 397.648 -3.66834 0.87823 0
M  V30 4206 H 400.035 -2.94418 0.20047 0
M  V30 4207 H 400.116 -1.94657 1.65959 0
M  V30 4208 H 399.76 -4.0372 3.08176 0
M  V30 4209 H 399.69 -5.01821 1.59633 0
M  V30 4210 H 402.181 -3.45825 1.5236 0
M  V30 4211 H 402.494 -6.79678 3.67774 0
M  V30 4212 H 400.839 -6.11583 3.30138 0
M  V30 4213 H 404.03 -4.24902 1.96407 0
M  V30 4214 H 404.203 -5.77152 2.94617 0
M  V30 4215 N 397.609 -0.515225 -1.4894 0
M  V30 4216 C 398.855 0.0242508 -2.02785 0
M  V30 4217 C 399.188 1.35323 -1.39289 0
M  V30 4218 O 398.463 1.87041 -0.533469 0
M  V30 4219 C 398.746 0.16184 -3.59736 0
M  V30 4220 C 398.599 -1.19127 -4.33738 0
M  V30 4221 C 399.918 0.895719 -4.30888 0
M  V30 4222 H 397.037 0.00733914 -0.736963 0
M  V30 4223 H 399.679 -0.669395 -1.77818 0
M  V30 4224 H 397.829 0.752624 -3.8114 0
M  V30 4225 H 399.501 -1.82202 -4.23792 0
M  V30 4226 H 397.744 -1.77695 -3.95736 0
M  V30 4227 H 398.415 -1.04815 -5.41957 0
M  V30 4228 H 400.891 0.394528 -4.14225 0
M  V30 4229 H 399.767 0.960859 -5.40425 0
M  V30 4230 H 400.028 1.9427 -3.97129 0
M  V30 4231 N 399.087 1.5561 -0.249682 0
M  V30 4232 C 400.336 1.98187 0.37479 0
M  V30 4233 C 400.649 1.14111 1.58865 0
M  V30 4234 O 401.855 1.46714 2.28445 0
M  V30 4235 C 400.311 3.52661 0.718192 0
M  V30 4236 C 399.919 4.45481 -0.474428 0
M  V30 4237 C 401.663 4.03888 1.3067 0
M  V30 4238 C 399.57 5.91303 -0.107026 0
M  V30 4239 H 398.5 0.740159 0.143808 0
M  V30 4240 H 401.151 1.80125 -0.350336 0
M  V30 4241 H 399.533 3.66429 1.50152 0
M  V30 4242 H 400.707 4.43473 -1.25172 0
M  V30 4243 H 399.022 4.04751 -0.978052 0
M  V30 4244 H 401.619 5.10358 1.59496 0
M  V30 4245 H 401.962 3.51401 2.23211 0
M  V30 4246 H 402.495 3.93457 0.586211 0
M  V30 4247 H 399.234 6.47833 -0.999642 0
M  V30 4248 H 398.754 5.9644 0.634013 0
M  V30 4249 H 400.433 6.46258 0.309807 0
M  V30 4250 N 400.565 -0.0233959 1.57583 0
M  V30 4251 C 401.79 -0.728376 1.94189 0
M  V30 4252 C 402.215 -1.67793 0.850119 0
M  V30 4253 O 401.573 -1.80262 -0.19371 0
M  V30 4254 C 401.621 -1.45669 3.29868 0
M  V30 4255 O 400.725 -2.57013 3.22518 0
M  V30 4256 H 400.066 -0.195493 0.63457 0
M  V30 4257 H 402.596 0.0228214 2.04587 0
M  V30 4258 H 402.606 -1.82535 3.6489 0
M  V30 4259 H 401.281 -0.760314 4.08891 0
M  V30 4260 H 399.858 -2.22648 2.99136 0
M  V30 4261 N 402.043 -1.548 -0.295768 0
M  V30 4262 C 402.976 -1.81003 -1.38972 0
M  V30 4263 C 403.954 -0.661544 -1.48534 0
M  V30 4264 O 405.138 -0.902074 -1.65514 0
M  V30 4265 C 402.265 -1.95141 -2.76835 0
M  V30 4266 C 401.311 -3.17592 -2.84671 0
M  V30 4267 S 402.144 -4.75531 -2.46232 0
M  V30 4268 C 403.3 -4.92613 -3.86114 0
M  V30 4269 H 403.533 -2.73507 -1.16537 0
M  V30 4270 H 401.066 -1.46278 -0.494168 0
M  V30 4271 H 403.024 -2.03972 -3.56238 0
M  V30 4272 H 401.685 -1.03565 -2.96535 0
M  V30 4273 H 400.878 -3.24303 -3.85803 0
M  V30 4274 H 400.48 -3.07235 -2.13267 0
M  V30 4275 H 402.772 -4.76957 -4.81164 0
M  V30 4276 H 403.715 -5.94698 -3.8437 0
M  V30 4277 H 404.123 -4.2073 -3.76359 0
M  V30 4278 N 403.521 0.559213 -1.47345 0
M  V30 4279 C 404.431 1.69388 -1.62311 0
M  V30 4280 C 405.447 1.6648 -0.505993 0
M  V30 4281 O 406.623 1.85964 -0.773262 0
M  V30 4282 C 403.688 3.05894 -1.63185 0
M  V30 4283 C 402.749 3.19885 -2.86307 0
M  V30 4284 C 401.982 4.49879 -2.87131 0
M  V30 4285 O 402.205 5.35217 -1.97229 0
M  V30 4286 O 401.139 4.67618 -3.78968 0
M  V30 4287 H 404.965 1.59706 -2.58317 0
M  V30 4288 H 402.55 0.728989 -1.30407 0
M  V30 4289 H 404.432 3.87133 -1.66451 0
M  V30 4290 H 403.107 3.15964 -0.70345 0
M  V30 4291 H 402.014 2.38052 -2.88587 0
M  V30 4292 H 403.347 3.14718 -3.78435 0
M  V30 4293 N 404.999 1.35443 0.805782 0
M  V30 4294 C 405.946 1.28431 1.91766 0
M  V30 4295 C 406.916 0.156102 1.65365 0
M  V30 4296 O 408.101 0.339936 1.87747 0
M  V30 4297 C 405.241 1.06301 3.2832 0
M  V30 4298 C 404.354 2.2805 3.66902 0
M  V30 4299 C 403.489 1.99064 4.92491 0
M  V30 4300 C 402.528 3.16863 5.23703 0
M  V30 4301 N 401.665 2.87647 6.40471 0
M  V30 4302 H 406.505 2.23511 1.97096 0
M  V30 4303 H 404.042 1.11105 0.964054 0
M  V30 4304 H 406 0.915012 4.07042 0
M  V30 4305 H 404.63 0.148822 3.22457 0
M  V30 4306 H 403.682 2.53711 2.83434 0
M  V30 4307 H 404.994 3.1601 3.85927 0
M  V30 4308 H 404.148 1.81099 5.7904 0
M  V30 4309 H 402.887 1.0839 4.75503 0
M  V30 4310 H 401.892 3.35404 4.35642 0
M  V30 4311 H 403.117 4.08339 5.4262 0
M  V30 4312 H 401.063 1.99568 6.24907 0
M  V30 4313 H 400.98 3.69141 6.59751 0
M  V30 4314 H 402.248 2.73226 7.30047 0
M  V30 4315 N 406.477 -1.02803 1.19454 0
M  V30 4316 C 407.725 -1.75869 0.995722 0
M  V30 4317 C 408.046 -1.89138 -0.474543 0
M  V30 4318 O 407.316 -1.42558 -1.34366 0
M  V30 4319 H 405.896 -0.651511 0.365435 0
M  V30 4320 H 408.558 -1.24004 1.50363 0
M  V30 4321 H 407.654 -2.76661 1.44447 0
M  V30 4322 N 407.956 -0.998596 -1.21925 0
M  V30 4323 C 409.204 -0.676325 -1.90448 0
M  V30 4324 C 409.525 0.794719 -1.78071 0
M  V30 4325 O 408.795 1.5701 -1.17152 0
M  V30 4326 H 407.375 -0.247165 -0.704925 0
M  V30 4327 H 410.037 -1.26633 -1.48156 0
M  V30 4328 H 409.133 -0.943858 -2.97486 0
M  V30 4329 N 409.434 1.37368 -0.772513 0
M  V30 4330 C 410.382 2.32134 -0.147111 0
M  V30 4331 C 411.376 1.54972 0.684106 0
M  V30 4332 O 412.582 1.70363 0.581083 0
M  V30 4333 H 408.957 0.751449 -0.028786 0
M  V30 4334 H 410.928 2.82464 -0.962112 0
M  V30 4335 C 409.677 3.40226 0.71703 0
M  V30 4336 H 409 3.99706 0.0867951 0
M  V30 4337 H 410.44 4.08897 1.12159 0
M  V30 4338 C 408.899 2.80372 1.86797 0
M  V30 4339 O 409.429 2.71183 2.96349 0
M  V30 4340 N 407.635 2.37904 1.66883 0
M  V30 4341 H 407.182 2.45578 0.777759 0
M  V30 4342 H 407.14 1.98202 2.44056 0
M  V30 4343 N 410.912 0.523116 1.48665 0
M  V30 4344 C 411.845 -0.290518 2.26343 0
M  V30 4345 C 412.823 -0.950913 1.31895 0
M  V30 4346 O 414.007 -0.976662 1.61225 0
M  V30 4347 C 411.134 -1.41088 3.07915 0
M  V30 4348 C 410.18 -0.862597 4.17686 0
M  V30 4349 S 411.013 0.264135 5.34848 0
M  V30 4350 C 412.169 -0.858864 6.19979 0
M  V30 4351 H 412.402 0.368726 2.95005 0
M  V30 4352 H 409.935 0.30878 1.51281 0
M  V30 4353 H 411.893 -2.0527 3.55492 0
M  V30 4354 H 410.554 -2.04182 2.38681 0
M  V30 4355 H 409.747 -1.70287 4.74361 0
M  V30 4356 H 409.349 -0.297595 3.72814 0
M  V30 4357 H 411.641 -1.7591 6.54264 0
M  V30 4358 H 412.584 -0.330244 7.07329 0
M  V30 4359 H 412.992 -1.13617 5.52948 0
M  V30 4360 N 412.39 -1.55475 0.257931 0
M  V30 4361 C 413.337 -2.21837 -0.636939 0
M  V30 4362 C 414.307 -1.18596 -1.16294 0
M  V30 4363 O 415.492 -1.47081 -1.21539 0
M  V30 4364 C 412.632 -2.9301 -1.82317 0
M  V30 4365 C 411.745 -4.10931 -1.33265 0
M  V30 4366 C 410.88 -4.69791 -2.47931 0
M  V30 4367 C 409.919 -5.7994 -1.95796 0
M  V30 4368 N 409.056 -6.32935 -3.0387 0
M  V30 4369 H 413.896 -2.9793 -0.0643591 0
M  V30 4370 H 411.433 -1.47086 -0.0200031 0
M  V30 4371 H 413.391 -3.3248 -2.52018 0
M  V30 4372 H 412.021 -2.1937 -2.36805 0
M  V30 4373 H 411.073 -3.76699 -0.52931 0
M  V30 4374 H 412.385 -4.90417 -0.910654 0
M  V30 4375 H 411.539 -5.11892 -3.25656 0
M  V30 4376 H 410.278 -3.89545 -2.93438 0
M  V30 4377 H 409.283 -5.37305 -1.16546 0
M  V30 4378 H 410.508 -6.62043 -1.51246 0
M  V30 4379 H 408.454 -5.55591 -3.48791 0
M  V30 4380 H 408.371 -7.07645 -2.66035 0
M  V30 4381 H 409.639 -6.79695 -3.81621 0
M  V30 4382 N 413.868 0.0150385 -1.57593 0
M  V30 4383 C 415.284 0.370907 -1.5523 0
M  V30 4384 C 415.484 1.75735 -0.985882 0
M  V30 4385 O 414.54 2.44944 -0.613077 0
M  V30 4386 C 415.853 0.259908 -2.99575 0
M  V30 4387 C 417.401 0.335959 -3.11192 0
M  V30 4388 C 417.876 0.254253 -4.57294 0
M  V30 4389 N 419.367 0.312618 -4.62144 0
M  V30 4390 C 420.102 0.272505 -5.72752 0
M  V30 4391 N 419.598 0.183864 -6.92556 0
M  V30 4392 N 421.391 0.323267 -5.6117 0
M  V30 4393 H 413.542 -0.892104 -1.92757 0
M  V30 4394 H 415.805 -0.340563 -0.884715 0
M  V30 4395 H 415.511 -0.693403 -3.44797 0
M  V30 4396 H 415.385 1.048 -3.62349 0
M  V30 4397 H 417.772 1.27971 -2.65909 0
M  V30 4398 H 417.853 -0.481739 -2.51223 0
M  V30 4399 H 417.497 -0.685887 -5.03247 0
M  V30 4400 H 417.427 1.09024 -5.15191 0
M  V30 4401 H 419.918 0.38307 -3.75953 0
M  V30 4402 H 420.231 0.15874 -7.72637 0
M  V30 4403 H 418.576 0.149708 -6.94839 0
M  V30 4404 H 421.767 0.390607 -4.66467 0
M  V30 4405 H 421.94 0.288539 -6.47357 0
M  V30 4406 N 415.346 1.54954 0.287554 0
M  V30 4407 C 416.592 1.75132 1.02257 0
M  V30 4408 C 416.925 0.542858 1.86458 0
M  V30 4409 O 416.2 -0.459856 1.88986 0
M  V30 4410 C 416.483 3.04812 1.91733 0
M  V30 4411 C 416.336 4.35985 1.10622 0
M  V30 4412 C 417.655 3.30438 2.90687 0
M  V30 4413 H 414.774 0.637194 0.370341 0
M  V30 4414 H 417.416 1.87678 0.296111 0
M  V30 4415 H 415.566 2.94247 2.53675 0
M  V30 4416 H 417.238 4.58487 0.508636 0
M  V30 4417 H 415.481 4.31865 0.409271 0
M  V30 4418 H 416.152 5.23017 1.76513 0
M  V30 4419 H 418.628 3.40701 2.38877 0
M  V30 4420 H 417.504 4.22467 3.50447 0
M  V30 4421 H 417.765 2.49377 3.65053 0
M  V30 4422 N 416.824 -0.551391 1.4764 0
M  V30 4423 C 418.071 -1.3083 1.54563 0
M  V30 4424 C 418.399 -1.93359 0.210361 0
M  V30 4425 O 417.654 -1.78721 -0.797332 0
M  V30 4426 C 417.953 -2.43469 2.61644 0
M  V30 4427 C 417.619 -1.98732 4.04742 0
M  V30 4428 C 416.281 -1.86248 4.43695 0
M  V30 4429 C 418.633 -1.64659 4.94507 0
M  V30 4430 C 415.961 -1.37995 5.70241 0
M  V30 4431 C 418.313 -1.17875 6.21521 0
M  V30 4432 C 416.977 -1.03992 6.5935 0
M  V30 4433 H 416.247 -0.478741 0.565587 0
M  V30 4434 H 418.894 -0.617697 1.81264 0
M  V30 4435 H 417.199 -3.18109 2.28722 0
M  V30 4436 H 418.896 -3.01642 2.64222 0
M  V30 4437 H 415.486 -2.09393 3.73968 0
M  V30 4438 H 419.67 -1.73174 4.65107 0
M  V30 4439 H 414.926 -1.25915 5.98294 0
M  V30 4440 H 419.1 -0.905739 6.90485 0
M  V30 4441 H 416.727 -0.663794 7.57296 0
M  V30 4442 N 418.302 -1.35869 -0.798587 0
M  V30 4443 C 419.212 -1.31578 -1.94228 0
M  V30 4444 C 420.228 -0.21939 -1.72611 0
M  V30 4445 O 421.404 -0.450167 -1.96305 0
M  V30 4446 C 418.469 -1.09528 -3.28944 0
M  V30 4447 C 417.53 -2.28556 -3.63402 0
M  V30 4448 C 416.763 -2.07549 -4.9169 0
M  V30 4449 O 416.986 -1.046 -5.60727 0
M  V30 4450 O 415.92 -2.95106 -5.24591 0
M  V30 4451 H 419.746 -2.27847 -2.00796 0
M  V30 4452 H 417.331 -1.16322 -0.937526 0
M  V30 4453 H 419.213 -0.991127 -4.09579 0
M  V30 4454 H 417.888 -0.16315 -3.23289 0
M  V30 4455 H 416.795 -2.44538 -2.83112 0
M  V30 4456 H 418.128 -3.20244 -3.73771 0
M  V30 4457 N 419.78 1.02168 -1.19998 0
M  V30 4458 C 421.196 1.27969 -0.953737 0
M  V30 4459 C 421.396 1.98079 0.369703 0
M  V30 4460 O 420.452 2.27306 1.09947 0
M  V30 4461 C 421.765 2.11971 -2.13281 0
M  V30 4462 C 423.313 2.25255 -2.17323 0
M  V30 4463 C 423.788 3.12632 -3.34702 0
M  V30 4464 N 425.279 3.2022 -3.34684 0
M  V30 4465 C 426.014 3.88039 -4.22153 0
M  V30 4466 N 425.51 4.58027 -5.19791 0
M  V30 4467 N 427.303 3.84511 -4.10009 0
M  V30 4468 H 419.454 0.550794 -2.05134 0
M  V30 4469 H 421.717 0.305683 -0.897364 0
M  V30 4470 H 421.423 1.67785 -3.09097 0
M  V30 4471 H 421.297 3.12699 -2.10949 0
M  V30 4472 H 423.684 2.68667 -1.22073 0
M  V30 4473 H 423.765 1.24053 -2.23706 0
M  V30 4474 H 423.409 2.69926 -4.30235 0
M  V30 4475 H 423.339 4.13909 -3.25556 0
M  V30 4476 H 425.83 2.70382 -2.64012 0
M  V30 4477 H 426.143 5.07429 -5.82868 0
M  V30 4478 H 424.488 4.56869 -5.23733 0
M  V30 4479 H 427.679 3.28978 -3.33003 0
M  V30 4480 H 427.852 4.3709 -4.78389 0
M  V30 4481 N 421.258 1.00505 1.21394 0
M  V30 4482 C 422.505 0.687774 1.90462 0
M  V30 4483 C 422.833 -0.78147 1.7811 0
M  V30 4484 O 422.088 -1.58208 1.1519 0
M  V30 4485 C 422.387 1.0546 3.41486 0
M  V30 4486 C 422.053 2.51812 3.74034 0
M  V30 4487 C 420.715 2.91804 3.82628 0
M  V30 4488 C 423.067 3.46614 3.8924 0
M  V30 4489 C 420.395 4.2556 4.03876 0
M  V30 4490 C 422.747 4.80044 4.11995 0
M  V30 4491 C 421.411 5.19759 4.18816 0
M  V30 4492 H 420.681 0.251674 0.696951 0
M  V30 4493 H 423.328 1.26349 1.43903 0
M  V30 4494 H 421.633 0.397133 3.89782 0
M  V30 4495 H 423.33 0.786976 3.93202 0
M  V30 4496 H 419.92 2.1982 3.67936 0
M  V30 4497 H 424.104 3.16883 3.81967 0
M  V30 4498 H 419.36 4.55901 4.07387 0
M  V30 4499 H 423.534 5.53439 4.22704 0
M  V30 4500 H 421.161 6.23418 4.35033 0
M  V30 4501 N 422.737 -1.36956 0.779787 0
M  V30 4502 C 423.977 -2.01328 0.353043 0
M  V30 4503 C 424.341 -1.60558 -1.05286 0
M  V30 4504 O 425.542 -2.1745 -1.58016 0
M  V30 4505 C 423.813 -3.53874 0.500822 0
M  V30 4506 S 425.372 -4.38506 0.16053 0
M  V30 4507 H 422.19 -0.69799 0.13539 0
M  V30 4508 H 424.792 -1.67016 1.01617 0
M  V30 4509 H 423.496 -3.81034 1.52451 0
M  V30 4510 H 423.027 -3.92994 -0.178574 0
M  V30 4511 H 425.042 -4.85153 -1.04121 0
M  V30 4512 N 424.215 -0.530993 -1.48385 0
M  V30 4513 C 425.631 -0.188919 -1.58478 0
M  V30 4514 C 425.831 1.30786 -1.53288 0
M  V30 4515 O 424.887 2.08619 -1.42248 0
M  V30 4516 C 426.2 -0.792343 -2.90073 0
M  V30 4517 C 427.748 -0.76117 -3.03604 0
M  V30 4518 C 428.223 -1.34319 -4.37861 0
M  V30 4519 N 429.714 -1.3052 -4.44431 0
M  V30 4520 C 430.449 -1.72543 -5.46824 0
M  V30 4521 N 429.945 -2.22299 -6.56167 0
M  V30 4522 N 431.738 -1.63773 -5.37712 0
M  V30 4523 H 423.889 -1.50377 -1.50002 0
M  V30 4524 H 426.152 -0.625559 -0.712306 0
M  V30 4525 H 425.858 -1.84323 -2.99529 0
M  V30 4526 H 425.732 -0.270026 -3.76232 0
M  V30 4527 H 428.119 0.280957 -2.93759 0
M  V30 4528 H 428.2 -1.32097 -2.19053 0
M  V30 4529 H 427.844 -2.38425 -4.4846 0
M  V30 4530 H 427.774 -0.759064 -5.21101 0
M  V30 4531 H 430.265 -0.940973 -3.65997 0
M  V30 4532 H 430.578 -2.52356 -7.30436 0
M  V30 4533 H 428.923 -2.26293 -6.57127 0
M  V30 4534 H 432.114 -1.24698 -4.51185 0
M  V30 4535 H 432.287 -1.96844 -6.17379 0
M  V30 4536 N 425.693 1.55336 -0.266172 0
M  V30 4537 C 426.941 1.99003 0.35246 0
M  V30 4538 C 427.262 1.15591 1.57047 0
M  V30 4539 O 426.532 0.243268 1.94384 0
M  V30 4540 H 425.112 0.735025 0.133217 0
M  V30 4541 H 427.774 1.91367 -0.369434 0
M  V30 4542 H 426.87 3.05289 0.648453 0
M  V30 4543 N 427.171 -0.0066808 1.57599 0
M  V30 4544 C 428.101 -0.999296 2.11036 0
M  V30 4545 C 429.082 -1.36278 1.01795 0
M  V30 4546 O 430.267 -1.4477 1.29442 0
M  V30 4547 C 427.397 -2.29328 2.60818 0
M  V30 4548 C 426.351 -2.07159 3.74525 0
M  V30 4549 C 425.677 -3.42512 4.10596 0
M  V30 4550 C 426.977 -1.43959 5.02069 0
M  V30 4551 H 428.671 -0.554382 2.94223 0
M  V30 4552 H 426.217 -0.265221 1.41536 0
M  V30 4553 H 428.17 -2.99117 2.96828 0
M  V30 4554 H 426.894 -2.7592 1.74745 0
M  V30 4555 H 425.553 -1.39797 3.38899 0
M  V30 4556 H 425.201 -3.86795 3.21556 0
M  V30 4557 H 424.901 -3.28498 4.87199 0
M  V30 4558 H 426.425 -4.13628 4.4916 0
M  V30 4559 H 427.839 -2.03696 5.35893 0
M  V30 4560 H 426.236 -1.40452 5.83432 0
M  V30 4561 H 427.306 -0.407992 4.83181 0
M  V30 4562 N 428.649 -1.55105 -0.279332 0
M  V30 4563 C 429.596 -1.8755 -1.34513 0
M  V30 4564 C 430.566 -0.726384 -1.49375 0
M  V30 4565 O 431.751 -0.977063 -1.63884 0
M  V30 4566 C 428.891 -2.14738 -2.70151 0
M  V30 4567 C 428.004 -3.42285 -2.63562 0
M  V30 4568 C 427.139 -3.59206 -3.91337 0
M  V30 4569 C 426.178 -4.80467 -3.79233 0
M  V30 4570 N 425.315 -4.94079 -4.98829 0
M  V30 4571 H 430.155 -2.78456 -1.06143 0
M  V30 4572 H 427.692 -1.37867 -0.512936 0
M  V30 4573 H 429.65 -2.28501 -3.49061 0
M  V30 4574 H 428.28 -1.27075 -2.96735 0
M  V30 4575 H 427.332 -3.37029 -1.76397 0
M  V30 4576 H 428.644 -4.31328 -2.50515 0
M  V30 4577 H 427.798 -3.72751 -4.78687 0
M  V30 4578 H 426.537 -2.68337 -4.07243 0
M  V30 4579 H 425.542 -4.66932 -2.90266 0
M  V30 4580 H 426.767 -5.72765 -3.64852 0
M  V30 4581 H 424.713 -4.06139 -5.15158 0
M  V30 4582 H 424.63 -5.77156 -4.8829 0
M  V30 4583 H 425.898 -5.12003 -5.8777 0
M  V30 4584 N 430.127 0.543554 -1.4793 0
M  V30 4585 C 431.037 1.67657 -1.64098 0
M  V30 4586 C 432.053 1.65934 -0.523622 0
M  V30 4587 O 433.229 1.85133 -0.792943 0
M  V30 4588 C 430.294 3.04146 -1.66421 0
M  V30 4589 C 429.355 3.16831 -2.89684 0
M  V30 4590 C 428.588 4.46809 -2.91886 0
M  V30 4591 O 428.811 5.33095 -2.02895 0
M  V30 4592 O 427.745 4.63573 -3.83906 0
M  V30 4593 H 431.571 1.56957 -2.59997 0
M  V30 4594 H 429.156 0.715116 -1.31173 0
M  V30 4595 H 431.038 3.85346 -1.70548 0
M  V30 4596 H 429.713 3.152 -0.736923 0
M  V30 4597 H 428.62 2.34977 -2.91095 0
M  V30 4598 H 429.953 3.10687 -3.81752 0
M  V30 4599 N 431.605 1.3629 0.791371 0
M  V30 4600 C 432.851 1.30605 1.55146 0
M  V30 4601 C 433.184 -0.115042 1.93859 0
M  V30 4602 O 432.459 -1.06798 1.62556 0
M  V30 4603 C 432.742 2.22692 2.82985 0
M  V30 4604 C 432.595 3.73489 2.50651 0
M  V30 4605 C 433.914 2.13588 3.84796 0
M  V30 4606 H 431.033 0.475761 0.562868 0
M  V30 4607 H 433.675 1.66825 0.909358 0
M  V30 4608 H 431.825 1.91933 3.37778 0
M  V30 4609 H 433.497 4.14758 2.01924 0
M  V30 4610 H 431.74 3.93021 1.83622 0
M  V30 4611 H 432.411 4.3333 3.41949 0
M  V30 4612 H 434.887 2.40659 3.39445 0
M  V30 4613 H 433.763 2.80195 4.71998 0
M  V30 4614 H 434.024 1.12256 4.27611 0
M  V30 4615 N 433.083 -1.0153 1.20538 0
M  V30 4616 C 433.993 -2.13557 0.971113 0
M  V30 4617 C 435.009 -1.73845 -0.0734366 0
M  V30 4618 O 436.185 -2.01075 0.114299 0
M  V30 4619 C 433.25 -3.42661 0.527639 0
M  V30 4620 C 432.311 -3.96608 1.64319 0
M  V30 4621 C 431.544 -5.1955 1.22078 0
M  V30 4622 O 431.767 -5.70329 0.0900198 0
M  V30 4623 O 430.701 -5.66681 2.02871 0
M  V30 4624 H 434.527 -2.3619 1.90913 0
M  V30 4625 H 432.112 -1.11946 0.989362 0
M  V30 4626 H 433.994 -4.20404 0.289621 0
M  V30 4627 H 432.669 -3.21441 -0.381779 0
M  V30 4628 H 431.576 -3.20139 1.93551 0
M  V30 4629 H 432.909 -4.22219 2.52966 0
M  V30 4630 N 434.561 -1.01147 -1.20859 0
M  V30 4631 C 435.977 -0.725422 -1.42161 0
M  V30 4632 C 436.177 0.696919 -1.89064 0
M  V30 4633 O 435.233 1.46539 -2.05627 0
M  V30 4634 C 436.546 -1.74678 -2.44761 0
M  V30 4635 C 438.094 -1.76433 -2.58535 0
M  V30 4636 C 438.569 -2.77481 -3.64374 0
M  V30 4637 N 440.06 -2.76189 -3.71852 0
M  V30 4638 C 440.795 -3.51035 -4.53389 0
M  V30 4639 N 440.291 -4.35541 -5.38773 0
M  V30 4640 N 442.084 -3.39655 -4.47873 0
M  V30 4641 H 434.235 -1.92979 -0.887282 0
M  V30 4642 H 436.498 -0.833327 -0.451962 0
M  V30 4643 H 436.204 -2.76551 -2.17285 0
M  V30 4644 H 436.078 -1.55472 -3.43669 0
M  V30 4645 H 438.465 -0.75248 -2.85345 0
M  V30 4646 H 438.546 -1.99712 -1.5984 0
M  V30 4647 H 438.19 -3.78827 -3.38308 0
M  V30 4648 H 438.12 -2.51466 -4.6268 0
M  V30 4649 H 440.611 -2.14885 -3.10858 0
M  V30 4650 H 440.924 -4.89432 -5.98061 0
M  V30 4651 H 439.269 -4.39621 -5.38292 0
M  V30 4652 H 442.46 -2.73063 -3.80203 0
M  V30 4653 H 442.633 -3.9824 -5.11184 0
M  V30 4654 N 436.039 1.36541 -0.78704 0
M  V30 4655 C 436.969 2.32659 -0.197992 0
M  V30 4656 C 437.95 1.56533 0.665697 0
M  V30 4657 O 439.135 1.84698 0.60001 0
M  V30 4658 C 436.265 3.40778 0.669901 0
M  V30 4659 C 435.219 4.27897 -0.0937039 0
M  V30 4660 C 434.545 5.27163 0.894629 0
M  V30 4661 C 435.845 5.06334 -1.28154 0
M  V30 4662 H 437.539 2.82171 -1.00099 0
M  V30 4663 H 435.085 1.35665 -0.482793 0
M  V30 4664 H 437.038 4.07008 1.09191 0
M  V30 4665 H 435.762 2.89827 1.50558 0
M  V30 4666 H 434.421 3.6322 -0.49666 0
M  V30 4667 H 434.069 4.72486 1.72527 0
M  V30 4668 H 433.769 5.86317 0.388149 0
M  V30 4669 H 435.293 5.96266 1.31525 0
M  V30 4670 H 436.707 5.65617 -0.93541 0
M  V30 4671 H 435.104 5.74888 -1.72115 0
M  V30 4672 H 436.174 4.38114 -2.07807 0
M  V30 4673 N 437.518 0.538854 1.48102 0
M  V30 4674 C 438.767 0.0059532 2.01699 0
M  V30 4675 C 439.08 -1.34476 1.42041 0
M  V30 4676 O 440.286 -1.96653 1.87189 0
M  V30 4677 C 438.742 -0.0397627 3.59878 0
M  V30 4678 C 438.35 1.30659 4.28523 0
M  V30 4679 C 440.094 -0.521024 4.2129 0
M  V30 4680 C 438.001 1.22098 5.78659 0
M  V30 4681 H 436.931 -0.00154456 0.753998 0
M  V30 4682 H 439.582 0.683963 1.70277 0
M  V30 4683 H 437.964 -0.783037 3.88181 0
M  V30 4684 H 439.138 2.06613 4.11883 0
M  V30 4685 H 437.453 1.7243 3.79021 0
M  V30 4686 H 440.05 -0.603184 5.31287 0
M  V30 4687 H 440.393 -1.52885 3.8721 0
M  V30 4688 H 440.926 0.166834 3.9745 0
M  V30 4689 H 437.665 2.20424 6.17328 0
M  V30 4690 H 437.185 0.50295 5.97688 0
M  V30 4691 H 438.864 0.915345 6.40492 0
M  V30 4692 N 438.996 -1.55193 0.274407 0
M  V30 4693 C 439.928 -2.1989 -0.646595 0
M  V30 4694 C 440.941 -1.1834 -1.11801 0
M  V30 4695 O 442.13 -1.4507 -1.04004 0
M  V30 4696 C 439.23 -2.8104 -1.89393 0
M  V30 4697 C 438.403 -4.08274 -1.56943 0
M  V30 4698 C 437.462 -4.53478 -2.66916 0
M  V30 4699 O 436.488 -5.19267 -2.33132 0
M  V30 4700 N 437.69 -4.2356 -3.9696 0
M  V30 4701 H 440.455 -2.99556 -0.0928686 0
M  V30 4702 H 438.016 -1.61618 0.0954783 0
M  V30 4703 H 440.008 -3.08226 -2.62257 0
M  V30 4704 H 438.578 -2.05372 -2.35672 0
M  V30 4705 H 437.798 -3.88384 -0.674655 0
M  V30 4706 H 439.086 -4.91173 -1.32764 0
M  V30 4707 H 438.484 -3.70799 -4.27229 0
M  V30 4708 H 437.041 -4.55518 -4.66205 0
M  V30 4709 N 440.474 -0.00167713 -1.576 0
M  V30 4710 C 441.384 1.00548 -2.1196 0
M  V30 4711 C 442.4 1.3758 -1.06526 0
M  V30 4712 O 443.576 1.46278 -1.38436 0
M  V30 4713 C 440.641 2.27809 -2.6135 0
M  V30 4714 C 439.702 1.97074 -3.81393 0
M  V30 4715 C 438.935 3.18267 -4.28417 0
M  V30 4716 O 439.158 4.30009 -3.74765 0
M  V30 4717 O 438.092 3.02167 -5.20556 0
M  V30 4718 H 441.918 0.573373 -2.98238 0
M  V30 4719 H 439.503 0.217255 -1.47812 0
M  V30 4720 H 441.385 3.02568 -2.93309 0
M  V30 4721 H 440.06 2.70254 -1.78169 0
M  V30 4722 H 438.967 1.19785 -3.54404 0
M  V30 4723 H 440.3 1.59464 -4.65652 0
M  V30 4724 N 441.952 1.55251 0.271103 0
M  V30 4725 C 443.368 1.47133 0.618393 0
M  V30 4726 C 443.568 0.686994 1.89427 0
M  V30 4727 O 442.624 0.206609 2.51653 0
M  V30 4728 C 443.937 2.91361 0.743593 0
M  V30 4729 C 445.485 3.01587 0.837522 0
M  V30 4730 C 445.96 4.47073 0.994483 0
M  V30 4731 N 447.451 4.50909 1.05996 0
M  V30 4732 C 448.186 5.60698 1.20024 0
M  V30 4733 N 447.682 6.80348 1.30759 0
M  V30 4734 N 449.475 5.48444 1.23149 0
M  V30 4735 H 441.626 2.04698 -0.566784 0
M  V30 4736 H 443.889 0.928319 -0.192165 0
M  V30 4737 H 443.595 3.51483 -0.123493 0
M  V30 4738 H 443.469 3.40484 1.62328 0
M  V30 4739 H 445.856 2.4156 1.69507 0
M  V30 4740 H 445.937 2.55713 -0.0668086 0
M  V30 4741 H 445.581 5.07703 0.141582 0
M  V30 4742 H 445.511 4.90605 1.91349 0
M  V30 4743 H 448.002 3.6472 0.989316 0
M  V30 4744 H 448.315 7.59772 1.41303 0
M  V30 4745 H 446.66 6.83156 1.27761 0
M  V30 4746 H 449.851 4.53907 1.14394 0
M  V30 4747 H 450.024 6.34049 1.33738 0
M  V30 4748 N 443.43 -0.535701 1.48216 0
M  V30 4749 C 444.678 -1.28928 1.55634 0
M  V30 4750 C 444.999 -1.93645 0.229514 0
M  V30 4751 O 444.269 -1.81038 -0.74846 0
M  V30 4752 H 442.849 -0.47884 0.573342 0
M  V30 4753 H 445.511 -0.623853 1.84646 0
M  V30 4754 H 444.607 -2.07157 2.33436 0
M  V30 4755 N 444.908 -1.36708 -0.784132 0
M  V30 4756 C 446.154 -1.32433 -1.54379 0
M  V30 4757 C 446.509 0.0941816 -1.92169 0
M  V30 4758 O 445.802 1.04997 -1.60269 0
M  V30 4759 C 445.996 -2.18571 -2.82774 0
M  V30 4760 C 445.825 -3.68656 -2.57533 0
M  V30 4761 C 444.595 -4.37813 -2.52286 0
M  V30 4762 C 446.793 -4.61802 -2.2637 0
M  V30 4763 N 444.775 -5.7351 -2.18997 0
M  V30 4764 C 446.146 -5.85785 -2.03115 0
M  V30 4765 C 448.201 -4.50313 -2.12421 0
M  V30 4766 C 446.904 -6.99569 -1.67321 0
M  V30 4767 C 448.93 -5.63969 -1.78026 0
M  V30 4768 C 448.292 -6.86994 -1.55622 0
M  V30 4769 H 444.391 -0.539886 -0.565727 0
M  V30 4770 H 446.975 -1.71812 -0.915908 0
M  V30 4771 H 445.146 -1.81429 -3.43421 0
M  V30 4772 H 446.878 -2.05646 -3.48557 0
M  V30 4773 H 443.633 -3.90674 -2.67714 0
M  V30 4774 H 444.057 -6.45189 -2.05084 0
M  V30 4775 H 448.699 -3.55781 -2.28429 0
M  V30 4776 H 446.417 -7.94047 -1.5005 0
M  V30 4777 H 450.003 -5.57044 -1.67909 0
M  V30 4778 H 448.883 -7.7345 -1.294 0
M  V30 4779 N 446.386 1.0089 -1.21074 0
M  V30 4780 C 447.296 2.13039 -0.982425 0
M  V30 4781 C 448.312 1.73881 0.0642161 0
M  V30 4782 O 449.488 2.01012 -0.12496 0
M  V30 4783 C 446.553 3.42377 -0.545803 0
M  V30 4784 C 445.614 3.95731 -1.6642 0
M  V30 4785 C 444.847 5.18896 -1.24832 0
M  V30 4786 O 445.07 5.70273 -0.120265 0
M  V30 4787 O 444.004 5.65597 -2.05873 0
M  V30 4788 H 447.83 2.35175 -1.92163 0
M  V30 4789 H 445.415 1.1142 -0.995285 0
M  V30 4790 H 447.297 4.20244 -0.311912 0
M  V30 4791 H 445.972 3.21639 0.364727 0
M  V30 4792 H 444.879 3.19108 -1.95246 0
M  V30 4793 H 446.212 4.20872 -2.55201 0
M  V30 4794 N 447.864 1.01787 1.20321 0
M  V30 4795 C 449.111 0.707936 1.89722 0
M  V30 4796 C 449.439 -0.762535 1.78929 0
M  V30 4797 O 448.694 -1.56977 1.16861 0
M  V30 4798 C 448.993 1.09076 3.40349 0
M  V30 4799 C 448.659 2.55765 3.71342 0
M  V30 4800 C 447.321 2.95845 3.79511 0
M  V30 4801 C 449.673 3.50723 3.85542 0
M  V30 4802 C 447.001 4.2982 3.99339 0
M  V30 4803 C 449.353 4.84387 4.06881 0
M  V30 4804 C 448.017 5.24172 4.1328 0
M  V30 4805 H 447.287 0.259052 0.694243 0
M  V30 4806 H 449.934 1.27868 1.42555 0
M  V30 4807 H 448.239 0.438453 3.89339 0
M  V30 4808 H 449.936 0.828636 3.92345 0
M  V30 4809 H 446.526 2.2371 3.65584 0
M  V30 4810 H 450.71 3.20916 3.78585 0
M  V30 4811 H 445.966 4.60196 4.02529 0
M  V30 4812 H 450.14 5.57891 4.1681 0
M  V30 4813 H 447.767 6.27997 4.28396 0
M  V30 4814 N 449.342 -1.36122 0.79427 0
M  V30 4815 C 450.275 -2.27759 0.141845 0
M  V30 4816 C 451.253 -1.47471 -0.684921 0
M  V30 4817 O 452.437 -1.76759 -0.654857 0
M  V30 4818 C 449.564 -3.29008 -0.804446 0
M  V30 4819 C 448.61 -4.26459 -0.0588617 0
M  V30 4820 S 449.443 -5.20253 1.26873 0
M  V30 4821 C 450.599 -6.25048 0.326562 0
M  V30 4822 H 450.832 -2.82746 0.918818 0
M  V30 4823 H 448.365 -1.42736 0.588722 0
M  V30 4824 H 450.323 -3.87842 -1.34495 0
M  V30 4825 H 448.984 -2.72924 -1.5547 0
M  V30 4826 H 448.177 -4.97973 -0.777087 0
M  V30 4827 H 447.779 -3.71731 0.411309 0
M  V30 4828 H 450.071 -6.75705 -0.492795 0
M  V30 4829 H 451.014 -7.00852 1.01053 0
M  V30 4830 H 451.422 -5.64454 -0.0722627 0
M  V30 4831 N 450.82 -0.546701 -1.47814 0
M  V30 4832 C 452.066 -0.0269594 -2.03382 0
M  V30 4833 C 452.421 1.30406 -1.41464 0
M  V30 4834 O 451.714 1.8332 -0.557151 0
M  V30 4835 C 451.908 0.134869 -3.57145 0
M  V30 4836 C 451.737 -1.17891 -4.33972 0
M  V30 4837 C 450.507 -1.74336 -4.74273 0
M  V30 4838 C 452.705 -2.09361 -4.69758 0
M  V30 4839 N 450.687 -2.99829 -5.35701 0
M  V30 4840 C 452.058 -3.19431 -5.31379 0
M  V30 4841 C 454.113 -2.09484 -4.51687 0
M  V30 4842 C 452.816 -4.2971 -5.76838 0
M  V30 4843 C 454.842 -3.18767 -4.98138 0
M  V30 4844 C 454.204 -4.27557 -5.59799 0
M  V30 4845 H 450.303 -0.0517733 -0.780284 0
M  V30 4846 H 452.887 -0.731673 -1.80429 0
M  V30 4847 H 451.058 0.80869 -3.79888 0
M  V30 4848 H 452.79 0.655726 -3.99352 0
M  V30 4849 H 449.545 -1.28265 -4.559 0
M  V30 4850 H 449.969 -3.63765 -5.70968 0
M  V30 4851 H 454.611 -1.26663 -4.03381 0
M  V30 4852 H 452.329 -5.13297 -6.24141 0
M  V30 4853 H 455.915 -3.19937 -4.85934 0
M  V30 4854 H 454.795 -5.10725 -5.95088 0
M  V30 4855 N 452.299 1.55045 -0.282633 0
M  V30 4856 C 453.247 2.24254 0.617478 0
M  V30 4857 C 454.241 1.24215 1.15183 0
M  V30 4858 O 455.447 1.42123 1.10459 0
M  V30 4859 H 451.822 0.719801 0.217693 0
M  V30 4860 H 453.793 2.98398 0.0110076 0
M  V30 4861 C 452.542 2.98281 1.78672 0
M  V30 4862 H 451.865 3.75053 1.38475 0
M  V30 4863 H 453.305 3.50017 2.393 0
M  V30 4864 C 451.764 2.04184 2.67975 0
M  V30 4865 O 452.294 1.59792 3.6855 0
M  V30 4866 N 450.5 1.70526 2.35307 0
M  V30 4867 H 450.047 2.06821 1.53567 0
M  V30 4868 H 450.005 1.07839 2.95327 0
M  V30 4869 N 453.777 0.010035 1.57597 0
M  V30 4870 C 454.687 -0.994226 2.12491 0
M  V30 4871 C 455.703 -1.37013 1.07254 0
M  V30 4872 O 456.879 -1.45542 1.3921 0
M  V30 4873 C 453.944 -2.2642 2.62555 0
M  V30 4874 C 453.005 -1.95049 3.82432 0
M  V30 4875 C 452.238 -3.15991 4.30099 0
M  V30 4876 O 452.461 -4.28015 3.7704 0
M  V30 4877 O 451.395 -2.99403 5.22151 0
M  V30 4878 H 455.221 -0.557549 2.98538 0
M  V30 4879 H 452.806 -0.209413 1.47925 0
M  V30 4880 H 454.688 -3.01009 2.9491 0
M  V30 4881 H 453.363 -2.69306 1.796 0
M  V30 4882 H 452.27 -1.17904 3.55034 0
M  V30 4883 H 453.603 -1.56992 4.66491 0
M  V30 4884 N 455.255 -1.55392 -0.262866 0
M  V30 4885 C 456.671 -1.47459 -0.610582 0
M  V30 4886 C 456.871 -0.697031 -1.8906 0
M  V30 4887 O 455.927 -0.219952 -2.5154 0
M  V30 4888 C 457.24 -2.91751 -0.728131 0
M  V30 4889 C 458.788 -3.02027 -0.821517 0
M  V30 4890 C 459.263 -4.47594 -0.97076 0
M  V30 4891 N 460.754 -4.51465 -1.03603 0
M  V30 4892 C 461.489 -5.61326 -1.17049 0
M  V30 4893 N 460.985 -6.81032 -1.2715 0
M  V30 4894 N 462.778 -5.49089 -1.20239 0
M  V30 4895 H 454.929 -2.04395 0.577632 0
M  V30 4896 H 457.192 -0.927287 0.197086 0
M  V30 4897 H 456.898 -3.51413 0.142132 0
M  V30 4898 H 456.772 -3.4134 -1.6052 0
M  V30 4899 H 459.159 -2.42456 -1.68224 0
M  V30 4900 H 459.24 -2.55674 0.0803688 0
M  V30 4901 H 458.884 -5.07771 -0.114655 0
M  V30 4902 H 458.814 -4.91613 -1.88745 0
M  V30 4903 H 461.305 -3.6524 -0.96996 0
M  V30 4904 H 461.618 -7.60511 -1.37271 0
M  V30 4905 H 459.963 -6.83824 -1.24136 0
M  V30 4906 H 463.154 -4.54507 -1.11985 0
M  V30 4907 H 463.327 -6.34749 -1.30373 0
M  V30 4908 N 456.733 0.527833 -1.48498 0
M  V30 4909 C 457.663 1.64136 -1.66077 0
M  V30 4910 C 458.644 1.62286 -0.509625 0
M  V30 4911 O 459.829 1.79449 -0.742413 0
M  V30 4912 C 456.959 3.02717 -1.70234 0
M  V30 4913 C 455.913 3.19426 -2.8487 0
M  V30 4914 C 455.239 4.5909 -2.74118 0
M  V30 4915 C 456.539 3.01993 -4.26142 0
M  V30 4916 H 458.233 1.4968 -2.593 0
M  V30 4917 H 455.779 0.718654 -1.24785 0
M  V30 4918 H 457.732 3.80491 -1.8112 0
M  V30 4919 H 456.456 3.18201 -0.735911 0
M  V30 4920 H 455.115 2.4407 -2.73542 0
M  V30 4921 H 454.763 4.71413 -1.7544 0
M  V30 4922 H 454.463 4.71214 -3.51042 0
M  V30 4923 H 455.987 5.3896 -2.86974 0
M  V30 4924 H 457.401 3.69558 -4.38292 0
M  V30 4925 H 455.798 3.2561 -5.04082 0
M  V30 4926 H 456.868 1.98396 -4.42456 0
M  V30 4927 N 458.211 1.37122 0.776871 0
M  V30 4928 C 459.459 1.31787 1.53221 0
M  V30 4929 C 459.78 -0.0987589 1.9475 0
M  V30 4930 O 459.05 -1.0417 1.65908 0
M  V30 4931 H 457.63 0.484839 0.568278 0
M  V30 4932 H 460.292 1.71556 0.924917 0
M  V30 4933 H 459.388 1.95355 2.43398 0
M  V30 4934 N 459.689 -1.00246 1.21608 0
M  V30 4935 C 460.919 -1.77373 1.05935 0
M  V30 4936 C 461.327 -1.85059 -0.393686 0
M  V30 4937 O 460.67 -1.31289 -1.28487 0
M  V30 4938 C 460.732 -3.22705 1.58435 0
M  V30 4939 C 460.396 -3.38591 3.06929 0
M  V30 4940 C 461.393 -3.2667 4.04454 0
M  V30 4941 C 459.078 -3.6395 3.46187 0
M  V30 4942 C 461.072 -3.39877 5.39224 0
M  V30 4943 C 458.759 -3.768 4.81108 0
M  V30 4944 C 459.757 -3.6477 5.77436 0
M  V30 4945 O 459.445 -3.77206 7.09909 0
M  V30 4946 H 459.177 -0.56419 0.372378 0
M  V30 4947 H 461.731 -1.26971 1.61454 0
M  V30 4948 H 459.961 -3.74255 0.973147 0
M  V30 4949 H 461.65 -3.81515 1.38568 0
M  V30 4950 H 462.416 -3.06999 3.75468 0
M  V30 4951 H 458.295 -3.72395 2.71741 0
M  V30 4952 H 461.839 -3.30404 6.14393 0
M  V30 4953 H 457.736 -3.95975 5.09779 0
M  V30 4954 H 458.504 -3.94138 7.17355 0
M  V30 4955 N 461.167 -1.02423 -1.1978 0
M  V30 4956 C 462.416 -0.713265 -1.88667 0
M  V30 4957 C 462.729 0.7609 -1.80193 0
M  V30 4958 O 463.935 1.18473 -2.44288 0
M  V30 4959 C 462.391 -1.22545 -3.38394 0
M  V30 4960 C 461.999 -2.72706 -3.55437 0
M  V30 4961 C 463.743 -0.990257 -4.12788 0
M  V30 4962 C 461.65 -3.17367 -4.99031 0
M  V30 4963 H 460.58 -0.263105 -0.706606 0
M  V30 4964 H 463.231 -1.23792 -1.35454 0
M  V30 4965 H 461.613 -0.628732 -3.90977 0
M  V30 4966 H 462.787 -3.37993 -3.13205 0
M  V30 4967 H 461.102 -2.94453 -2.94425 0
M  V30 4968 H 463.699 -1.29926 -5.18675 0
M  V30 4969 H 464.042 0.0730761 -4.16236 0
M  V30 4970 H 464.575 -1.55074 -3.66329 0
M  V30 4971 H 461.314 -4.23009 -5.00743 0
M  V30 4972 H 460.834 -2.56805 -5.42044 0
M  V30 4973 H 462.513 -3.10441 -5.67658 0
M  V30 4974 N 462.645 1.35699 -0.801477 0
M  V30 4975 C 463.575 2.32436 -0.222658 0
M  V30 4976 C 464.556 1.5723 0.649057 0
M  V30 4977 O 465.741 1.85324 0.580387 0
M  V30 4978 C 462.871 3.41469 0.633719 0
M  V30 4979 C 461.825 4.27774 -0.139083 0
M  V30 4980 C 461.151 5.28082 0.838666 0
M  V30 4981 C 462.451 5.04946 -1.33517 0
M  V30 4982 H 464.145 2.81094 -1.03086 0
M  V30 4983 H 461.691 1.35146 -0.497155 0
M  V30 4984 H 463.644 4.08143 1.04868 0
M  V30 4985 H 462.368 2.91408 1.47475 0
M  V30 4986 H 461.027 3.62673 -0.535156 0
M  V30 4987 H 460.675 4.7429 1.67506 0
M  V30 4988 H 460.375 5.86695 0.32594 0
M  V30 4989 H 461.899 5.97628 1.25194 0
M  V30 4990 H 463.313 5.64593 -0.995349 0
M  V30 4991 H 461.71 5.7303 -1.78202 0
M  V30 4992 H 462.78 4.35886 -2.12442 0
M  V30 4993 N 464.123 0.554532 1.47522 0
M  V30 4994 C 465.351 0.034257 2.06872 0
M  V30 4995 C 465.766 -1.25826 1.40759 0
M  V30 4996 O 465.123 -1.75425 0.503217 0
M  V30 4997 C 465.174 -0.167827 3.6111 0
M  V30 4998 O 464.895 1.07351 4.24744 0
M  V30 4999 C 466.396 -0.72569 4.3732 0
M  V30 5000 H 463.616 0.0446275 0.669514 0
M  V30 5001 H 466.16 0.767181 1.89564 0
M  V30 5002 H 464.315 -0.850872 3.7794 0
M  V30 5003 H 464.729 0.869563 5.17242 0
M  V30 5004 H 466.203 -0.816394 5.45929 0
M  V30 5005 H 466.68 -1.73635 4.0342 0
M  V30 5006 H 467.286 -0.0784292 4.25228 0
M  V30 5007 N 465.601 -1.54893 0.290851 0
M  V30 5008 C 466.841 -2.01842 -0.322388 0
M  V30 5009 C 467.205 -1.17477 -1.51865 0
M  V30 5010 O 468.406 -1.54077 -2.20258 0
M  V30 5011 C 466.677 -3.50874 -0.679844 0
M  V30 5012 S 468.236 -4.19796 -1.27739 0
M  V30 5013 H 465.054 -0.704005 -0.0994866 0
M  V30 5014 H 467.656 -1.91015 0.416358 0
M  V30 5015 H 466.36 -4.09915 0.199435 0
M  V30 5016 H 465.891 -3.65717 -1.44964 0
M  V30 5017 H 467.906 -4.24729 -2.56554 0
M  V30 5018 N 467.08 -0.0183926 -1.57589 0
M  V30 5019 C 468.491 0.521927 -1.79256 0
M  V30 5020 C 468.842 1.72885 -0.927636 0
M  V30 5021 O 467.967 2.15978 -0.135091 0
M  V30 5022 C 468.562 0.953632 -3.25102 0
M  V30 5023 C 467.121 1.43913 -3.47801 0
M  V30 5024 C 466.268 0.398837 -2.74417 0
M  V30 5025 H 469.219 -0.244485 -1.56805 0
M  V30 5026 H 469.24 1.81863 -3.34224 0
M  V30 5027 H 468.752 0.0750123 -3.88028 0
M  V30 5028 H 466.853 2.33804 -2.90115 0
M  V30 5029 H 466.966 1.45391 -4.56507 0
M  V30 5030 H 465.33 0.864572 -2.39577 0
M  V30 5031 H 466.113 -0.471132 -3.40052 0
M  V30 5032 N 468.558 1.5553 0.254621 0
M  V30 5033 C 469.783 1.81383 1.00573 0
M  V30 5034 C 470.208 0.594419 1.78461 0
M  V30 5035 O 469.566 -0.456403 1.75461 0
M  V30 5036 C 469.614 3.04892 1.92545 0
M  V30 5037 O 468.718 2.81266 3.01601 0
M  V30 5038 H 468.059 0.598969 0.286587 0
M  V30 5039 H 470.589 2.02703 0.277952 0
M  V30 5040 H 470.599 3.34119 2.34155 0
M  V30 5041 H 469.274 3.93287 1.3527 0
M  V30 5042 H 467.851 2.63185 2.64174 0
M  V30 5043 N 470.036 -0.519951 1.48776 0
M  V30 5044 C 470.984 -1.64443 1.64503 0
M  V30 5045 C 471.978 -1.61501 0.511248 0
M  V30 5046 O 473.184 -1.66238 0.690294 0
M  V30 5047 H 469.559 -0.544776 0.518385 0
M  V30 5048 H 471.53 -1.48325 2.58925 0
M  V30 5049 C 470.279 -3.02673 1.71127 0
M  V30 5050 H 469.602 -3.05635 2.57735 0
M  V30 5051 H 471.042 -3.80941 1.86172 0
M  V30 5052 C 469.501 -3.33854 0.452032 0
M  V30 5053 O 470.031 -3.99385 -0.430678 0
M  V30 5054 N 468.237 -2.88825 0.32069 0
M  V30 5055 H 467.784 -2.35674 1.03998 0
M  V30 5056 H 467.742 -3.10056 -0.520814 0
M  V30 5057 N 471.514 -1.37532 -0.769588 0
M  V30 5058 C 472.444 -1.36172 -1.89682 0
M  V30 5059 C 473.425 -0.23001 -1.68538 0
M  V30 5060 O 474.61 -0.43069 -1.89364 0
M  V30 5061 C 471.74 -1.1701 -3.26995 0
M  V30 5062 C 470.694 -2.27216 -3.62708 0
M  V30 5063 C 470.02 -1.93174 -4.98586 0
M  V30 5064 C 471.32 -3.6941 -3.69234 0
M  V30 5065 H 473.014 -2.30499 -1.91078 0
M  V30 5066 H 470.56 -1.10953 -0.917902 0
M  V30 5067 H 472.513 -1.14688 -4.05493 0
M  V30 5068 H 471.237 -0.191395 -3.26039 0
M  V30 5069 H 469.896 -2.28697 -2.86519 0
M  V30 5070 H 469.544 -0.938281 -4.94171 0
M  V30 5071 H 469.244 -2.66973 -5.23449 0
M  V30 5072 H 470.768 -1.92443 -5.79481 0
M  V30 5073 H 472.182 -3.70047 -4.37879 0
M  V30 5074 H 470.579 -4.4228 -4.05597 0
M  V30 5075 H 471.649 -4.0288 -2.69844 0
M  V30 5076 N 472.992 0.995999 -1.22138 0
M  V30 5077 C 474.24 1.73167 -1.042 0
M  V30 5078 C 474.561 1.90329 0.42423 0
M  V30 5079 O 473.831 1.4607 1.30539 0
M  V30 5080 H 472.411 0.641593 -0.38258 0
M  V30 5081 H 475.073 1.19974 -1.53598 0
M  V30 5082 H 474.169 2.72734 -1.51731 0
M  V30 5083 N 474.47 1.03057 1.19235 0
M  V30 5084 C 475.698 0.747697 1.92917 0
M  V30 5085 C 476.113 -0.69372 1.75593 0
M  V30 5086 O 475.47 -1.47191 1.07894 0
M  V30 5087 C 475.521 1.09159 3.44625 0
M  V30 5088 O 475.242 2.47641 3.61394 0
M  V30 5089 C 476.743 0.831763 4.35427 0
M  V30 5090 H 473.963 0.273453 0.612751 0
M  V30 5091 H 476.507 1.37552 1.51327 0
M  V30 5092 H 474.662 0.508919 3.84043 0
M  V30 5093 H 475.076 2.60499 4.55237 0
M  V30 5094 H 476.55 1.12233 5.4047 0
M  V30 5095 H 477.027 -0.233769 4.38577 0
M  V30 5096 H 477.633 1.39725 4.01693 0
M  V30 5097 N 475.948 -1.35272 0.808662 0
M  V30 5098 C 477.196 -1.98316 0.389233 0
M  V30 5099 C 477.517 -1.64465 -1.04767 0
M  V30 5100 O 476.787 -0.928175 -1.72516 0
M  V30 5101 H 475.367 -0.733585 0.140935 0
M  V30 5102 H 478.029 -1.6515 1.03496 0
M  V30 5103 H 477.125 -3.08123 0.496631 0
M  V30 5104 N 477.426 -0.562348 -1.47226 0
M  V30 5105 C 478.356 0.170627 -2.32876 0
M  V30 5106 C 479.337 0.903748 -1.44106 0
M  V30 5107 O 480.522 0.883206 -1.72954 0
M  V30 5108 C 477.652 1.19786 -3.25989 0
M  V30 5109 C 476.606 0.580875 -4.2404 0
M  V30 5110 C 475.932 1.71311 -5.06514 0
M  V30 5111 C 477.232 -0.468714 -5.20193 0
M  V30 5112 H 478.926 -0.544441 -2.94408 0
M  V30 5113 H 476.472 -0.263271 -1.41573 0
M  V30 5114 H 478.425 1.71884 -3.84752 0
M  V30 5115 H 477.149 1.94294 -2.62521 0
M  V30 5116 H 475.808 0.0811538 -3.6651 0
M  V30 5117 H 475.456 2.44736 -4.39447 0
M  V30 5118 H 475.156 1.30604 -5.72902 0
M  V30 5119 H 476.68 2.23725 -5.68137 0
M  V30 5120 H 478.094 -0.0336028 -5.7329 0
M  V30 5121 H 476.491 -0.794957 -5.94811 0
M  V30 5122 H 477.561 -1.36269 -4.65359 0
M  V30 5123 N 478.904 1.54736 -0.299062 0
M  V30 5124 C 480.32 1.59507 0.0543849 0
M  V30 5125 C 480.52 1.31606 1.52585 0
M  V30 5126 O 479.576 1.08853 2.27832 0
M  V30 5127 C 480.889 2.98751 -0.34181 0
M  V30 5128 C 482.437 3.1165 -0.290414 0
M  V30 5129 C 482.912 4.53199 -0.661402 0
M  V30 5130 N 484.403 4.59114 -0.613863 0
M  V30 5131 C 485.138 5.66709 -0.873417 0
M  V30 5132 N 484.634 6.82349 -1.19884 0
M  V30 5133 N 486.427 5.56369 -0.800608 0
M  V30 5134 H 478.578 1.71133 -1.25806 0
M  V30 5135 H 480.841 0.799186 -0.509908 0
M  V30 5136 H 480.547 3.24085 -1.36608 0
M  V30 5137 H 480.421 3.75961 0.305508 0
M  V30 5138 H 482.808 2.86066 0.724605 0
M  V30 5139 H 482.889 2.366 -0.972327 0
M  V30 5140 H 482.533 4.79513 -1.67422 0
M  V30 5141 H 482.463 5.26583 0.0425612 0
M  V30 5142 H 484.954 3.76053 -0.3732 0
M  V30 5143 H 485.267 7.60326 -1.38291 0
M  V30 5144 H 483.612 6.83906 -1.23685 0
M  V30 5145 H 486.803 4.64904 -0.546045 0
M  V30 5146 H 486.976 6.40139 -1.00626 0
M  V30 5147 N 480.382 0.0267497 1.57577 0
M  V30 5148 C 481.345 -0.940916 2.08996 0
M  V30 5149 C 482.345 -1.25561 1.00455 0
M  V30 5150 O 483.535 -1.19634 1.26623 0
M  V30 5151 C 480.667 -2.25814 2.55384 0
M  V30 5152 H 481.86 -0.495628 2.95776 0
M  V30 5153 H 479.413 -0.221241 1.54726 0
M  V30 5154 H 480.148 -2.74976 1.71926 0
M  V30 5155 H 479.933 -2.04285 3.34679 0
M  V30 5156 H 481.423 -2.95178 2.95398 0
M  V30 5157 N 481.861 -1.55662 -0.24637 0
M  V30 5158 C 483.109 -1.77168 -0.972411 0
M  V30 5159 C 483.43 -0.590827 -1.85834 0
M  V30 5160 O 482.7 0.393365 -1.9191 0
M  V30 5161 H 481.28 -0.653405 -0.362038 0
M  V30 5162 H 483.942 -1.93101 -0.264189 0
M  V30 5163 H 483.038 -2.68335 -1.59382 0
M  V30 5164 N 483.339 0.512053 -1.4905 0
M  V30 5165 C 484.585 1.26874 -1.58212 0
M  V30 5166 C 484.918 1.9241 -0.263073 0
M  V30 5167 O 484.193 1.80181 0.732476 0
M  V30 5168 C 484.476 2.34428 -2.73341 0
M  V30 5169 C 484.329 1.73466 -4.15006 0
M  V30 5170 C 485.648 3.36073 -2.84154 0
M  V30 5171 H 482.767 0.459924 -0.575881 0
M  V30 5172 H 485.409 0.568587 -1.81293 0
M  V30 5173 H 483.559 2.94146 -2.53792 0
M  V30 5174 H 485.231 1.17661 -4.46042 0
M  V30 5175 H 483.474 1.03921 -4.21168 0
M  V30 5176 H 484.145 2.51426 -4.91415 0
M  V30 5177 H 486.621 2.86332 -3.01916 0
M  V30 5178 H 485.497 4.08703 -3.66406 0
M  V30 5179 H 485.758 3.97725 -1.93048 0
M  V30 5180 N 484.817 1.37938 0.762283 0
M  V30 5181 C 485.767 1.30976 1.86626 0
M  V30 5182 C 486.751 0.195714 1.59705 0
M  V30 5183 O 487.943 0.430937 1.71674 0
M  V30 5184 C 485.072 1.12847 3.24223 0
M  V30 5185 C 484.158 2.28836 3.57064 0
M  V30 5186 N 484.549 3.54256 3.61022 0
M  V30 5187 C 482.847 2.21198 3.87282 0
M  V30 5188 C 483.548 4.30798 3.90881 0
M  V30 5189 N 482.524 3.60049 4.07266 0
M  V30 5190 H 486.326 2.25946 1.87951 0
M  V30 5191 H 483.84 1.31046 0.959206 0
M  V30 5192 H 485.837 1.05943 4.03214 0
M  V30 5193 H 484.497 0.188024 3.24155 0
M  V30 5194 H 485.508 3.8804 3.42995 0
M  V30 5195 H 482.185 1.35264 3.94981 0
M  V30 5196 H 483.575 5.39386 4.00639 0
M  V30 5197 N 486.295 -0.989507 1.22664 0
M  V30 5198 C 487.544 -1.72375 1.04737 0
M  V30 5199 C 487.857 -1.91096 -0.417316 0
M  V30 5200 O 489.063 -2.6188 -0.716334 0
M  V30 5201 C 487.519 -3.10161 1.82561 0
M  V30 5202 C 487.127 -2.99358 3.333 0
M  V30 5203 C 488.871 -3.87607 1.73093 0
M  V30 5204 C 486.778 -4.32319 4.03552 0
M  V30 5205 H 485.708 -0.646326 0.388302 0
M  V30 5206 H 488.359 -1.10437 1.46546 0
M  V30 5207 H 486.741 -3.728 1.33552 0
M  V30 5208 H 487.915 -2.45863 3.89728 0
M  V30 5209 H 486.23 -2.35392 3.43481 0
M  V30 5210 H 488.827 -4.86025 2.22899 0
M  V30 5211 H 489.17 -4.10509 0.691976 0
M  V30 5212 H 489.703 -3.31652 2.19663 0
M  V30 5213 H 486.442 -4.14616 5.07714 0
M  V30 5214 H 485.962 -4.85714 3.51911 0
M  V30 5215 H 487.641 -5.01051 4.09337 0
M  V30 5216 N 487.773 -1.03688 -1.18687 0
M  V30 5217 C 488.72 -0.624624 -2.22187 0
M  V30 5218 C 489.69 0.365636 -1.62026 0
M  V30 5219 O 490.875 0.260481 -1.89014 0
M  V30 5220 C 488.015 0.0101738 -3.45099 0
M  V30 5221 C 487.128 -1.02709 -4.19613 0
M  V30 5222 C 486.263 -0.361213 -5.2997 0
M  V30 5223 C 485.302 -1.38384 -5.96252 0
M  V30 5224 N 484.439 -0.743196 -6.98155 0
M  V30 5225 H 489.279 -1.51176 -2.56807 0
M  V30 5226 H 486.816 -0.75636 -1.26165 0
M  V30 5227 H 488.774 0.395528 -4.15321 0
M  V30 5228 H 487.404 0.860848 -3.1111 0
M  V30 5229 H 486.456 -1.53043 -3.48256 0
M  V30 5230 H 487.768 -1.80398 -4.65036 0
M  V30 5231 H 486.922 0.0785537 -6.06649 0
M  V30 5232 H 485.661 0.447799 -4.8564 0
M  V30 5233 H 484.666 -1.83378 -5.18317 0
M  V30 5234 H 485.891 -2.19448 -6.42666 0
M  V30 5235 H 483.837 0.0455789 -6.55984 0
M  V30 5236 H 483.754 -1.45784 -7.41811 0
M  V30 5237 H 485.022 -0.327698 -7.78811 0
M  V30 5238 N 489.251 1.34841 -0.815825 0
M  V30 5239 C 490.181 2.32187 -0.247298 0
M  V30 5240 C 491.162 1.5791 0.632344 0
M  V30 5241 O 492.347 1.8593 0.560698 0
M  V30 5242 C 489.477 3.42122 0.597466 0
M  V30 5243 C 488.431 4.27602 -0.184446 0
M  V30 5244 C 487.757 5.28942 0.782609 0
M  V30 5245 C 489.057 5.03502 -1.38865 0
M  V30 5246 H 490.751 2.79985 -1.06061 0
M  V30 5247 H 488.297 1.34611 -0.511461 0
M  V30 5248 H 490.25 4.09232 1.00533 0
M  V30 5249 H 488.974 2.92956 1.44376 0
M  V30 5250 H 487.633 3.62085 -0.573592 0
M  V30 5251 H 487.281 4.7604 1.62466 0
M  V30 5252 H 486.981 5.87008 0.263695 0
M  V30 5253 H 488.505 5.98922 1.18848 0
M  V30 5254 H 489.919 5.63506 -1.05518 0
M  V30 5255 H 488.316 5.71108 -1.8427 0
M  V30 5256 H 489.386 4.33608 -2.17054 0
M  V30 5257 N 490.729 0.570148 1.46925 0
M  V30 5258 C 492.14 0.1402 1.86173 0
M  V30 5259 C 492.491 -1.29347 1.47526 0
M  V30 5260 O 491.616 -1.97508 0.884292 0
M  V30 5261 C 492.211 0.247661 3.37894 0
M  V30 5262 C 490.77 -0.127332 3.76185 0
M  V30 5263 C 489.917 0.589349 2.70965 0
M  V30 5264 H 492.868 0.779117 1.38259 0
M  V30 5265 H 492.889 -0.530341 3.76786 0
M  V30 5266 H 492.401 1.29121 3.65991 0
M  V30 5267 H 490.502 -1.17149 3.53704 0
M  V30 5268 H 490.615 0.240238 4.78497 0
M  V30 5269 H 488.979 0.0309824 2.54681 0
M  V30 5270 H 489.762 1.6343 3.01903 0
M  V30 5271 N 492.207 -1.54576 0.307264 0
M  V30 5272 C 493.137 -2.26708 -0.55907 0
M  V30 5273 C 494.118 -1.26893 -1.1328 0
M  V30 5274 O 495.303 -1.55677 -1.16097 0
M  V30 5275 C 492.433 -3.01259 -1.72801 0
M  V30 5276 C 491.387 -4.08275 -1.28435 0
M  V30 5277 C 490.713 -4.70575 -2.53895 0
M  V30 5278 C 492.013 -5.2068 -0.411038 0
M  V30 5279 H 493.707 -2.9937 0.042576 0
M  V30 5280 H 491.253 -1.43983 0.0219173 0
M  V30 5281 H 493.206 -3.50444 -2.34023 0
M  V30 5282 H 491.93 -2.26187 -2.356 0
M  V30 5283 H 490.589 -3.59949 -0.695161 0
M  V30 5284 H 490.237 -3.92136 -3.15021 0
M  V30 5285 H 489.937 -5.42854 -2.24908 0
M  V30 5286 H 491.461 -5.22527 -3.15908 0
M  V30 5287 H 492.875 -5.65721 -0.929097 0
M  V30 5288 H 491.272 -5.99716 -0.214664 0
M  V30 5289 H 492.342 -4.81629 0.562287 0
M  V30 5290 N 493.685 -0.035106 -1.57561 0
M  V30 5291 C 494.615 0.942993 -2.13612 0
M  V30 5292 C 495.596 1.33531 -1.05373 0
M  V30 5293 O 496.781 1.41287 -1.33235 0
M  V30 5294 C 493.911 2.22332 -2.66807 0
M  V30 5295 C 492.865 1.97156 -3.79886 0
M  V30 5296 C 492.191 3.31506 -4.19533 0
M  V30 5297 C 493.491 1.30596 -5.05709 0
M  V30 5298 H 495.185 0.476179 -2.95589 0
M  V30 5299 H 492.731 0.227602 -1.4219 0
M  V30 5300 H 494.684 2.91142 -3.04654 0
M  V30 5301 H 493.408 2.7119 -1.81999 0
M  V30 5302 H 492.067 1.30763 -3.42486 0
M  V30 5303 H 491.715 3.78134 -3.31698 0
M  V30 5304 H 491.415 3.15465 -4.95738 0
M  V30 5305 H 492.939 4.01574 -4.59968 0
M  V30 5306 H 494.353 1.89416 -5.41105 0
M  V30 5307 H 492.75 1.24934 -5.86951 0
M  V30 5308 H 493.82 0.279742 -4.84092 0
M  V30 5309 N 495.163 1.55791 0.238111 0
M  V30 5310 C 496.388 1.8244 0.986432 0
M  V30 5311 C 496.813 0.613314 1.7782 0
M  V30 5312 O 496.171 -0.437767 1.75935 0
M  V30 5313 C 496.219 3.06917 1.893 0
M  V30 5314 O 495.323 2.84449 2.98601 0
M  V30 5315 H 494.664 0.601975 0.280218 0
M  V30 5316 H 497.194 2.02987 0.256437 0
M  V30 5317 H 497.204 3.36583 2.30598 0
M  V30 5318 H 495.879 3.947 1.31091 0
M  V30 5319 H 494.456 2.65972 2.61368 0
M  V30 5320 N 496.642 -0.504142 1.49319 0
M  V30 5321 C 497.589 -1.60603 1.65756 0
M  V30 5322 C 498.559 -1.58425 0.499082 0
M  V30 5323 O 499.744 -1.76459 0.725728 0
M  V30 5324 C 496.884 -2.98764 1.72726 0
M  V30 5325 C 495.997 -3.10982 2.99857 0
M  V30 5326 C 495.132 -4.39857 2.97824 0
M  V30 5327 C 494.171 -4.45697 4.19548 0
M  V30 5328 N 493.308 -5.65995 4.15444 0
M  V30 5329 H 498.148 -1.45895 2.59843 0
M  V30 5330 H 495.685 -0.709891 1.28837 0
M  V30 5331 H 497.643 -3.78839 1.74747 0
M  V30 5332 H 496.273 -3.12183 0.821075 0
M  V30 5333 H 495.325 -2.23991 3.07461 0
M  V30 5334 H 496.637 -3.11157 3.89849 0
M  V30 5335 H 495.791 -5.2825 2.98391 0
M  V30 5336 H 494.53 -4.42242 2.05604 0
M  V30 5337 H 493.535 -3.55707 4.19229 0
M  V30 5338 H 494.76 -4.4503 5.12957 0
M  V30 5339 H 492.706 -5.69229 3.26059 0
M  V30 5340 H 492.623 -5.67773 4.99169 0
M  V30 5341 H 493.891 -6.56604 4.20109 0
M  V30 5342 N 498.12 -1.38341 -0.754957 0
M  V30 5343 C 499.397 -1.24995 -1.50451 0
M  V30 5344 C 499.777 0.149244 -2.10572 0
M  V30 5345 O 499.125 1.15861 -1.96948 0
M  V30 5346 C 499.335 -2.35904 -2.57197 0
M  V30 5347 C 500.683 -2.74262 -3.24138 0
M  V30 5348 O 501.707 -2.35205 -2.67501 0
M  V30 5349 O 500.566 -3.4161 -4.26574 0
M  V30 5350 H 497.66 -0.48872 -0.667144 0
M  V30 5351 H 500.206 -1.50165 -0.790486 0
M  V30 5352 H 498.978 -3.2953 -2.11011 0
M  V30 5353 H 498.601 -2.12291 -3.36182 0
M  V30 5354 N 499.598 0.982988 -1.23187 0
M  V30 5355 C 500.823 1.76455 -1.08988 0
M  V30 5356 C 501.248 1.84726 0.354691 0
M  V30 5357 O 500.606 1.30699 1.25649 0
M  V30 5358 C 500.654 3.17094 -1.71708 0
M  V30 5359 O 499.758 4.00648 -0.977477 0
M  V30 5360 H 499.099 0.542988 -0.382177 0
M  V30 5361 H 501.629 1.23413 -1.63188 0
M  V30 5362 H 501.639 3.67684 -1.76841 0
M  V30 5363 H 500.314 3.10389 -2.76823 0
M  V30 5364 H 498.891 3.59161 -1.0029 0
M  V30 5365 N 501.076 1.04316 1.18135 0
M  V30 5366 C 502.492 0.762858 1.40188 0
M  V30 5367 C 502.692 -0.646547 1.90846 0
M  V30 5368 O 501.748 -1.41036 2.0944 0
M  V30 5369 C 503.061 1.81106 2.40044 0
M  V30 5370 C 504.609 1.83226 2.53766 0
M  V30 5371 C 505.084 2.87044 3.56889 0
M  V30 5372 N 506.575 2.85951 3.64398 0
M  V30 5373 C 507.31 3.62932 4.43923 0
M  V30 5374 N 506.806 4.49672 5.27036 0
M  V30 5375 N 508.599 3.51411 4.38711 0
M  V30 5376 H 500.75 1.95264 0.835805 0
M  V30 5377 H 503.013 0.845017 0.429709 0
M  V30 5378 H 502.719 2.82214 2.09876 0
M  V30 5379 H 502.593 1.64529 3.39426 0
M  V30 5380 H 504.98 0.827869 2.8325 0
M  V30 5381 H 505.061 2.03879 1.54489 0
M  V30 5382 H 504.705 3.87663 3.28145 0
M  V30 5383 H 504.635 2.63645 4.5585 0
M  V30 5384 H 507.126 2.23051 3.05052 0
M  V30 5385 H 507.439 5.05116 5.84874 0
M  V30 5386 H 505.784 4.53738 5.26447 0
M  V30 5387 H 508.975 2.83047 3.72829 0
M  V30 5388 H 509.148 4.11654 5.00445 0
M  V30 5389 N 502.554 -1.34406 0.822964 0
M  V30 5390 C 503.801 -1.98284 0.411057 0
M  V30 5391 C 504.129 -1.65245 -1.02588 0
M  V30 5392 O 503.384 -0.91619 -1.72929 0
M  V30 5393 C 503.683 -3.52981 0.560268 0
M  V30 5394 C 503.349 -4.05931 1.96293 0
M  V30 5395 C 502.011 -4.20103 2.34664 0
M  V30 5396 C 504.363 -4.34412 2.87985 0
M  V30 5397 C 501.691 -4.60082 3.64062 0
M  V30 5398 C 504.043 -4.75838 4.16847 0
M  V30 5399 C 502.707 -4.88215 4.55195 0
M  V30 5400 H 501.977 -0.725573 0.150416 0
M  V30 5401 H 504.624 -1.60349 1.04692 0
M  V30 5402 H 502.929 -3.91477 -0.158982 0
M  V30 5403 H 504.626 -4.00385 0.222087 0
M  V30 5404 H 501.216 -3.95363 1.65487 0
M  V30 5405 H 505.4 -4.23001 2.59584 0
M  V30 5406 H 500.656 -4.67856 3.93599 0
M  V30 5407 H 504.83 -4.96834 4.87984 0
M  V30 5408 H 502.457 -5.18952 5.55512 0
M  V30 5409 N 504.032 -0.577932 -1.46621 0
M  V30 5410 C 505.443 -0.150071 -1.86096 0
M  V30 5411 C 505.794 1.28563 -1.48209 0
M  V30 5412 O 504.919 1.97036 -0.894754 0
M  V30 5413 C 505.514 -0.265576 -3.37758 0
M  V30 5414 C 504.073 0.10738 -3.76247 0
M  V30 5415 C 503.22 -0.603711 -2.70649 0
M  V30 5416 H 506.171 -0.786438 -1.37844 0
M  V30 5417 H 506.192 0.510352 -3.77062 0
M  V30 5418 H 505.704 -1.3106 -3.65301 0
M  V30 5419 H 503.805 1.15272 -3.54321 0
M  V30 5420 H 503.918 -0.26561 -4.78363 0
M  V30 5421 H 502.282 -0.0444884 -2.54661 0
M  V30 5422 H 503.065 -1.65029 -3.01032 0
M  V30 5423 N 505.51 1.54411 -0.315457 0
M  V30 5424 C 506.457 2.24048 0.554166 0
M  V30 5425 C 507.427 1.2283 1.11812 0
M  V30 5426 O 508.612 1.51491 1.15997 0
M  V30 5427 C 505.752 2.99574 1.71316 0
M  V30 5428 C 504.865 4.15594 1.17922 0
M  V30 5429 C 504 4.78669 2.30324 0
M  V30 5430 C 503.039 5.86807 1.74137 0
M  V30 5431 N 502.176 6.43777 2.8017 0
M  V30 5432 H 507.016 2.97964 -0.0462602 0
M  V30 5433 H 504.553 1.47059 -0.0346009 0
M  V30 5434 H 506.511 3.41604 2.39505 0
M  V30 5435 H 505.141 2.28008 2.285 0
M  V30 5436 H 504.193 3.78404 0.389136 0
M  V30 5437 H 505.505 4.93459 0.728012 0
M  V30 5438 H 504.659 5.23626 3.06433 0
M  V30 5439 H 503.398 4.00168 2.78778 0
M  V30 5440 H 502.403 5.41261 0.965236 0
M  V30 5441 H 503.628 6.67201 1.2657 0
M  V30 5442 H 501.574 5.68153 3.2793 0
M  V30 5443 H 501.491 7.17031 2.39588 0
M  V30 5444 H 502.759 6.9339 3.56132 0
M  V30 5445 N 506.988 0.0434614 1.5754 0
M  V30 5446 C 508.237 -0.631454 1.91561 0
M  V30 5447 C 508.55 -1.72457 0.92292 0
M  V30 5448 O 509.756 -2.45712 1.15489 0
M  V30 5449 C 508.212 -1.17447 3.40197 0
M  V30 5450 C 507.82 -0.113867 4.47855 0
M  V30 5451 C 509.564 -1.82507 3.83264 0
M  V30 5452 C 507.471 -0.669326 5.876 0
M  V30 5453 H 506.401 -0.239629 0.714908 0
M  V30 5454 H 509.052 0.111097 1.83163 0
M  V30 5455 H 507.434 -1.96909 3.43574 0
M  V30 5456 H 508.608 0.659348 4.56058 0
M  V30 5457 H 506.923 0.438821 4.14081 0
M  V30 5458 H 509.52 -2.25047 4.85034 0
M  V30 5459 H 509.863 -2.67365 3.19095 0
M  V30 5460 H 510.396 -1.09712 3.82372 0
M  V30 5461 H 507.135 0.141449 6.55347 0
M  V30 5462 H 506.655 -1.4107 5.82974 0
M  V30 5463 H 508.334 -1.15463 6.36614 0
M  V30 5464 N 508.466 -1.55915 -0.229846 0
M  V30 5465 C 509.396 -1.94754 -1.28815 0
M  V30 5466 C 510.377 -0.814657 -1.49323 0
M  V30 5467 O 511.562 -1.07631 -1.61645 0
M  V30 5468 C 508.692 -2.25705 -2.63959 0
M  V30 5469 C 507.646 -3.41406 -2.5812 0
M  V30 5470 C 506.972 -3.57941 -3.97218 0
M  V30 5471 C 508.272 -4.76616 -2.13623 0
M  V30 5472 H 509.966 -2.83404 -0.965547 0
M  V30 5473 H 507.512 -1.36353 -0.463028 0
M  V30 5474 H 509.465 -2.51467 -3.38146 0
M  V30 5475 H 508.189 -1.339 -2.9789 0
M  V30 5476 H 506.848 -3.1568 -1.86391 0
M  V30 5477 H 506.496 -2.63526 -4.28443 0
M  V30 5478 H 506.196 -4.35757 -3.94195 0
M  V30 5479 H 507.72 -3.86042 -4.73079 0
M  V30 5480 H 509.134 -5.01637 -2.77549 0
M  V30 5481 H 507.531 -5.57655 -2.21677 0
M  V30 5482 H 508.601 -4.7253 -1.08829 0
M  V30 5483 N 509.944 0.496216 -1.49584 0
M  V30 5484 C 510.854 1.62352 -1.69349 0
M  V30 5485 C 511.87 1.64184 -0.576147 0
M  V30 5486 O 513.046 1.82517 -0.85144 0
M  V30 5487 C 510.111 2.98698 -1.76013 0
M  V30 5488 C 509.172 3.07454 -2.99617 0
M  V30 5489 C 508.405 4.37296 -3.05953 0
M  V30 5490 O 508.628 5.2637 -2.19752 0
M  V30 5491 O 507.562 4.51124 -3.9846 0
M  V30 5492 H 511.388 1.48606 -2.64859 0
M  V30 5493 H 508.973 0.673022 -1.33382 0
M  V30 5494 H 510.855 3.79725 -1.82721 0
M  V30 5495 H 509.53 3.12696 -0.836828 0
M  V30 5496 H 508.437 2.25597 -2.98424 0
M  V30 5497 H 509.77 2.98385 -3.91443 0
M  V30 5498 N 511.423 1.38739 0.74761 0
M  V30 5499 C 512.371 1.36573 1.88283 0
M  V30 5500 C 513.365 0.250712 1.67534 0
M  V30 5501 O 514.571 0.420073 1.7503 0
M  V30 5502 H 510.946 0.42619 0.619569 0
M  V30 5503 H 512.917 2.32356 1.87226 0
M  V30 5504 C 511.666 1.21361 3.25832 0
M  V30 5505 H 510.989 2.06424 3.42388 0
M  V30 5506 H 512.429 1.23901 4.05493 0
M  V30 5507 C 510.888 -0.0790099 3.36807 0
M  V30 5508 O 511.418 -1.05385 3.8763 0
M  V30 5509 N 509.624 -0.13785 2.90273 0
M  V30 5510 H 509.171 0.656128 2.49104 0
M  V30 5511 H 509.129 -1.00228 2.97996 0
M  V30 5512 N 512.901 -0.976442 1.23707 0
M  V30 5513 C 513.831 -2.08749 1.04624 0
M  V30 5514 C 514.812 -1.70057 -0.0380956 0
M  V30 5515 O 515.997 -1.93782 0.127308 0
M  V30 5516 C 513.127 -3.41335 0.640902 0
M  V30 5517 C 512.081 -3.93947 1.67302 0
M  V30 5518 C 511.407 -5.22774 1.12301 0
M  V30 5519 C 512.707 -4.22769 3.06697 0
M  V30 5520 H 514.401 -2.24972 1.97555 0
M  V30 5521 H 511.947 -1.08108 0.951247 0
M  V30 5522 H 513.9 -4.18489 0.494434 0
M  V30 5523 H 512.624 -3.24988 -0.324099 0
M  V30 5524 H 511.283 -3.18941 1.80755 0
M  V30 5525 H 510.931 -5.0278 0.148877 0
M  V30 5526 H 510.631 -5.58942 1.81267 0
M  V30 5527 H 512.155 -6.02546 0.988479 0
M  V30 5528 H 513.569 -4.90659 2.96524 0
M  V30 5529 H 511.966 -4.70147 3.72937 0
M  V30 5530 H 513.036 -3.29885 3.55392 0
M  V30 5531 N 514.379 -1.04941 -1.1758 0
M  V30 5532 C 515.795 -0.770282 -1.39781 0
M  V30 5533 C 515.995 0.636417 -1.91186 0
M  V30 5534 O 515.051 1.39923 -2.10185 0
M  V30 5535 C 516.364 -1.82376 -2.3908 0
M  V30 5536 C 517.912 -1.84569 -2.52791 0
M  V30 5537 C 518.387 -2.88933 -3.55361 0
M  V30 5538 N 519.878 -2.8788 -3.62877 0
M  V30 5539 C 520.613 -3.65282 -4.41992 0
M  V30 5540 N 520.109 -4.52461 -5.24643 0
M  V30 5541 N 521.902 -3.53732 -4.36841 0
M  V30 5542 H 514.053 -1.95705 -0.825438 0
M  V30 5543 H 516.316 -0.847284 -0.425222 0
M  V30 5544 H 516.022 -2.83323 -2.08376 0
M  V30 5545 H 515.896 -1.66327 -3.38549 0
M  V30 5546 H 518.283 -0.842879 -2.82807 0
M  V30 5547 H 518.364 -2.04696 -1.53406 0
M  V30 5548 H 518.008 -3.89398 -3.26085 0
M  V30 5549 H 517.938 -2.66059 -4.54445 0
M  V30 5550 H 520.429 -2.24666 -3.03864 0
M  V30 5551 H 520.742 -5.08211 -5.82187 0
M  V30 5552 H 519.087 -4.56524 -5.24033 0
M  V30 5553 H 522.278 -2.85021 -3.71323 0
M  V30 5554 H 522.451 -4.14302 -4.98255 0
M  V30 5555 N 515.857 1.33968 -0.830081 0
M  V30 5556 C 516.787 2.31911 -0.271911 0
M  V30 5557 C 517.768 1.58571 0.61556 0
M  V30 5558 O 518.953 1.86514 0.540946 0
M  V30 5559 C 516.083 3.42737 0.561146 0
M  V30 5560 C 515.037 4.27383 -0.229789 0
M  V30 5561 C 514.363 5.29742 0.726463 0
M  V30 5562 C 515.663 5.02 -1.44197 0
M  V30 5563 H 517.357 2.78844 -1.09025 0
M  V30 5564 H 514.903 1.34061 -0.52571 0
M  V30 5565 H 516.856 4.10276 0.961867 0
M  V30 5566 H 515.58 2.94471 1.41261 0
M  V30 5567 H 514.239 3.61456 -0.611964 0
M  V30 5568 H 513.887 4.77736 1.57408 0
M  V30 5569 H 513.587 5.87255 0.20142 0
M  V30 5570 H 515.111 6.00149 1.12489 0
M  V30 5571 H 516.525 5.62355 -1.11488 0
M  V30 5572 H 514.922 5.69122 -1.90317 0
M  V30 5573 H 515.992 4.31281 -2.2164 0
M  V30 5574 N 517.335 0.585699 1.46312 0
M  V30 5575 C 518.267 -0.183687 2.28463 0
M  V30 5576 C 519.28 -0.85264 1.38686 0
M  V30 5577 O 520.469 -0.721701 1.6326 0
M  V30 5578 C 517.569 -1.27977 3.13808 0
M  V30 5579 C 516.742 -0.702164 4.31727 0
M  V30 5580 C 515.801 -1.68633 4.98447 0
M  V30 5581 O 514.827 -1.22121 5.55945 0
M  V30 5582 N 516.029 -3.02047 4.95729 0
M  V30 5583 H 518.794 0.521127 2.95134 0
M  V30 5584 H 516.355 0.423673 1.56258 0
M  V30 5585 H 518.347 -1.9375 3.55307 0
M  V30 5586 H 516.917 -1.8874 2.4919 0
M  V30 5587 H 516.137 0.1331 3.93975 0
M  V30 5588 H 517.425 -0.296101 5.07938 0
M  V30 5589 H 516.823 -3.42457 4.50266 0
M  V30 5590 H 515.38 -3.63301 5.41161 0
M  V30 5591 N 518.813 -1.54241 0.323641 0
M  V30 5592 C 519.76 -2.24339 -0.542277 0
M  V30 5593 C 520.73 -1.23421 -1.11159 0
M  V30 5594 O 521.915 -1.52104 -1.15192 0
M  V30 5595 C 519.055 -3.00479 -1.69725 0
M  V30 5596 C 518.168 -4.16214 -1.15716 0
M  V30 5597 C 517.303 -4.79884 -2.27783 0
M  V30 5598 C 516.342 -5.87722 -1.71023 0
M  V30 5599 N 515.479 -6.45254 -2.76752 0
M  V30 5600 H 520.319 -2.97935 0.0620613 0
M  V30 5601 H 517.856 -1.47039 0.0423993 0
M  V30 5602 H 519.814 -3.42869 -2.3769 0
M  V30 5603 H 518.444 -2.29217 -2.27288 0
M  V30 5604 H 517.496 -3.78605 -0.369063 0
M  V30 5605 H 518.808 -4.93838 -0.701832 0
M  V30 5606 H 517.962 -5.25243 -3.03651 0
M  V30 5607 H 516.701 -4.01641 -2.76652 0
M  V30 5608 H 515.706 -5.41765 -0.936518 0
M  V30 5609 H 516.931 -6.67863 -1.2303 0
M  V30 5610 H 514.877 -5.69884 -3.24912 0
M  V30 5611 H 514.794 -7.18292 -2.35782 0
M  V30 5612 H 516.062 -6.95269 -3.5245 0
M  V30 5613 N 520.291 -0.0518155 -1.57515 0
M  V30 5614 C 521.707 0.304735 -1.56664 0
M  V30 5615 C 521.907 1.71395 -1.05953 0
M  V30 5616 O 520.963 2.42123 -0.716414 0
M  V30 5617 C 522.276 0.132614 -3.00407 0
M  V30 5618 C 523.824 0.20367 -3.12337 0
M  V30 5619 C 524.299 0.0600706 -4.57961 0
M  V30 5620 N 525.79 0.116326 -4.63054 0
M  V30 5621 C 526.525 0.0293363 -5.73392 0
M  V30 5622 N 526.021 -0.110038 -6.92713 0
M  V30 5623 N 527.814 0.0849651 -5.62036 0
M  V30 5624 H 519.965 -0.973056 -1.888 0
M  V30 5625 H 522.228 -0.377781 -0.869474 0
M  V30 5626 H 521.934 -0.839019 -3.41546 0
M  V30 5627 H 521.808 0.893376 -3.66468 0
M  V30 5628 H 524.195 1.16578 -2.71097 0
M  V30 5629 H 524.276 -0.587857 -2.48954 0
M  V30 5630 H 523.92 -0.898715 -4.99886 0
M  V30 5631 H 523.85 0.87075 -5.19351 0
M  V30 5632 H 526.341 0.22327 -3.7724 0
M  V30 5633 H 526.654 -0.169104 -7.72615 0
M  V30 5634 H 524.999 -0.145132 -6.94848 0
M  V30 5635 H 528.19 0.192411 -4.67704 0
M  V30 5636 H 528.363 0.0137131 -6.47999 0
M  V30 5637 N 521.769 1.56035 0.221574 0
M  V30 5638 C 523.017 1.78693 0.944102 0
M  V30 5639 C 523.338 0.620317 1.8487 0
M  V30 5640 O 522.608 -0.362784 1.92512 0
M  V30 5641 H 521.188 0.659082 0.351597 0
M  V30 5642 H 523.85 1.93497 0.233435 0
M  V30 5643 H 522.946 2.70837 1.55093 0
M  V30 5644 N 523.247 -0.488276 1.49845 0
M  V30 5645 C 524.475 -1.26527 1.63702 0
M  V30 5646 C 524.89 -1.8618 0.313447 0
M  V30 5647 O 524.247 -1.68432 -0.702624 0
M  V30 5648 C 524.298 -2.3864 2.71538 0
M  V30 5649 O 524.019 -1.81437 3.98763 0
M  V30 5650 C 525.52 -3.29805 2.96215 0
M  V30 5651 H 522.74 -0.383295 0.55075 0
M  V30 5652 H 525.284 -0.584779 1.95961 0
M  V30 5653 H 523.439 -3.02496 2.42023 0
M  V30 5654 H 523.853 -2.55135 4.58265 0
M  V30 5655 H 525.327 -4.04722 3.75372 0
M  V30 5656 H 525.804 -3.87563 2.06619 0
M  V30 5657 H 526.41 -2.71703 3.27196 0
M  V30 5658 N 524.725 -1.39134 -0.740242 0
M  V30 5659 C 525.973 -1.35803 -1.49673 0
M  V30 5660 C 526.294 0.0470897 -1.94943 0
M  V30 5661 O 525.564 0.997347 -1.68611 0
M  V30 5662 H 524.144 -0.499736 -0.555224 0
M  V30 5663 H 526.806 -1.73947 -0.879107 0
M  V30 5664 H 525.902 -2.0174 -2.38133 0
M  V30 5665 N 526.204 0.969867 -1.24223 0
M  V30 5666 C 527.452 1.70918 -1.0785 0
M  V30 5667 C 527.773 1.91186 0.383763 0
M  V30 5668 O 527.043 1.48806 1.27411 0
M  V30 5669 H 525.623 0.633334 -0.396103 0
M  V30 5670 H 528.285 1.16689 -1.56108 0
M  V30 5671 H 527.381 2.69455 -1.57482 0
M  V30 5672 N 527.682 1.05563 1.17022 0
M  V30 5673 C 528.928 0.769074 1.87652 0
M  V30 5674 C 529.261 -0.702326 1.81055 0
M  V30 5675 O 528.536 -1.5139 1.22112 0
M  V30 5676 C 528.819 1.25492 3.37526 0
M  V30 5677 C 528.672 2.78953 3.52853 0
M  V30 5678 C 529.991 0.856919 4.31677 0
M  V30 5679 H 527.11 0.280854 0.681388 0
M  V30 5680 H 529.752 1.31027 1.37593 0
M  V30 5681 H 527.902 0.794516 3.80289 0
M  V30 5682 H 529.574 3.33146 3.19079 0
M  V30 5683 H 527.817 3.18046 2.95007 0
M  V30 5684 H 528.488 3.08011 4.58076 0
M  V30 5685 H 530.964 1.25334 3.96775 0
M  V30 5686 H 529.84 1.22443 5.35069 0
M  V30 5687 H 530.101 -0.238787 4.41455 0
M  V30 5688 N 529.16 -1.33526 0.837174 0
M  V30 5689 C 530.437 -1.92369 0.354065 0
M  V30 5690 C 530.817 -1.76348 -1.16038 0
M  V30 5691 O 530.165 -1.15083 -1.97403 0
M  V30 5692 C 530.375 -3.39728 0.799101 0
M  V30 5693 C 531.723 -4.16877 0.806139 0
M  V30 5694 O 532.747 -3.48373 0.742597 0
M  V30 5695 O 531.606 -5.39166 0.892345 0
M  V30 5696 H 528.7 -0.820952 0.0998378 0
M  V30 5697 H 531.246 -1.42409 0.922913 0
M  V30 5698 H 530.018 -3.45254 1.84162 0
M  V30 5699 H 529.641 -3.97062 0.206731 0
M  V30 5700 N 530.638 -0.59345 -1.46 0
M  V30 5701 C 531.866 -0.0890934 -2.06708 0
M  V30 5702 C 532.281 1.2205 -1.44046 0
M  V30 5703 O 531.638 1.74029 -0.549551 0
M  V30 5704 C 531.689 0.0720263 -3.61428 0
M  V30 5705 O 531.41 -1.18574 -4.21748 0
M  V30 5706 C 532.911 0.609487 -4.3909 0
M  V30 5707 H 530.131 -0.0623628 -0.668096 0
M  V30 5708 H 532.675 -0.817171 -1.87464 0
M  V30 5709 H 530.83 0.750369 -3.80063 0
M  V30 5710 H 531.244 -1.0064 -5.14754 0
M  V30 5711 H 532.718 0.671363 -5.47902 0
M  V30 5712 H 533.195 1.62878 -4.07882 0
M  V30 5713 H 533.801 -0.03434 -4.25286 0
M  V30 5714 N 532.116 1.54067 -0.331816 0
M  V30 5715 C 533.079 2.23275 0.517768 0
M  V30 5716 C 534.079 1.22897 1.03697 0
M  V30 5717 O 535.269 1.47419 0.928084 0
M  V30 5718 C 532.401 2.94326 1.72004 0
M  V30 5719 H 533.594 2.99773 -0.0873507 0
M  V30 5720 H 531.147 1.56079 -0.0830042 0
M  V30 5721 H 531.882 2.21986 2.36417 0
M  V30 5722 H 531.667 3.67941 1.35507 0
M  V30 5723 H 533.157 3.47031 2.32291 0
M  V30 5724 N 533.594 0.0601682 1.57485 0
M  V30 5725 C 534.557 -0.896373 2.10945 0
M  V30 5726 C 535.557 -1.23402 1.03095 0
M  V30 5727 O 536.747 -1.16921 1.29132 0
M  V30 5728 C 533.879 -2.20346 2.60116 0
M  V30 5729 H 535.072 -0.432778 2.96761 0
M  V30 5730 H 532.625 -0.188372 1.55161 0
M  V30 5731 H 533.36 -2.71268 1.7772 0
M  V30 5732 H 533.145 -1.9714 3.38937 0
M  V30 5733 H 534.635 -2.88846 3.01592 0
M  V30 5734 N 535.072 -1.5615 -0.213296 0
M  V30 5735 C 536.3 -1.83638 -0.953139 0
M  V30 5736 C 536.715 -0.640362 -1.77609 0
M  V30 5737 O 536.072 0.391071 -1.78261 0
M  V30 5738 C 536.123 -3.09735 -1.86405 0
M  V30 5739 O 535.844 -4.24723 -1.07435 0
M  V30 5740 C 537.345 -3.5027 -2.71709 0
M  V30 5741 H 534.565 -0.610263 -0.278962 0
M  V30 5742 H 537.109 -2.03247 -0.226035 0
M  V30 5743 H 535.264 -2.92077 -2.545 0
M  V30 5744 H 535.678 -4.9641 -1.69343 0
M  V30 5745 H 537.152 -4.41515 -3.31313 0
M  V30 5746 H 537.629 -2.72406 -3.44516 0
M  V30 5747 H 538.235 -3.70396 -2.09015 0
M  V30 5748 N 536.55 0.480323 -1.50102 0
M  V30 5749 C 537.798 1.23063 -1.60312 0
M  V30 5750 C 538.119 1.92659 -0.301226 0
M  V30 5751 O 537.389 1.83691 0.680753 0
M  V30 5752 H 535.969 0.457231 -0.590719 0
M  V30 5753 H 538.631 0.554893 -1.86834 0
M  V30 5754 H 537.727 1.9835 -2.40964 0
M  V30 5755 N 538.028 1.39524 0.732853 0
M  V30 5756 C 539.276 1.36594 1.48951 0
M  V30 5757 C 539.597 -0.0367507 1.94965 0
M  V30 5758 O 538.867 -0.988391 1.69138 0
M  V30 5759 H 537.447 0.502673 0.552566 0
M  V30 5760 H 540.109 1.74411 0.869869 0
M  V30 5761 H 539.205 2.03 2.3706 0
M  V30 5762 N 539.506 -0.963266 1.24736 0
M  V30 5763 C 540.752 -1.70933 1.09131 0
M  V30 5764 C 541.085 -1.90676 -0.368273 0
M  V30 5765 O 540.36 -1.47147 -1.27193 0
M  V30 5766 C 540.643 -3.09744 1.83658 0
M  V30 5767 C 540.496 -2.97465 3.37394 0
M  V30 5768 C 541.815 -4.09483 1.61282 0
M  V30 5769 H 538.934 -0.620398 0.397838 0
M  V30 5770 H 541.576 -1.12028 1.53459 0
M  V30 5771 H 539.726 -3.60031 1.4598 0
M  V30 5772 H 541.398 -2.54571 3.84696 0
M  V30 5773 H 539.641 -2.33576 3.65547 0
M  V30 5774 H 540.312 -3.95822 3.84745 0
M  V30 5775 H 542.788 -3.68073 1.94066 0
M  V30 5776 H 541.664 -5.04666 2.15878 0
M  V30 5777 H 541.925 -4.38639 0.552102 0
M  V30 5778 N 540.985 -1.06182 -1.16461 0
M  V30 5779 C 542.232 -0.777863 -1.86964 0
M  V30 5780 C 542.56 0.695602 -1.81636 0
M  V30 5781 O 541.815 1.52532 -1.22607 0
M  V30 5782 C 542.114 -1.21633 -3.36066 0
M  V30 5783 C 541.78 -2.69371 -3.61594 0
M  V30 5784 C 540.442 -3.09727 -3.6827 0
M  V30 5785 C 542.794 -3.64791 -3.7226 0
M  V30 5786 C 540.122 -4.44345 -3.83112 0
M  V30 5787 C 542.474 -4.99155 -3.88623 0
M  V30 5788 C 541.138 -5.39149 -3.93541 0
M  V30 5789 H 540.408 -0.28464 -0.68415 0
M  V30 5790 H 543.055 -1.33071 -1.37711 0
M  V30 5791 H 541.36 -0.582651 -3.87443 0
M  V30 5792 H 543.057 -0.973682 -3.88999 0
M  V30 5793 H 539.647 -2.37124 -3.57029 0
M  V30 5794 H 543.831 -3.34746 -3.66413 0
M  V30 5795 H 539.087 -4.74819 -3.85172 0
M  V30 5796 H 543.261 -5.72976 -3.95817 0
M  V30 5797 H 540.888 -6.43464 -4.04794 0
M  V30 5798 N 542.463 1.3308 -0.844243 0
M  V30 5799 C 543.74 1.92178 -0.364261 0
M  V30 5800 C 544.12 1.76961 1.15101 0
M  V30 5801 O 543.468 1.16128 1.9679 0
M  V30 5802 C 543.678 3.393 -0.817106 0
M  V30 5803 C 545.026 4.16444 -0.828236 0
M  V30 5804 O 546.05 3.47975 -0.761062 0
M  V30 5805 O 544.909 5.38685 -0.920926 0
M  V30 5806 H 542.003 0.820411 -0.10419 0
M  V30 5807 H 544.549 1.41918 -0.930453 0
M  V30 5808 H 543.321 3.44272 -1.85991 0
M  V30 5809 H 542.944 3.96947 -0.227785 0
M  V30 5810 N 543.941 0.601185 1.45683 0
M  V30 5811 C 545.19 0.0914953 2.01492 0
M  V30 5812 C 545.503 -1.28331 1.47616 0
M  V30 5813 O 546.709 -1.88537 1.95362 0
M  V30 5814 C 545.165 0.11291 3.59723 0
M  V30 5815 C 544.773 1.48717 4.22596 0
M  V30 5816 C 546.517 -0.341871 4.23121 0
M  V30 5817 C 544.424 1.46531 5.7296 0
M  V30 5818 H 543.354 0.0304365 0.753385 0
M  V30 5819 H 546.005 0.755568 1.67223 0
M  V30 5820 H 544.387 -0.617692 3.91153 0
M  V30 5821 H 545.561 2.23897 4.02749 0
M  V30 5822 H 543.876 1.88351 3.71366 0
M  V30 5823 H 546.473 -0.377304 5.33367 0
M  V30 5824 H 546.816 -1.36325 3.93346 0
M  V30 5825 H 547.349 0.335256 3.96385 0
M  V30 5826 H 544.088 2.46408 6.07423 0
M  V30 5827 H 543.608 0.755997 5.95017 0
M  V30 5828 H 545.287 1.18618 6.36034 0
M  V30 5829 N 545.419 -1.53889 0.339982 0
M  V30 5830 C 546.644 -2.05741 -0.261798 0
M  V30 5831 C 547.069 -1.21354 -1.43718 0
M  V30 5832 O 546.427 -0.22645 -1.7988 0
M  V30 5833 C 546.475 -3.54542 -0.658228 0
M  V30 5834 O 545.579 -3.7302 -1.75869 0
M  V30 5835 H 544.92 -0.662529 -0.0441672 0
M  V30 5836 H 547.45 -1.98568 0.493161 0
M  V30 5837 H 547.46 -3.9711 -0.936368 0
M  V30 5838 H 546.135 -4.15412 0.201358 0
M  V30 5839 H 544.712 -3.42355 -1.47809 0
M  V30 5840 N 546.897 -0.0685191 -1.57451 0
M  V30 5841 C 547.845 0.917577 -2.13736 0
M  V30 5842 C 548.839 1.31049 -1.07344 0
M  V30 5843 O 550.045 1.28811 -1.25728 0
M  V30 5844 H 546.42 0.313835 -0.683382 0
M  V30 5845 H 548.391 0.417903 -2.95459 0
M  V30 5846 C 547.14 2.17686 -2.71123 0
M  V30 5847 H 546.463 1.88336 -3.52661 0
M  V30 5848 H 547.903 2.84803 -3.14107 0
M  V30 5849 C 546.362 2.9332 -1.65726 0
M  V30 5850 O 546.892 3.86901 -1.08031 0
M  V30 5851 N 545.098 2.56367 -1.36837 0
M  V30 5852 H 544.645 1.80341 -1.83943 0
M  V30 5853 H 544.603 3.07276 -0.665501 0
M  V30 5854 N 548.375 1.56261 0.205012 0
M  V30 5855 C 549.305 1.96779 1.257 0
M  V30 5856 C 550.286 0.838309 1.48008 0
M  V30 5857 O 551.471 1.10189 1.59913 0
M  V30 5858 C 548.601 2.29876 2.60335 0
M  V30 5859 C 547.555 3.45469 2.52656 0
M  V30 5860 C 546.881 3.64215 3.91473 0
M  V30 5861 C 548.181 4.79954 2.06014 0
M  V30 5862 H 549.875 2.84904 0.920338 0
M  V30 5863 H 547.421 1.37072 0.441277 0
M  V30 5864 H 549.374 2.56814 3.34102 0
M  V30 5865 H 548.098 1.38622 2.95722 0
M  V30 5866 H 546.757 3.18605 1.81345 0
M  V30 5867 H 546.405 2.70309 4.24196 0
M  V30 5868 H 546.105 4.41973 3.87213 0
M  V30 5869 H 547.629 3.93519 4.66878 0
M  V30 5870 H 549.043 5.05989 2.69533 0
M  V30 5871 H 547.44 5.61111 2.12777 0
M  V30 5872 H 548.51 4.74201 1.01297 0
M  V30 5873 N 549.853 -0.472356 1.50355 0
M  V30 5874 C 551.13 -1.23356 1.51798 0
M  V30 5875 C 551.51 -2.09469 0.26193 0
M  V30 5876 O 550.858 -2.15677 -0.754691 0
M  V30 5877 C 551.068 -2.06568 2.81302 0
M  V30 5878 C 552.416 -2.648 3.31913 0
M  V30 5879 O 553.44 -2.16812 2.82614 0
M  V30 5880 O 552.299 -3.52231 4.17846 0
M  V30 5881 H 549.393 -0.559707 0.608816 0
M  V30 5882 H 551.939 -0.48428 1.62643 0
M  V30 5883 H 550.711 -1.43103 3.64194 0
M  V30 5884 H 550.334 -2.88633 2.73454 0
M  V30 5885 N 551.331 -1.39911 -0.725443 0
M  V30 5886 C 552.747 -1.21725 -1.03224 0
M  V30 5887 C 552.947 -0.0855224 -2.01318 0
M  V30 5888 O 552.003 0.55976 -2.46217 0
M  V30 5889 C 553.316 -2.55511 -1.58539 0
M  V30 5890 C 554.864 -2.62439 -1.70572 0
M  V30 5891 C 555.339 -3.9647 -2.29294 0
M  V30 5892 N 556.83 -3.98159 -2.36692 0
M  V30 5893 C 557.565 -4.98647 -2.83088 0
M  V30 5894 N 557.061 -6.0953 -3.2931 0
M  V30 5895 N 558.854 -4.8602 -2.82384 0
M  V30 5896 H 551.005 -2.12267 -0.075048 0
M  V30 5897 H 553.268 -0.943136 -0.0959066 0
M  V30 5898 H 552.974 -3.38926 -0.939249 0
M  V30 5899 H 552.848 -2.75905 -2.57208 0
M  V30 5900 H 555.235 -1.79401 -2.34306 0
M  V30 5901 H 555.316 -2.45885 -0.705297 0
M  V30 5902 H 554.96 -4.79942 -1.66186 0
M  V30 5903 H 554.89 -4.10349 -3.30032 0
M  V30 5904 H 557.381 -3.18085 -2.04035 0
M  V30 5905 H 557.694 -6.82106 -3.6325 0
M  V30 5906 H 556.039 -6.1311 -3.27294 0
M  V30 5907 H 559.23 -3.98493 -2.45603 0
M  V30 5908 H 559.403 -5.64478 -3.18226 0
M  V30 5909 N 552.809 0.956637 -1.25245 0
M  V30 5910 C 553.739 2.07058 -1.07931 0
M  V30 5911 C 554.72 1.70096 0.0110361 0
M  V30 5912 O 555.905 1.93555 -0.158121 0
M  V30 5913 C 553.035 3.40272 -0.695124 0
M  V30 5914 C 551.989 3.91235 -1.73549 0
M  V30 5915 C 551.315 5.20921 -1.20604 0
M  V30 5916 C 552.615 4.17837 -3.13385 0
M  V30 5917 H 554.309 2.218 -2.01109 0
M  V30 5918 H 551.855 1.06581 -0.968326 0
M  V30 5919 H 553.808 4.1765 -0.560949 0
M  V30 5920 H 552.532 3.25462 0.272355 0
M  V30 5921 H 551.191 3.16025 -1.85807 0
M  V30 5922 H 550.839 5.02479 -0.228846 0
M  V30 5923 H 550.539 5.55987 -1.90136 0
M  V30 5924 H 552.063 6.00897 -1.08421 0
M  V30 5925 H 553.477 4.8588 -3.04292 0
M  V30 5926 H 551.874 4.64154 -3.80369 0
M  V30 5927 H 552.944 3.2419 -3.60595 0
M  V30 5928 N 554.287 1.06798 1.15896 0
M  V30 5929 C 555.535 0.786211 1.8618 0
M  V30 5930 C 555.856 -0.689547 1.82401 0
M  V30 5931 O 555.126 -1.49913 1.26107 0
M  V30 5932 H 553.706 0.287843 0.689315 0
M  V30 5933 H 556.368 1.35055 1.40521 0
M  V30 5934 H 555.464 1.1157 2.91477 0
M  V30 5935 N 555.766 -1.3263 0.851289 0
M  V30 5936 C 556.713 -2.28952 0.291469 0
M  V30 5937 C 557.683 -1.54897 -0.599676 0
M  V30 5938 O 558.868 -1.83137 -0.535305 0
M  V30 5939 C 556.008 -3.41206 -0.516992 0
M  V30 5940 C 555.121 -4.30148 0.399566 0
M  V30 5941 C 554.256 -5.29527 -0.4212 0
M  V30 5942 C 553.295 -6.10112 0.492969 0
M  V30 5943 N 552.432 -7.01499 -0.290414 0
M  V30 5944 H 557.272 -2.76228 1.11813 0
M  V30 5945 H 554.809 -1.35907 0.562826 0
M  V30 5946 H 556.767 -4.05005 -1.00132 0
M  V30 5947 H 555.397 -2.9509 -1.30851 0
M  V30 5948 H 554.449 -3.66959 1.00227 0
M  V30 5949 H 555.761 -4.8649 1.1013 0
M  V30 5950 H 554.915 -5.98914 -0.968832 0
M  V30 5951 H 553.654 -4.73794 -1.15632 0
M  V30 5952 H 552.659 -5.39632 1.05251 0
M  V30 5953 H 553.884 -6.6793 1.22664 0
M  V30 5954 H 551.83 -6.48199 -1.00868 0
M  V30 5955 H 551.747 -7.55178 0.352354 0
M  V30 5956 H 553.015 -7.75176 -0.819882 0
M  V30 5957 N 557.244 -0.608902 -1.45362 0
M  V30 5958 C 558.469 -0.10921 -2.07112 0
M  V30 5959 C 558.894 1.19779 -1.45033 0
M  V30 5960 O 558.252 1.72961 -0.543527 0
M  V30 5961 C 558.3 0.0155745 -3.60597 0
M  V30 5962 O 557.404 1.06546 -3.98399 0
M  V30 5963 H 556.745 -0.0746619 -0.659789 0
M  V30 5964 H 559.275 -0.839283 -1.86594 0
M  V30 5965 H 559.285 0.213364 -4.07442 0
M  V30 5966 H 557.96 -0.938765 -4.05167 0
M  V30 5967 H 556.537 0.844024 -3.63223 0
M  V30 5968 N 558.722 1.53707 -0.348139 0
M  V30 5969 C 559.632 2.28881 0.514857 0
M  V30 5970 C 560.648 1.34168 1.10793 0
M  V30 5971 O 561.824 1.6721 1.12262 0
M  V30 5972 C 558.889 3.05042 1.64774 0
M  V30 5973 C 557.95 4.15389 1.08398 0
M  V30 5974 C 557.183 4.87909 2.16287 0
M  V30 5975 O 557.406 4.60137 3.3709 0
M  V30 5976 O 556.34 5.74254 1.80323 0
M  V30 5977 H 560.166 3.03547 -0.0963699 0
M  V30 5978 H 557.751 1.48972 -0.113043 0
M  V30 5979 H 559.633 3.52656 2.30677 0
M  V30 5980 H 558.308 2.33228 2.24469 0
M  V30 5981 H 557.215 3.72068 0.389341 0
M  V30 5982 H 558.548 4.89318 0.531829 0
M  V30 5983 N 560.2 0.0768682 1.57412 0
M  V30 5984 C 561.446 -0.591961 1.93968 0
M  V30 5985 C 561.779 -1.68954 0.9575 0
M  V30 5986 O 561.054 -1.94496 -0.0124675 0
M  V30 5987 C 561.337 -1.16418 3.40762 0
M  V30 5988 C 561.19 -0.0728933 4.49741 0
M  V30 5989 C 562.509 -2.06814 3.88479 0
M  V30 5990 H 559.628 -0.213716 0.705333 0
M  V30 5991 H 562.27 0.14387 1.89455 0
M  V30 5992 H 560.42 -1.79128 3.4474 0
M  V30 5993 H 562.092 0.560446 4.57883 0
M  V30 5994 H 560.335 0.595859 4.29688 0
M  V30 5995 H 561.006 -0.513755 5.49604 0
M  V30 5996 H 563.482 -1.54033 3.8654 0
M  V30 5997 H 562.358 -2.43785 4.91793 0
M  V30 5998 H 562.619 -2.97844 3.26713 0
M  V30 5999 N 561.678 -1.56367 -0.196722 0
M  V30 6000 C 562.588 -1.97617 -1.2643 0
M  V30 6001 C 563.604 -0.883598 -1.49895 0
M  V30 6002 O 564.78 -1.18921 -1.62541 0
M  V30 6003 C 561.845 -2.30595 -2.58895 0
M  V30 6004 C 560.906 -3.53551 -2.43516 0
M  V30 6005 C 560.139 -3.84946 -3.69665 0
M  V30 6006 O 560.362 -3.17655 -4.73763 0
M  V30 6007 O 559.296 -4.78379 -3.65291 0
M  V30 6008 H 563.122 -2.88648 -0.944233 0
M  V30 6009 H 560.707 -1.43901 -0.401592 0
M  V30 6010 H 562.589 -2.52889 -3.37083 0
M  V30 6011 H 561.264 -1.42732 -2.90533 0
M  V30 6012 H 560.171 -3.36507 -1.63445 0
M  V30 6013 H 561.504 -4.41875 -2.16812 0
M  V30 6014 N 563.156 0.464375 -1.50603 0
M  V30 6015 C 564.086 1.56944 -1.72889 0
M  V30 6016 C 565.067 1.59979 -0.577997 0
M  V30 6017 O 566.252 1.76138 -0.817855 0
M  V30 6018 C 563.382 2.95225 -1.8292 0
M  V30 6019 C 562.336 3.07056 -2.98162 0
M  V30 6020 C 561.662 4.47051 -2.93343 0
M  V30 6021 C 562.962 2.83648 -4.38567 0
M  V30 6022 H 564.656 1.38547 -2.65415 0
M  V30 6023 H 562.202 0.665082 -1.27721 0
M  V30 6024 H 564.155 3.72467 -1.97095 0
M  V30 6025 H 562.879 3.14793 -0.870209 0
M  V30 6026 H 561.538 2.32248 -2.83648 0
M  V30 6027 H 561.186 4.63547 -1.95276 0
M  V30 6028 H 560.886 4.55902 -3.70712 0
M  V30 6029 H 562.41 5.26304 -3.09575 0
M  V30 6030 H 563.824 3.50636 -4.53572 0
M  V30 6031 H 562.221 3.03937 -5.17438 0
M  V30 6032 H 563.291 1.79451 -4.50472 0
M  V30 6033 N 564.634 1.40294 0.718013 0
M  V30 6034 C 565.88 1.38645 1.48005 0
M  V30 6035 C 566.213 -0.0121202 1.94196 0
M  V30 6036 O 565.488 -0.980309 1.67989 0
M  V30 6037 C 565.771 2.37379 2.70782 0
M  V30 6038 C 565.624 3.8625 2.30501 0
M  V30 6039 C 566.943 2.33685 3.72933 0
M  V30 6040 H 564.062 0.504928 0.536858 0
M  V30 6041 H 566.704 1.71411 0.819649 0
M  V30 6042 H 564.854 2.09568 3.27129 0
M  V30 6043 H 566.526 4.24879 1.79655 0
M  V30 6044 H 564.769 4.02202 1.6253 0
M  V30 6045 H 565.44 4.50847 3.18498 0
M  V30 6046 H 567.916 2.58314 3.2621 0
M  V30 6047 H 566.792 3.0482 4.56482 0
M  V30 6048 H 567.053 1.34765 4.21059 0
M  V30 6049 N 566.112 -0.949982 1.2575 0
M  V30 6050 C 567.044 -2.05088 1.02331 0
M  V30 6051 C 568.057 -1.62795 -0.0133247 0
M  V30 6052 O 569.246 -1.77067 0.225759 0
M  V30 6053 C 566.346 -3.34794 0.525924 0
M  V30 6054 C 565.519 -4.05903 1.62978 0
M  V30 6055 C 564.578 -5.1388 1.13196 0
M  V30 6056 O 563.604 -5.39072 1.82729 0
M  V30 6057 N 564.806 -5.80495 -0.0242926 0
M  V30 6058 H 567.571 -2.25747 1.97125 0
M  V30 6059 H 565.132 -1.11886 1.17018 0
M  V30 6060 H 567.124 -4.04312 0.177263 0
M  V30 6061 H 565.694 -3.10872 -0.328202 0
M  V30 6062 H 564.914 -3.3042 2.1498 0
M  V30 6063 H 566.202 -4.50166 2.37124 0
M  V30 6064 H 565.6 -5.62454 -0.605184 0
M  V30 6065 H 564.157 -6.51043 -0.313947 0
M  V30 6066 N 567.59 -1.07411 -1.15328 0
M  V30 6067 C 568.52 -0.716472 -2.22236 0
M  V30 6068 C 569.501 0.296373 -1.67498 0
M  V30 6069 O 570.686 0.168989 -1.93463 0
M  V30 6070 C 567.816 -0.114142 -3.47112 0
M  V30 6071 C 566.77 -1.05421 -4.14814 0
M  V30 6072 C 566.096 -0.314604 -5.33774 0
M  V30 6073 C 567.396 -2.38808 -4.64508 0
M  V30 6074 H 569.09 -1.61029 -2.52408 0
M  V30 6075 H 566.636 -0.775702 -1.21321 0
M  V30 6076 H 568.589 0.148001 -4.2114 0
M  V30 6077 H 567.313 0.814755 -3.16274 0
M  V30 6078 H 565.972 -1.30128 -3.42728 0
M  V30 6079 H 565.62 0.617772 -4.99192 0
M  V30 6080 H 565.32 -0.941209 -5.80013 0
M  V30 6081 H 566.844 -0.0602747 -6.1057 0
M  V30 6082 H 568.258 -2.18424 -5.3006 0
M  V30 6083 H 566.655 -2.97069 -5.21412 0
M  V30 6084 H 567.725 -3.01067 -3.80114 0
M  V30 6085 N 569.068 1.32177 -0.85831 0
M  V30 6086 C 570.314 1.97417 -0.46417 0
M  V30 6087 C 570.647 1.67746 0.978514 0
M  V30 6088 O 569.922 0.967654 1.68721 0
M  V30 6089 C 570.205 3.53069 -0.708094 0
M  V30 6090 C 570.058 3.92357 -2.19946 0
M  V30 6091 C 571.377 4.39783 -0.166881 0
M  V30 6092 H 568.496 0.717097 -0.17012 0
M  V30 6093 H 571.138 1.56499 -1.07741 0
M  V30 6094 H 569.288 3.88054 -0.186128 0
M  V30 6095 H 570.96 3.67533 -2.78779 0
M  V30 6096 H 569.203 3.41384 -2.67656 0
M  V30 6097 H 569.874 5.00841 -2.32082 0
M  V30 6098 H 572.35 4.11556 -0.613285 0
M  V30 6099 H 571.226 5.47671 -0.367093 0
M  V30 6100 H 571.487 4.32196 0.930559 0
M  V30 6101 N 570.547 0.616602 1.45037 0
M  V30 6102 C 571.796 0.112861 2.01384 0
M  V30 6103 C 572.109 -1.26758 1.48969 0
M  V30 6104 O 573.315 -1.86454 1.9735 0
M  V30 6105 C 571.771 0.151057 3.59583 0
M  V30 6106 C 571.379 1.53191 4.20995 0
M  V30 6107 C 573.123 -0.296974 4.2346 0
M  V30 6108 C 571.03 1.526 5.71373 0
M  V30 6109 H 569.96 0.0384254 0.75302 0
M  V30 6110 H 572.611 0.773262 1.66412 0
M  V30 6111 H 570.993 -0.57617 3.91786 0
M  V30 6112 H 572.167 2.28156 4.00352 0
M  V30 6113 H 570.482 1.92279 3.69348 0
M  V30 6114 H 573.079 -0.320712 5.33737 0
M  V30 6115 H 573.422 -1.32145 3.9477 0
M  V30 6116 H 573.955 0.377279 3.96007 0
M  V30 6117 H 570.694 2.52837 6.04776 0
M  V30 6118 H 570.214 0.819064 5.94181 0
M  V30 6119 H 571.893 1.25357 6.3474 0
M  V30 6120 N 572.025 -1.5352 0.356285 0
M  V30 6121 C 573.302 -1.93405 -0.292223 0
M  V30 6122 C 573.682 -1.28901 -1.67176 0
M  V30 6123 O 573.03 -0.444632 -2.24132 0
M  V30 6124 C 573.24 -3.47223 -0.35175 0
M  V30 6125 C 574.588 -4.20389 -0.596534 0
M  V30 6126 O 575.612 -3.53554 -0.433344 0
M  V30 6127 O 574.471 -5.3881 -0.913589 0
M  V30 6128 H 571.565 -0.808666 -0.173172 0
M  V30 6129 H 574.111 -1.64713 0.408391 0
M  V30 6130 H 572.883 -3.86423 0.615841 0
M  V30 6131 H 572.506 -3.8212 -1.09864 0
M  V30 6132 N 573.503 -0.0852151 -1.57369 0
M  V30 6133 C 574.751 0.579658 -1.93609 0
M  V30 6134 C 575.072 1.69332 -0.967043 0
M  V30 6135 O 574.342 1.95892 -0.0174215 0
M  V30 6136 H 572.922 0.217113 -0.714752 0
M  V30 6137 H 575.584 -0.146226 -1.94351 0
M  V30 6138 H 574.68 0.996276 -2.95771 0
M  V30 6139 N 574.981 1.5647 0.188427 0
M  V30 6140 C 576.227 1.81281 0.909124 0
M  V30 6141 C 576.56 0.66034 1.82628 0
M  V30 6142 O 575.835 -0.338737 1.91528 0
M  V30 6143 C 576.118 3.16388 1.7196 0
M  V30 6144 C 575.971 4.42137 0.826714 0
M  V30 6145 C 577.29 3.48256 2.69083 0
M  V30 6146 H 574.409 0.659457 0.329068 0
M  V30 6147 H 577.051 1.89182 0.176156 0
M  V30 6148 H 575.201 3.09784 2.34448 0
M  V30 6149 H 576.873 4.60794 0.216025 0
M  V30 6150 H 575.116 4.33594 0.133792 0
M  V30 6151 H 575.787 5.33184 1.42893 0
M  V30 6152 H 578.263 3.55203 2.16726 0
M  V30 6153 H 577.139 4.43899 3.2287 0
M  V30 6154 H 577.4 2.72088 3.48455 0
M  V30 6155 N 576.459 -0.456382 1.50847 0
M  V30 6156 C 577.407 -1.57318 1.71329 0
M  V30 6157 C 578.401 -1.59187 0.579287 0
M  V30 6158 O 579.607 -1.6316 0.76018 0
M  V30 6159 H 575.982 -0.5223 0.541024 0
M  V30 6160 H 577.953 -1.3721 2.64983 0
M  V30 6161 C 576.702 -2.95142 1.83811 0
M  V30 6162 H 576.025 -2.94428 2.70467 0
M  V30 6163 H 577.465 -3.72702 2.02161 0
M  V30 6164 C 575.924 -3.31636 0.593224 0
M  V30 6165 O 576.454 -4.00852 -0.260898 0
M  V30 6166 N 574.66 -2.87205 0.442902 0
M  V30 6167 H 574.207 -2.31051 1.13901 0
M  V30 6168 H 574.165 -3.11986 -0.38884 0
M  V30 6169 N 577.937 -1.40673 -0.710563 0
M  V30 6170 C 579.167 -1.4234 -1.49742 0
M  V30 6171 C 579.575 -0.022821 -1.89186 0
M  V30 6172 O 578.918 0.964773 -1.56326 0
M  V30 6173 C 578.98 -2.25509 -2.79975 0
M  V30 6174 C 578.644 -3.73862 -2.62824 0
M  V30 6175 C 579.641 -4.66379 -2.29752 0
M  V30 6176 C 577.326 -4.17735 -2.78932 0
M  V30 6177 C 579.32 -6.00756 -2.13006 0
M  V30 6178 C 577.007 -5.5218 -2.61802 0
M  V30 6179 C 578.005 -6.43505 -2.28888 0
M  V30 6180 O 577.693 -7.75472 -2.11894 0
M  V30 6181 H 577.425 -0.487311 -0.468513 0
M  V30 6182 H 579.979 -1.8542 -0.883668 0
M  V30 6183 H 578.209 -1.77218 -3.43701 0
M  V30 6184 H 579.898 -2.19058 -3.41714 0
M  V30 6185 H 580.664 -4.33778 -2.16936 0
M  V30 6186 H 576.543 -3.46967 -3.03537 0
M  V30 6187 H 580.087 -6.72003 -1.87237 0
M  V30 6188 H 575.984 -5.84365 -2.74204 0
M  V30 6189 H 576.752 -7.86458 -2.26775 0
M  V30 6190 N 579.415 0.9433 -1.26252 0
M  V30 6191 C 580.345 2.05902 -1.10122 0
M  V30 6192 C 581.326 1.70099 -0.00700552 0
M  V30 6193 O 582.511 1.93377 -0.178641 0
M  V30 6194 C 579.641 3.39516 -0.731175 0
M  V30 6195 C 578.595 3.89372 -1.77688 0
M  V30 6196 C 577.921 5.19613 -1.26122 0
M  V30 6197 C 579.221 4.14489 -3.17799 0
M  V30 6198 H 580.915 2.19655 -2.03451 0
M  V30 6199 H 578.461 1.05548 -0.979576 0
M  V30 6200 H 580.414 4.17031 -0.605215 0
M  V30 6201 H 579.138 3.25733 0.23782 0
M  V30 6202 H 577.797 3.14036 -1.89148 0
M  V30 6203 H 577.445 5.02208 -0.282128 0
M  V30 6204 H 577.145 5.53939 -1.96023 0
M  V30 6205 H 578.669 5.99713 -1.14789 0
M  V30 6206 H 580.083 4.82625 -3.09428 0
M  V30 6207 H 578.48 4.60094 -3.85271 0
M  V30 6208 H 579.55 3.20347 -3.64014 0
M  V30 6209 N 580.893 1.08022 1.14757 0
M  V30 6210 C 582.142 0.802468 1.8505 0
M  V30 6211 C 582.455 -0.674061 1.83619 0
M  V30 6212 O 583.661 -1.06683 2.49662 0
M  V30 6213 C 582.117 1.38551 3.32162 0
M  V30 6214 C 581.725 2.89354 3.42021 0
M  V30 6215 C 583.469 1.18608 4.07594 0
M  V30 6216 C 581.376 3.40815 4.83321 0
M  V30 6217 H 580.306 0.296518 0.693248 0
M  V30 6218 H 582.957 1.30114 1.29393 0
M  V30 6219 H 581.339 0.814556 3.87532 0
M  V30 6220 H 582.513 3.52552 2.96722 0
M  V30 6221 H 580.828 3.08165 2.80041 0
M  V30 6222 H 583.425 1.54525 5.11885 0
M  V30 6223 H 583.768 0.125599 4.1611 0
M  V30 6224 H 584.301 1.72375 3.58513 0
M  V30 6225 H 581.04 4.46418 4.79991 0
M  V30 6226 H 580.56 2.82374 5.29174 0
M  V30 6227 H 582.239 3.37171 5.522 0
M  V30 6228 N 582.371 -1.3172 0.865308 0
M  V30 6229 C 583.648 -1.91574 0.394789 0
M  V30 6230 C 584.028 -1.78769 -1.12271 0
M  V30 6231 O 583.376 -1.19245 -1.94918 0
M  V30 6232 C 583.586 -3.37957 0.870982 0
M  V30 6233 C 584.934 -4.15073 0.894384 0
M  V30 6234 O 585.958 -3.4672 0.816325 0
M  V30 6235 O 584.817 -5.37151 1.00651 0
M  V30 6236 H 581.911 -0.818649 0.117229 0
M  V30 6237 H 584.457 -1.4042 0.952913 0
M  V30 6238 H 583.229 -3.41269 1.91444 0
M  V30 6239 H 582.852 -3.96534 0.290907 0
M  V30 6240 N 583.85 -0.624285 -1.44708 0
M  V30 6241 C 585.09 -0.129273 -2.03991 0
M  V30 6242 C 585.454 1.22321 -1.47992 0
M  V30 6243 O 586.654 1.80993 -1.98734 0
M  V30 6244 C 584.926 -0.108231 -3.57236 0
M  V30 6245 S 586.485 0.323158 -4.37608 0
M  V30 6246 H 583.303 -0.0577318 -0.708652 0
M  V30 6247 H 585.904 -0.826139 -1.77187 0
M  V30 6248 H 584.609 -1.0958 -3.955 0
M  V30 6249 H 584.139 0.610101 -3.8864 0
M  V30 6250 H 586.154 1.56894 -4.70743 0
M  V30 6251 N 585.328 1.53329 -0.364422 0
M  V30 6252 C 586.238 2.29414 0.490552 0
M  V30 6253 C 587.254 1.35335 1.09363 0
M  V30 6254 O 588.43 1.68391 1.10483 0
M  V30 6255 C 585.495 3.06772 1.61529 0
M  V30 6256 C 584.556 4.16516 1.03986 0
M  V30 6257 C 583.789 4.90176 2.111 0
M  V30 6258 O 584.012 4.63687 3.32191 0
M  V30 6259 O 582.946 5.76134 1.74222 0
M  V30 6260 H 586.772 3.03428 -0.12856 0
M  V30 6261 H 584.357 1.48843 -0.128837 0
M  V30 6262 H 586.239 3.55082 2.26924 0
M  V30 6263 H 584.914 2.35596 2.21983 0
M  V30 6264 H 583.821 3.7246 0.349856 0
M  V30 6265 H 585.154 4.89855 0.4799 0
M  V30 6266 N 586.806 0.0935595 1.57322 0
M  V30 6267 C 588.222 -0.263091 1.57417 0
M  V30 6268 C 588.422 -1.68526 1.1046 0
M  V30 6269 O 587.478 -2.40139 0.780357 0
M  V30 6270 C 588.791 -0.0529201 3.00653 0
M  V30 6271 C 590.339 -0.120788 3.12767 0
M  V30 6272 C 590.814 0.0613707 4.57959 0
M  V30 6273 N 592.305 0.00648534 4.632 0
M  V30 6274 C 593.04 0.122699 5.73269 0
M  V30 6275 N 592.536 0.29366 6.92177 0
M  V30 6276 N 594.329 0.0640787 5.62063 0
M  V30 6277 H 586.48 1.02277 1.86154 0
M  V30 6278 H 588.743 0.4007 0.859153 0
M  V30 6279 H 588.449 0.929279 3.39201 0
M  V30 6280 H 588.323 -0.795899 3.68708 0
M  V30 6281 H 590.71 -1.09349 2.74093 0
M  V30 6282 H 590.791 0.653656 2.47307 0
M  V30 6283 H 590.435 1.03093 4.97327 0
M  V30 6284 H 590.365 -0.732748 5.21477 0
M  V30 6285 H 592.856 -0.123173 3.77699 0
M  V30 6286 H 593.169 0.37389 7.71895 0
M  V30 6287 H 591.514 0.329307 6.94219 0
M  V30 6288 H 594.705 -0.0683396 4.6805 0
M  V30 6289 H 594.878 0.158097 6.47807 0
M  V30 6290 N 588.284 -1.56567 -0.180126 0
M  V30 6291 C 589.7 -1.50488 -0.531559 0
M  V30 6292 C 589.9 -0.796267 -1.851 0
M  V30 6293 O 588.956 -0.352978 -2.50021 0
M  V30 6294 C 590.269 -2.95201 -0.572456 0
M  V30 6295 C 591.817 -3.05957 -0.660264 0
M  V30 6296 C 592.292 -4.5211 -0.732135 0
M  V30 6297 N 593.783 -4.56322 -0.795262 0
M  V30 6298 C 594.518 -5.66742 -0.871296 0
M  V30 6299 N 594.014 -6.86815 -0.908708 0
M  V30 6300 N 595.807 -5.54691 -0.909639 0
M  V30 6301 H 587.958 -2.01045 0.685165 0
M  V30 6302 H 590.221 -0.915536 0.245962 0
M  V30 6303 H 589.927 -3.50165 0.328208 0
M  V30 6304 H 589.801 -3.49369 -1.422 0
M  V30 6305 H 592.188 -2.51032 -1.55136 0
M  V30 6306 H 592.269 -2.54888 0.215783 0
M  V30 6307 H 591.913 -5.07664 0.154664 0
M  V30 6308 H 591.843 -5.00926 -1.6242 0
M  V30 6309 H 594.334 -3.69868 -0.77499 0
M  V30 6310 H 594.647 -7.66718 -0.967654 0
M  V30 6311 H 592.992 -6.89443 -0.877132 0
M  V30 6312 H 596.183 -4.59804 -0.877353 0
M  V30 6313 H 596.356 -6.40768 -0.965434 0
M  V30 6314 N 589.762 0.448376 -1.51087 0
M  V30 6315 C 590.692 1.55102 -1.74544 0
M  V30 6316 C 591.673 1.59357 -0.594932 0
M  V30 6317 O 592.858 1.75261 -0.836491 0
M  V30 6318 C 589.988 2.93268 -1.86041 0
M  V30 6319 C 588.942 3.03877 -3.01402 0
M  V30 6320 C 588.268 4.43914 -2.98068 0
M  V30 6321 C 589.568 2.7898 -4.41551 0
M  V30 6322 H 591.262 1.35724 -2.66869 0
M  V30 6323 H 588.808 0.651498 -1.28419 0
M  V30 6324 H 590.761 3.70356 -2.01034 0
M  V30 6325 H 589.485 3.13853 -0.903548 0
M  V30 6326 H 588.144 2.29227 -2.86096 0
M  V30 6327 H 587.792 4.6145 -2.00182 0
M  V30 6328 H 587.492 4.51944 -3.75527 0
M  V30 6329 H 589.016 5.22991 -3.1514 0
M  V30 6330 H 590.43 3.45805 -4.57265 0
M  V30 6331 H 588.827 2.98431 -5.20633 0
M  V30 6332 H 589.897 1.74663 -4.5235 0
M  V30 6333 N 591.24 1.41047 0.703093 0
M  V30 6334 C 592.15 1.44645 1.84703 0
M  V30 6335 C 593.166 0.337778 1.7069 0
M  V30 6336 O 594.342 0.584327 1.92737 0
M  V30 6337 C 591.407 1.31928 3.20618 0
M  V30 6338 C 590.468 2.53047 3.46794 0
M  V30 6339 C 589.701 2.40927 4.76224 0
M  V30 6340 O 589.924 1.42978 5.5219 0
M  V30 6341 O 588.858 3.30543 5.03016 0
M  V30 6342 H 592.684 2.41139 1.84624 0
M  V30 6343 H 590.269 1.22504 0.855167 0
M  V30 6344 H 592.151 1.27092 4.01778 0
M  V30 6345 H 590.826 0.385469 3.21397 0
M  V30 6346 H 589.733 2.6346 2.65593 0
M  V30 6347 H 591.066 3.45231 3.50822 0
M  V30 6348 N 592.718 -0.936591 1.26751 0
M  V30 6349 C 594.134 -1.21095 1.03963 0
M  V30 6350 C 594.334 -2.00156 -0.232372 0
M  V30 6351 O 593.39 -2.3434 -0.940274 0
M  V30 6352 C 594.703 -1.96775 2.27377 0
M  V30 6353 C 596.251 -2.09749 2.32324 0
M  V30 6354 C 596.726 -2.88832 3.55443 0
M  V30 6355 N 598.217 -2.96404 3.55948 0
M  V30 6356 C 598.952 -3.58036 4.47881 0
M  V30 6357 N 598.448 -4.21132 5.50109 0
M  V30 6358 N 600.241 -3.55353 4.35523 0
M  V30 6359 H 592.392 -0.408173 2.08441 0
M  V30 6360 H 594.655 -0.243139 0.91629 0
M  V30 6361 H 594.361 -1.46094 3.19921 0
M  V30 6362 H 594.235 -2.97424 2.31989 0
M  V30 6363 H 596.622 -2.5962 1.40291 0
M  V30 6364 H 596.703 -1.08347 2.31721 0
M  V30 6365 H 596.347 -2.39647 4.47808 0
M  V30 6366 H 596.277 -3.90499 3.53296 0
M  V30 6367 H 598.768 -2.51552 2.82011 0
M  V30 6368 H 599.081 -4.66071 6.16439 0
M  V30 6369 H 597.426 -4.19705 5.53961 0
M  V30 6370 H 600.617 -3.05256 3.54875 0
M  V30 6371 H 600.79 -4.03097 5.07363 0
M  V30 6372 N 594.196 -1.08629 -1.14182 0
M  V30 6373 C 595.444 -0.815731 -1.84906 0
M  V30 6374 C 595.765 0.660441 -1.83475 0
M  V30 6375 O 595.035 1.47888 -1.28476 0
M  V30 6376 H 593.615 -0.298773 -0.684648 0
M  V30 6377 H 596.277 -1.37274 -1.38354 0
M  V30 6378 H 595.373 -1.16193 -2.89665 0
M  V30 6379 N 595.674 1.31259 -0.872281 0
M  V30 6380 C 596.606 2.27396 -0.28697 0
M  V30 6381 C 597.619 1.53181 0.551297 0
M  V30 6382 O 598.808 1.74561 0.372914 0
M  V30 6383 C 595.908 3.33335 0.611617 0
M  V30 6384 C 595.081 4.36966 -0.194729 0
M  V30 6385 C 594.14 5.22387 0.632358 0
M  V30 6386 O 593.166 5.69169 0.0595691 0
M  V30 6387 N 594.368 5.46985 1.94391 0
M  V30 6388 H 597.133 2.78261 -1.11314 0
M  V30 6389 H 594.694 1.44306 -0.733994 0
M  V30 6390 H 596.686 3.87398 1.17068 0
M  V30 6391 H 595.256 2.82496 1.33846 0
M  V30 6392 H 594.476 3.82945 -0.935241 0
M  V30 6393 H 595.764 5.03273 -0.747935 0
M  V30 6394 H 595.162 5.10737 2.43237 0
M  V30 6395 H 593.719 6.03973 2.45071 0
M  V30 6396 N 597.152 0.631951 1.44375 0
M  V30 6397 C 598.429 0.067646 1.95483 0
M  V30 6398 C 598.809 -1.40683 1.57389 0
M  V30 6399 O 598.157 -2.12167 0.848375 0
M  V30 6400 C 598.367 0.291392 3.47781 0
M  V30 6401 C 599.715 0.185028 4.24197 0
M  V30 6402 O 600.739 0.222803 3.55503 0
M  V30 6403 O 599.598 0.0906642 5.46425 0
M  V30 6404 H 596.692 -0.0218379 0.826712 0
M  V30 6405 H 599.238 0.703711 1.54421 0
M  V30 6406 H 598.01 1.31449 3.68561 0
M  V30 6407 H 597.633 -0.378772 3.95792 0
M  V30 6408 N 598.631 -1.53133 0.372548 0
M  V30 6409 C 599.88 -2.00539 -0.216115 0
M  V30 6410 C 600.193 -1.26374 -1.49295 0
M  V30 6411 O 601.399 -1.64404 -2.16064 0
M  V30 6412 C 599.855 -3.57253 -0.435678 0
M  V30 6413 C 599.463 -4.40302 0.82693 0
M  V30 6414 C 601.207 -4.12995 -0.981618 0
M  V30 6415 C 599.114 -5.88583 0.576567 0
M  V30 6416 H 598.044 -0.749246 -0.084536 0
M  V30 6417 H 600.695 -1.76771 0.492364 0
M  V30 6418 H 599.077 -3.77202 -1.20559 0
M  V30 6419 H 600.251 -4.32124 1.60017 0
M  V30 6420 H 598.566 -3.95699 1.29659 0
M  V30 6421 H 601.163 -5.21418 -1.18436 0
M  V30 6422 H 601.506 -3.68027 -1.94581 0
M  V30 6423 H 602.039 -3.96871 -0.271696 0
M  V30 6424 H 598.778 -6.37841 1.51128 0
M  V30 6425 H 598.298 -5.99592 -0.158047 0
M  V30 6426 H 599.977 -6.46676 0.204722 0
M  V30 6427 N 600.109 -0.101901 -1.5727 0
M  V30 6428 C 601.525 0.254739 -1.57554 0
M  V30 6429 C 601.725 1.67937 -1.11352 0
M  V30 6430 O 600.781 2.39722 -0.793081 0
M  V30 6431 C 602.094 0.036975 -3.00677 0
M  V30 6432 C 603.642 0.104199 -3.12827 0
M  V30 6433 C 604.117 -0.0856565 -4.5792 0
M  V30 6434 N 605.608 -0.0310498 -4.6319 0
M  V30 6435 C 606.343 -0.153099 -5.73196 0
M  V30 6436 N 605.839 -0.330364 -6.92012 0
M  V30 6437 N 607.632 -0.0938854 -5.62022 0
M  V30 6438 H 599.783 -1.03263 -1.85609 0
M  V30 6439 H 602.046 -0.405251 -0.857016 0
M  V30 6440 H 601.752 -0.947254 -3.38703 0
M  V30 6441 H 601.626 0.776335 -3.69124 0
M  V30 6442 H 604.013 1.07894 -2.74669 0
M  V30 6443 H 604.094 -0.666762 -2.46957 0
M  V30 6444 H 603.738 -1.05729 -4.96773 0
M  V30 6445 H 603.668 0.705082 -5.21858 0
M  V30 6446 H 606.159 0.103141 -3.77759 0
M  V30 6447 H 606.472 -0.41482 -7.71686 0
M  V30 6448 H 604.817 -0.366119 -6.94035 0
M  V30 6449 H 608.008 0.0435168 -4.6808 0
M  V30 6450 H 608.181 -0.19245 -6.47714 0
M  V30 6451 N 601.587 1.56661 0.17182 0
M  V30 6452 C 602.836 1.81158 0.886831 0
M  V30 6453 C 603.149 0.679072 1.83434 0
M  V30 6454 O 604.355 0.808964 2.59168 0
M  V30 6455 C 602.811 3.20999 1.6275 0
M  V30 6456 C 602.419 4.42117 0.723652 0
M  V30 6457 C 604.163 3.5479 2.33076 0
M  V30 6458 C 602.07 5.7298 1.46452 0
M  V30 6459 H 601 0.675543 0.334899 0
M  V30 6460 H 603.651 1.82967 0.139765 0
M  V30 6461 H 602.033 3.13506 2.4193 0
M  V30 6462 H 603.207 4.60789 -0.0311485 0
M  V30 6463 H 601.522 4.16197 0.130063 0
M  V30 6464 H 604.119 4.49806 2.89099 0
M  V30 6465 H 604.462 2.79646 3.08389 0
M  V30 6466 H 604.995 3.63834 1.6084 0
M  V30 6467 H 601.734 6.51152 0.753729 0
M  V30 6468 H 601.254 5.58285 2.19266 0
M  V30 6469 H 602.933 6.14916 2.01214 0
M  V30 6470 N 603.065 -0.440357 1.51323 0
M  V30 6471 C 604.476 -1.02032 1.56353 0
M  V30 6472 C 604.827 -1.92382 0.385197 0
M  V30 6473 O 603.952 -2.10583 -0.498373 0
M  V30 6474 C 604.547 -1.85723 2.83359 0
M  V30 6475 C 603.106 -2.38774 2.90971 0
M  V30 6476 C 602.253 -1.17908 2.50984 0
M  V30 6477 H 605.204 -0.221744 1.57143 0
M  V30 6478 H 605.225 -2.71141 2.66951 0
M  V30 6479 H 604.737 -1.19939 3.69102 0
M  V30 6480 H 602.838 -3.08021 2.09651 0
M  V30 6481 H 602.951 -2.71778 3.94555 0
M  V30 6482 H 601.315 -1.52347 2.04114 0
M  V30 6483 H 602.098 -0.537393 3.39068 0
M  V30 6484 N 604.543 -1.41418 -0.695603 0
M  V30 6485 C 605.771 -1.4413 -1.48439 0
M  V30 6486 C 606.186 -0.0465698 -1.88743 0
M  V30 6487 O 605.543 0.934117 -1.56782 0
M  V30 6488 C 605.594 -2.34998 -2.74696 0
M  V30 6489 O 605.315 -3.69043 -2.36091 0
M  V30 6490 C 606.816 -2.46513 -3.68438 0
M  V30 6491 H 604.036 -0.490905 -0.457442 0
M  V30 6492 H 606.58 -1.85702 -0.856454 0
M  V30 6493 H 604.735 -1.96735 -3.33728 0
M  V30 6494 H 605.149 -4.17505 -3.17474 0
M  V30 6495 H 606.623 -3.1426 -4.53811 0
M  V30 6496 H 607.1 -1.49638 -4.12922 0
M  V30 6497 H 607.706 -2.85412 -3.1531 0
M  V30 6498 N 606.021 0.929856 -1.27246 0
M  V30 6499 C 607.432 1.49223 -1.12203 0
M  V30 6500 C 607.783 1.93989 0.293731 0
M  V30 6501 O 606.908 1.80978 1.18642 0
M  V30 6502 C 607.503 2.71198 -2.0307 0
M  V30 6503 C 606.062 3.23666 -1.92139 0
M  V30 6504 C 605.209 1.96409 -1.95752 0
M  V30 6505 H 608.16 0.744181 -1.4017 0
M  V30 6506 H 608.181 3.45905 -1.58524 0
M  V30 6507 H 607.693 2.38585 -3.06102 0
M  V30 6508 H 605.794 3.61042 -0.920834 0
M  V30 6509 H 605.907 3.90006 -2.78267 0
M  V30 6510 H 604.271 2.12806 -1.39949 0
M  V30 6511 H 605.054 1.66113 -3.00436 0
M  V30 6512 N 607.499 1.09233 1.13605 0
M  V30 6513 C 608.745 0.828385 1.8511 0
M  V30 6514 C 609.078 -0.64437 1.83198 0
M  V30 6515 O 608.353 -1.47428 1.26867 0
M  V30 6516 C 608.636 1.36167 3.33363 0
M  V30 6517 C 608.489 2.90038 3.438 0
M  V30 6518 C 609.808 0.993819 4.28732 0
M  V30 6519 H 606.927 0.30239 0.672108 0
M  V30 6520 H 609.569 1.35339 1.33355 0
M  V30 6521 H 607.719 0.9151 3.77569 0
M  V30 6522 H 609.391 3.43128 3.08319 0
M  V30 6523 H 607.634 3.27271 2.84739 0
M  V30 6524 H 608.305 3.22428 4.48045 0
M  V30 6525 H 610.781 1.37893 3.92587 0
M  V30 6526 H 609.657 1.39403 5.30903 0
M  V30 6527 H 609.918 -0.0982206 4.41991 0
M  V30 6528 N 608.977 -1.30795 0.87923 0
M  V30 6529 C 610.226 -1.95636 0.490875 0
M  V30 6530 C 610.539 -1.70214 -0.963674 0
M  V30 6531 O 611.745 -2.28991 -1.45861 0
M  V30 6532 C 610.201 -3.50271 0.826929 0
M  V30 6533 C 609.809 -3.84521 2.29886 0
M  V30 6534 C 611.553 -4.21456 0.507494 0
M  V30 6535 C 609.46 -5.32309 2.57685 0
M  V30 6536 H 608.39 -0.732238 0.179841 0
M  V30 6537 H 611.041 -1.48829 1.07341 0
M  V30 6538 H 609.423 -3.9562 0.173542 0
M  V30 6539 H 610.597 -3.50102 2.99609 0
M  V30 6540 H 608.912 -3.26425 2.58526 0
M  V30 6541 H 611.509 -5.30199 0.692293 0
M  V30 6542 H 611.852 -4.12614 -0.552718 0
M  V30 6543 H 612.385 -3.81772 1.11782 0
M  V30 6544 H 609.124 -5.46195 3.62424 0
M  V30 6545 H 608.644 -5.68048 1.92566 0
M  V30 6546 H 610.323 -5.99678 2.42889 0
M  V30 6547 N 610.455 -0.639598 -1.44038 0
M  V30 6548 C 611.405 0.0823038 -2.27851 0
M  V30 6549 C 612.389 0.807991 -1.39141 0
M  V30 6550 O 613.581 0.692702 -1.62882 0
M  V30 6551 C 610.71 1.05742 -3.26609 0
M  V30 6552 C 609.796 0.330911 -4.22807 0
M  V30 6553 N 610.187 -0.645126 -5.01669 0
M  V30 6554 C 608.485 0.574214 -4.42288 0
M  V30 6555 C 609.186 -1.07513 -5.71678 0
M  V30 6556 N 608.162 -0.412164 -5.42035 0
M  V30 6557 H 611.964 -0.666861 -2.86234 0
M  V30 6558 H 609.478 -0.465777 -1.55577 0
M  V30 6559 H 611.475 1.58927 -3.85419 0
M  V30 6560 H 610.135 1.80679 -2.69787 0
M  V30 6561 H 611.146 -1.02329 -5.0769 0
M  V30 6562 H 607.823 1.30581 -3.96554 0
M  V30 6563 H 609.213 -1.88196 -6.45005 0
M  V30 6564 N 611.933 1.52934 -0.380664 0
M  V30 6565 C 613.161 2.05886 0.204599 0
M  V30 6566 C 613.576 1.25305 1.41223 0
M  V30 6567 O 612.933 0.297504 1.80059 0
M  V30 6568 C 612.984 3.56764 0.583249 0
M  V30 6569 O 612.705 4.34292 -0.576398 0
M  V30 6570 C 614.206 4.2603 1.2253 0
M  V30 6571 H 611.426 0.670193 0.0328991 0
M  V30 6572 H 613.97 1.97148 -0.543397 0
M  V30 6573 H 612.125 3.65603 1.28115 0
M  V30 6574 H 612.539 5.23819 -0.267119 0
M  V30 6575 H 614.013 5.32868 1.44068 0
M  V30 6576 H 614.49 3.80698 2.19011 0
M  V30 6577 H 615.096 4.21485 0.568407 0
M  V30 6578 N 613.412 0.11024 1.57214 0
M  V30 6579 C 614.359 -0.843195 2.14846 0
M  V30 6580 C 615.329 -1.26954 1.07107 0
M  V30 6581 O 616.514 -1.34861 1.34971 0
M  V30 6582 C 613.654 -2.09123 2.74521 0
M  V30 6583 C 612.767 -1.71404 3.96541 0
M  V30 6584 C 611.902 -2.91107 4.44331 0
M  V30 6585 C 610.941 -2.49586 5.58903 0
M  V30 6586 N 610.078 -3.62175 6.01477 0
M  V30 6587 H 614.918 -0.344886 2.95998 0
M  V30 6588 H 612.455 -0.15855 1.46243 0
M  V30 6589 H 614.413 -2.82234 3.07246 0
M  V30 6590 H 613.043 -2.56427 1.96074 0
M  V30 6591 H 612.095 -0.88201 3.70033 0
M  V30 6592 H 613.407 -1.36884 4.7965 0
M  V30 6593 H 612.561 -3.72454 4.78919 0
M  V30 6594 H 611.3 -3.28848 3.60153 0
M  V30 6595 H 610.305 -1.6667 5.23929 0
M  V30 6596 H 611.53 -2.12973 6.4484 0
M  V30 6597 H 609.476 -3.99605 5.20242 0
M  V30 6598 H 609.393 -3.3155 6.79419 0
M  V30 6599 H 610.661 -4.43987 6.407 0
M  V30 6600 N 614.89 -1.56749 -0.16351 0
M  V30 6601 C 615.84 -1.93424 -1.20712 0
M  V30 6602 C 616.824 -0.803469 -1.39403 0
M  V30 6603 O 618.016 -1.06675 -1.41243 0
M  V30 6604 C 615.145 -2.30431 -2.54473 0
M  V30 6605 C 614.231 -3.5004 -2.39443 0
M  V30 6606 N 614.622 -4.67058 -1.9414 0
M  V30 6607 C 612.92 -3.548 -2.70246 0
M  V30 6608 C 613.621 -5.49184 -1.9176 0
M  V30 6609 N 612.597 -4.9044 -2.34457 0
M  V30 6610 H 616.399 -2.8138 -0.848681 0
M  V30 6611 H 613.913 -1.58089 -0.371717 0
M  V30 6612 H 615.91 -2.54903 -3.29894 0
M  V30 6613 H 614.57 -1.43818 -2.91112 0
M  V30 6614 H 615.581 -4.91128 -1.64357 0
M  V30 6615 H 612.258 -2.78685 -3.10871 0
M  V30 6616 H 613.648 -6.5297 -1.58366 0
M  V30 6617 O 616.407 0.308401 -1.58528 0
M  V30 6618 H 617.098 0.955962 -1.68467 0
M  V30 END ATOM
M  V30 BEGIN BOND
M  V30 END BOND
M  V30 END CTAB
M  END
$$$$
