drugbank_target|P16083 Ribosyldihydronicotinamide dehydrogenase [quinone] (DB00157; DB00170; DB01065; DB01087; DB02709; DB03147; DB03541; DB04216; DB04253; DB07339; DB08190; DB08228; DB08744)
 OpenBabel12092119273D

  0  0  0     0  0            999 V3000
M  V30 BEGIN CTAB
M  V30 COUNTS 3620 3669 0 0 0
M  V30 BEGIN ATOM
M  V30 1 H -0.908 1.98254 -0.117106 0
M  V30 2 N 0 1.576 0 0
M  V30 3 C 0.933 2.03868 1.02534 0
M  V30 4 C 1.911 0.928543 1.3348 0
M  V30 5 O 3.095 1.19667 1.45644 0
M  V30 6 C 0.222 2.43627 2.35294 0
M  V30 7 C -0.732 3.65373 2.2001 0
M  V30 8 S 0.101 5.13292 1.52614 0
M  V30 9 C 1.257 5.56322 2.86805 0
M  V30 10 H 1.49 2.90518 0.631377 0
M  V30 11 H -0.977 1.52953 0.210867 0
M  V30 12 H 0.981 2.67203 3.11629 0
M  V30 13 H -0.358 1.57376 2.7183 0
M  V30 14 H -1.165 3.90944 3.18086 0
M  V30 15 H -1.563 3.418 1.51819 0
M  V30 16 H 0.729 5.58782 3.83104 0
M  V30 17 H 1.672 6.56266 2.65933 0
M  V30 18 H 2.08 4.83886 2.90714 0
M  V30 19 N 1.4781 -0.272755 1.55222 0
M  V30 20 C 2.4411 -1.32041 1.87344 0
M  V30 21 C 3.4411 -1.42342 0.74803 0
M  V30 22 O 4.6311 -1.41488 1.0162 0
M  V30 23 C 1.7631 -2.70173 2.07893 0
M  V30 24 H 2.9561 -1.04789 2.80997 0
M  V30 25 H 0.5091 -0.51083 1.47717 0
M  V30 26 H 1.2441 -3.02605 1.16622 0
M  V30 27 H 1.0291 -2.64082 2.89833 0
M  V30 28 H 2.5191 -3.45869 2.34017 0
M  V30 29 N 2.9562 -1.48159 -0.537278 0
M  V30 30 C 4.2042 -1.55497 -1.29094 0
M  V30 31 C 4.5252 -0.227454 -1.93669 0
M  V30 32 O 3.7952 0.750386 -1.80959 0
M  V30 33 H 2.3752 -0.572832 -0.47945 0
M  V30 34 H 5.0372 -1.84579 -0.625818 0
M  V30 35 H 4.1332 -2.33216 -2.07405 0
M  V30 36 N 4.4343 0.785586 -1.36625 0
M  V30 37 C 5.3813 1.89838 -1.31264 0
M  V30 38 C 6.3513 1.65115 -0.180633 0
M  V30 39 O 7.5363 1.87222 -0.36777 0
M  V30 40 C 4.6763 3.26706 -1.11163 0
M  V30 41 C 3.7893 3.63476 -2.33472 0
M  V30 42 C 2.9243 4.89481 -2.06353 0
M  V30 43 C 1.9633 5.18941 -3.24602 0
M  V30 44 N 1.1003 6.36131 -2.97123 0
M  V30 45 H 5.9403 1.93756 -2.26413 0
M  V30 46 H 3.4773 0.947454 -1.12524 0
M  V30 47 H 5.4353 4.05639 -0.975337 0
M  V30 48 H 4.0653 3.222 -0.196674 0
M  V30 49 H 3.1173 2.79636 -2.57891 0
M  V30 50 H 4.4293 3.81193 -3.21704 0
M  V30 51 H 3.5833 5.76288 -1.89675 0
M  V30 52 H 2.3223 4.73841 -1.15437 0
M  V30 53 H 1.3273 4.30615 -3.41834 0
M  V30 54 H 2.5523 5.36498 -4.16349 0
M  V30 55 H 0.4983 6.21875 -2.08823 0
M  V30 56 H 0.4153 6.54198 -3.78894 0
M  V30 57 H 1.6833 7.2591 -2.84033 0
M  V30 58 N 5.9124 1.20967 1.01018 0
M  V30 59 C 6.8594 0.964281 2.09691 0
M  V30 60 C 7.8294 -0.107853 1.65749 0
M  V30 61 O 9.0144 0.0381987 1.90762 0
M  V30 62 C 6.1544 0.52943 3.41015 0
M  V30 63 C 5.2674 1.67043 3.98398 0
M  V30 64 C 4.4024 1.18525 5.17808 0
M  V30 65 C 3.4414 2.29892 5.67288 0
M  V30 66 N 2.5784 1.82546 6.77954 0
M  V30 67 H 7.4184 1.89463 2.30017 0
M  V30 68 H 4.9554 0.944289 1.1279 0
M  V30 69 H 6.9134 0.258588 4.16398 0
M  V30 70 H 5.5434 -0.363919 3.20742 0
M  V30 71 H 4.5954 2.05603 3.20049 0
M  V30 72 H 5.9074 2.50877 4.31117 0
M  V30 73 H 5.0614 0.870762 6.00419 0
M  V30 74 H 3.8004 0.316887 4.86669 0
M  V30 75 H 2.8054 2.6215 4.83278 0
M  V30 76 H 4.0304 3.17216 6.00459 0
M  V30 77 H 1.9764 0.980454 6.48632 0
M  V30 78 H 1.8934 2.59956 7.09901 0
M  V30 79 H 3.1614 1.54115 7.64113 0
M  V30 80 N 7.3905 -1.2043 1.01659 0
M  V30 81 C 8.6365 -1.90079 0.706963 0
M  V30 82 C 8.9695 -1.78648 -0.761474 0
M  V30 83 O 8.2445 -1.17069 -1.55323 0
M  V30 84 C 8.5275 -3.41469 1.14327 0
M  V30 85 C 8.3805 -3.61833 2.67201 0
M  V30 86 C 9.6995 -4.34261 0.714529 0
M  V30 87 H 6.8185 -0.690254 0.2583 0
M  V30 88 H 9.4605 -1.41826 1.26433 0
M  V30 89 H 7.6105 -3.82696 0.669056 0
M  V30 90 H 9.2825 -3.2986 3.22475 0
M  V30 91 H 7.5255 -3.05304 3.08175 0
M  V30 92 H 8.1965 -4.67955 2.92783 0
M  V30 93 H 10.6725 -4.00682 1.12221 0
M  V30 94 H 9.5485 -5.38806 1.04784 0
M  V30 95 H 9.8095 -4.40431 -0.383799 0
M  V30 96 N 8.8686 -0.792821 -1.36206 0
M  V30 97 C 9.7986 -0.207853 -2.32573 0
M  V30 98 C 10.7796 0.659055 -1.56813 0
M  V30 99 O 11.9646 0.592176 -1.84951 0
M  V30 100 C 9.0946 0.655449 -3.41059 0
M  V30 101 C 8.0486 -0.111842 -4.27854 0
M  V30 102 C 7.3746 0.872274 -5.27537 0
M  V30 103 C 8.6746 -1.30299 -5.05786 0
M  V30 104 H 10.3686 -1.01294 -2.81744 0
M  V30 105 H 7.9146 -0.48854 -1.3546 0
M  V30 106 H 9.8676 1.07464 -4.07467 0
M  V30 107 H 8.5916 1.49328 -2.90463 0
M  V30 108 H 7.2506 -0.512053 -3.63006 0
M  V30 109 H 6.8986 1.70523 -4.73214 0
M  V30 110 H 6.5986 0.363291 -5.86476 0
M  V30 111 H 8.1226 1.28996 -5.96818 0
M  V30 112 H 9.5366 -0.959379 -5.65216 0
M  V30 113 H 7.9336 -1.7455 -5.74154 0
M  V30 114 H 9.0036 -2.09663 -4.37229 0
M  V30 115 N 10.3467 1.47872 -0.545128 0
M  V30 116 C 11.5957 2.01695 -0.0145033 0
M  V30 117 C 11.9087 1.42609 1.33873 0
M  V30 118 O 13.1147 1.88021 1.95858 0
M  V30 119 C 11.5707 3.59892 0.0245068 0
M  V30 120 C 11.1787 4.27966 -1.32475 0
M  V30 121 C 12.9227 4.21507 0.50316 0
M  V30 122 C 10.8297 5.78136 -1.2455 0
M  V30 123 H 9.7597 0.753998 -0.00165172 0
M  V30 124 H 12.4107 1.69985 -0.691175 0
M  V30 125 H 10.7927 3.88509 0.766575 0
M  V30 126 H 11.9667 4.11003 -2.08357 0
M  V30 127 H 10.2817 3.78286 -1.74036 0
M  V30 128 H 12.8787 5.31538 0.580656 0
M  V30 129 H 13.2217 3.87855 1.51243 0
M  V30 130 H 13.7547 3.97376 -0.183681 0
M  V30 131 H 10.4937 6.16388 -2.23039 0
M  V30 132 H 10.0137 5.97469 -0.528282 0
M  V30 133 H 11.6927 6.40099 -0.942488 0
M  V30 134 N 11.8248 0.280983 1.55075 0
M  V30 135 C 13.0708 -0.33461 2.00021 0
M  V30 136 C 13.4038 -1.55063 1.16915 0
M  V30 137 O 12.6788 -1.93006 0.240646 0
M  V30 138 C 12.9618 -0.711007 3.53011 0
M  V30 139 C 12.8148 0.512766 4.46868 0
M  V30 140 C 14.1338 -1.54522 4.12081 0
M  V30 141 H 11.2528 -0.120147 0.727141 0
M  V30 142 H 13.8948 0.389097 1.85973 0
M  V30 143 H 12.0448 -1.32761 3.65112 0
M  V30 144 H 13.7168 1.15131 4.46702 0
M  V30 145 H 11.9598 1.14975 4.18286 0
M  V30 146 H 12.6308 0.205556 5.51617 0
M  V30 147 H 15.1068 -1.02442 4.03293 0
M  V30 148 H 13.9828 -1.77739 5.19327 0
M  V30 149 H 14.2438 -2.52813 3.62682 0
M  V30 150 N 13.3029 -1.57598 0.00835791 0
M  V30 151 C 14.5329 -1.94931 -0.684496 0
M  V30 152 C 14.9409 -0.882233 -1.67372 0
M  V30 153 O 14.2839 0.146621 -1.83114 0
M  V30 154 C 14.3459 -3.283 -1.4649 0
M  V30 155 C 14.0099 -4.52548 -0.63634 0
M  V30 156 C 15.0069 -5.19839 0.0795586 0
M  V30 157 C 12.6919 -4.98942 -0.579849 0
M  V30 158 C 14.6859 -6.3183 0.840843 0
M  V30 159 C 12.3729 -6.10819 0.185155 0
M  V30 160 C 13.3709 -6.77121 0.894227 0
M  V30 161 O 13.0589 -7.86853 1.64673 0
M  V30 162 H 12.7909 -0.647249 -0.19505 0
M  V30 163 H 15.3449 -2.05318 0.0581272 0
M  V30 164 H 13.5749 -3.14345 -2.2522 0
M  V30 165 H 15.2639 -3.50685 -2.04389 0
M  V30 166 H 16.0299 -4.84979 0.0451202 0
M  V30 167 H 11.9089 -4.47155 -1.1213 0
M  V30 168 H 15.4529 -6.83513 1.39483 0
M  V30 169 H 11.3499 -6.4512 0.221384 0
M  V30 170 H 12.1179 -8.03412 1.56432 0
M  V30 171 N 14.781 0.264519 -1.55364 0
M  V30 172 C 15.744 1.31046 -1.88042 0
M  V30 173 C 16.744 1.41943 -0.755569 0
M  V30 174 O 17.934 1.40947 -1.02369 0
M  V30 175 C 15.066 2.69067 -2.09323 0
M  V30 176 H 16.259 1.03297 -2.81549 0
M  V30 177 H 13.812 0.502989 -1.47986 0
M  V30 178 H 14.547 3.01982 -1.18226 0
M  V30 179 H 14.332 2.62542 -2.91229 0
M  V30 180 H 15.822 3.44623 -2.35848 0
M  V30 181 N 16.2591 1.48442 0.529413 0
M  V30 182 C 17.2091 1.59407 1.63014 0
M  V30 183 C 18.1931 0.451166 1.54445 0
M  V30 184 O 19.3851 0.702635 1.62456 0
M  V30 185 C 16.5141 1.63746 3.01732 0
M  V30 186 C 15.6001 2.83518 3.15402 0
M  V30 187 N 15.9911 4.07929 2.99045 0
M  V30 188 C 14.2891 2.80862 3.46457 0
M  V30 189 C 14.9901 4.8829 3.16146 0
M  V30 190 N 13.9661 4.21117 3.43746 0
M  V30 191 H 17.7681 2.53343 1.48978 0
M  V30 192 H 15.2821 1.44821 0.734885 0
M  V30 193 H 17.2791 1.69695 3.80801 0
M  V30 194 H 15.9391 0.709264 3.16859 0
M  V30 195 H 16.9501 4.38357 2.75796 0
M  V30 196 H 13.6271 1.97301 3.67938 0
M  V30 197 H 15.0171 5.97028 3.08232 0
M  V30 198 N 17.7372 -0.778329 1.37039 0
M  V30 199 C 18.6692 -1.90034 1.2814 0
M  V30 200 C 19.6822 -1.61585 0.198558 0
M  V30 201 O 20.8712 -1.72625 0.454175 0
M  V30 202 C 17.9712 -3.25108 0.956968 0
M  V30 203 C 17.1442 -3.81253 2.14394 0
M  V30 204 C 16.2032 -4.94789 1.79082 0
M  V30 205 O 15.2292 -5.10721 2.51301 0
M  V30 206 N 16.4312 -5.75878 0.731043 0
M  V30 207 H 19.1962 -1.98186 2.24816 0
M  V30 208 H 16.7572 -0.957129 1.30578 0
M  V30 209 H 18.7492 -3.9857 0.701701 0
M  V30 210 H 17.3192 -3.125 0.0789812 0
M  V30 211 H 16.5392 -2.99647 2.56135 0
M  V30 212 H 17.8272 -4.15495 2.93668 0
M  V30 213 H 17.2252 -5.65547 0.131618 0
M  V30 214 H 15.7822 -6.49596 0.535622 0
M  V30 215 N 19.2153 -1.21501 -1.00376 0
M  V30 216 C 20.1253 -0.991447 -2.12621 0
M  V30 217 C 21.1413 0.0568446 -1.73907 0
M  V30 218 O 22.3173 -0.13348 -2.00957 0
M  V30 219 C 19.3823 -0.560312 -3.42142 0
M  V30 220 C 18.4433 -1.68096 -3.95022 0
M  V30 221 C 17.6763 -1.2703 -5.18362 0
M  V30 222 O 17.8993 -0.144438 -5.70217 0
M  V30 223 O 16.8333 -2.08269 -5.64719 0
M  V30 224 H 20.6593 -1.93158 -2.34358 0
M  V30 225 H 18.2443 -0.999999 -1.10997 0
M  V30 226 H 20.1263 -0.329724 -4.20108 0
M  V30 227 H 18.8013 0.351089 -3.2179 0
M  V30 228 H 17.7083 -1.96597 -3.18278 0
M  V30 229 H 19.0413 -2.56983 -4.19786 0
M  V30 230 N 20.6934 1.19889 -1.02296 0
M  V30 231 C 22.1044 1.71124 -0.746568 0
M  V30 232 C 22.4554 1.81939 0.734335 0
M  V30 233 O 21.5804 1.48639 1.57275 0
M  V30 234 C 22.1754 3.10804 -1.34857 0
M  V30 235 C 20.7344 3.59323 -1.1209 0
M  V30 236 C 19.8814 2.3635 -1.45031 0
M  V30 237 H 22.8324 1.04813 -1.19163 0
M  V30 238 H 22.8534 3.73186 -0.742437 0
M  V30 239 H 22.3654 3.029 -2.42638 0
M  V30 240 H 20.4664 3.7255 -0.0610337 0
M  V30 241 H 20.5794 4.4378 -1.80544 0
M  V30 242 H 18.9434 2.39399 -0.869487 0
M  V30 243 H 19.7264 2.31081 -2.53883 0
M  V30 244 N 22.1715 0.800033 1.35784 0
M  V30 245 C 23.1185 0.203848 2.29898 0
M  V30 246 C 24.0885 -0.658375 1.52495 0
M  V30 247 O 25.2735 -0.604832 1.8096 0
M  V30 248 C 22.4135 -0.64688 3.38983 0
M  V30 249 C 21.5265 0.235054 4.3136 0
M  V30 250 C 20.6615 -0.623054 5.27533 0
M  V30 251 C 19.7005 0.259682 6.11549 0
M  V30 252 N 18.8375 -0.558019 6.99879 0
M  V30 253 H 23.6775 1.01186 2.80295 0
M  V30 254 H 21.2145 0.51053 1.37957 0
M  V30 255 H 23.1725 -1.15521 4.00887 0
M  V30 256 H 21.8025 -1.42021 2.89879 0
M  V30 257 H 20.8545 0.861438 3.70518 0
M  V30 258 H 22.1665 0.914768 4.9034 0
M  V30 259 H 21.3205 -1.19678 5.94779 0
M  V30 260 H 20.0595 -1.33636 4.69034 0
M  V30 261 H 19.0645 0.845726 5.43256 0
M  V30 262 H 20.2895 0.970748 6.72126 0
M  V30 263 H 18.2355 -1.25542 6.43875 0
M  V30 264 H 18.1525 0.0637872 7.55973 0
M  V30 265 H 19.4205 -1.11523 7.71481 0
M  V30 266 N 23.6496 -1.47581 0.552962 0
M  V30 267 C 24.8746 -2.07378 0.0300593 0
M  V30 268 C 25.2996 -1.40355 -1.25229 0
M  V30 269 O 24.6576 -0.477099 -1.7491 0
M  V30 270 C 24.7056 -3.60274 -0.153231 0
M  V30 271 O 23.8096 -3.94041 -1.21678 0
M  V30 272 H 23.1506 -0.662158 0.0494182 0
M  V30 273 H 25.6806 -1.89662 0.767434 0
M  V30 274 H 25.6906 -4.0633 -0.368761 0
M  V30 275 H 24.3656 -4.08455 0.783397 0
M  V30 276 H 22.9426 -3.59735 -0.982079 0
M  V30 277 N 25.1277 -0.289203 -1.54924 0
M  V30 278 C 26.3747 0.323519 -1.99899 0
M  V30 279 C 26.7027 1.54797 -1.17762 0
M  V30 280 O 25.9577 1.94237 -0.238835 0
M  V30 281 C 26.2567 0.736119 -3.49737 0
M  V30 282 C 25.9227 -0.385276 -4.49251 0
M  V30 283 C 24.5847 -0.693156 -4.76181 0
M  V30 284 C 26.9367 -1.14021 -5.08575 0
M  V30 285 C 24.2647 -1.7593 -5.59701 0
M  V30 286 C 26.6167 -2.19619 -5.93254 0
M  V30 287 C 25.2807 -2.51026 -6.185 0
M  V30 288 H 24.5507 0.118384 -0.731482 0
M  V30 289 H 27.1977 -0.405847 -1.8715 0
M  V30 290 H 25.5027 1.54539 -3.60035 0
M  V30 291 H 27.1997 1.22118 -3.81953 0
M  V30 292 H 23.7897 -0.135202 -4.28387 0
M  V30 293 H 27.9737 -0.915611 -4.87781 0
M  V30 294 H 23.2297 -2.0075 -5.77503 0
M  V30 295 H 27.4037 -2.78581 -6.38252 0
M  V30 296 H 25.0307 -3.33772 -6.83008 0
M  V30 297 N 26.6058 1.57591 -0.0167156 0
M  V30 298 C 27.5538 2.10604 0.987353 0
M  V30 299 C 28.5478 1.02977 1.34507 0
M  V30 300 O 29.7538 1.21425 1.32875 0
M  V30 301 H 26.1288 0.672695 0.336134 0
M  V30 302 H 28.0998 2.93925 0.514817 0
M  V30 303 C 26.8488 2.6382 2.26483 0
M  V30 304 H 26.1718 3.46278 1.99829 0
M  V30 305 H 27.6118 3.04573 2.94977 0
M  V30 306 C 26.0708 1.55992 2.9861 0
M  V30 307 O 26.6008 0.952521 3.90243 0
M  V30 308 N 24.8068 1.28335 2.60727 0
M  V30 309 H 24.3538 1.77914 1.86291 0
M  V30 310 H 24.3118 0.564115 3.09298 0
M  V30 311 N 28.0839 -0.256276 1.55502 0
M  V30 312 C 29.3319 -0.983672 1.76545 0
M  V30 313 C 29.6529 -1.86206 0.578982 0
M  V30 314 O 28.9229 -1.91656 -0.405577 0
M  V30 315 H 27.5029 -0.366191 0.651086 0
M  V30 316 H 30.1649 -0.276479 1.92929 0
M  V30 317 H 29.2609 -1.61087 2.67315 0
M  V30 318 N 29.562 -1.4872 -0.521534 0
M  V30 319 C 30.787 -1.61101 -1.30618 0
M  V30 320 C 31.212 -0.274611 -1.86085 0
M  V30 321 O 30.57 0.754937 -1.64834 0
M  V30 322 C 30.618 -2.66709 -2.4269 0
M  V30 323 O 29.722 -2.24456 -3.45967 0
M  V30 324 H 29.063 -0.539921 -0.386499 0
M  V30 325 H 31.593 -1.94767 -0.626645 0
M  V30 326 H 31.603 -2.88245 -2.88754 0
M  V30 327 H 30.278 -3.63727 -2.01682 0
M  V30 328 H 28.855 -2.13168 -3.05964 0
M  V30 329 N 31.0401 0.771051 -1.3745 0
M  V30 330 C 31.9701 1.89827 -1.3597 0
M  V30 331 C 32.9511 1.68562 -0.228216 0
M  V30 332 O 34.1361 1.8941 -0.428675 0
M  V30 333 C 31.2661 3.2712 -1.16662 0
M  V30 334 C 30.2201 3.6295 -2.2683 0
M  V30 335 C 29.5461 4.98791 -1.92644 0
M  V30 336 C 30.8461 3.69627 -3.69017 0
M  V30 337 H 32.5401 1.91323 -2.30295 0
M  V30 338 H 30.0861 0.919082 -1.10855 0
M  V30 339 H 32.0391 4.05615 -1.14256 0
M  V30 340 H 30.7631 3.26059 -0.187926 0
M  V30 341 H 29.4221 2.86763 -2.28392 0
M  V30 342 H 29.0701 4.94271 -0.933021 0
M  V30 343 H 28.7701 5.23733 -2.66416 0
M  V30 344 H 30.2941 5.79685 -1.91826 0
M  V30 345 H 31.7081 4.38273 -3.69581 0
M  V30 346 H 30.1051 4.06067 -4.41848 0
M  V30 347 H 31.1751 2.70273 -4.02592 0
M  V30 348 N 32.5182 1.22032 0.997298 0
M  V30 349 C 33.4652 0.986467 2.08656 0
M  V30 350 C 34.4352 -0.0902671 1.65855 0
M  V30 351 O 35.6202 0.0584294 1.90711 0
M  V30 352 C 32.7602 0.565569 3.40434 0
M  V30 353 C 31.8732 1.71259 3.96604 0
M  V30 354 C 31.0082 1.24011 5.16522 0
M  V30 355 C 30.0472 2.35896 5.64818 0
M  V30 356 N 29.1842 1.89726 6.7598 0
M  V30 357 H 34.0242 1.91892 2.27994 0
M  V30 358 H 31.5612 0.956199 1.11782 0
M  V30 359 H 33.5192 0.302738 4.161 0
M  V30 360 H 32.1492 -0.329879 3.2111 0
M  V30 361 H 31.2012 2.08986 3.17851 0
M  V30 362 H 32.5132 2.55436 4.28432 0
M  V30 363 H 31.6672 0.934395 5.99461 0
M  V30 364 H 30.4062 0.368487 4.86306 0
M  V30 365 H 29.4112 2.67261 4.8047 0
M  V30 366 H 30.6362 3.23567 5.97061 0
M  V30 367 H 28.5822 1.0492 6.47555 0
M  V30 368 H 28.4992 2.67471 7.07103 0
M  V30 369 H 29.7672 1.62211 7.62435 0
M  V30 370 N 33.9963 -1.19345 1.0293 0
M  V30 371 C 34.9443 -2.24621 0.604001 0
M  V30 372 C 35.9383 -1.65452 -0.363587 0
M  V30 373 O 37.1443 -1.78497 -0.23212 0
M  V30 374 H 33.5193 -0.730858 0.177061 0
M  V30 375 H 35.4903 -2.5781 1.50255 0
M  V30 376 C 34.2393 -3.47688 -0.0289127 0
M  V30 377 H 33.5623 -3.93505 0.706651 0
M  V30 378 H 35.0023 -4.23011 -0.289432 0
M  V30 379 C 33.4613 -3.11817 -1.2756 0
M  V30 380 O 33.9913 -3.2451 -2.36762 0
M  V30 381 N 32.1973 -2.66246 -1.16453 0
M  V30 382 H 31.7443 -2.56118 -0.275914 0
M  V30 383 H 31.7023 -2.42617 -1.99961 0
M  V30 384 N 35.4744 -0.807222 -1.35358 0
M  V30 385 C 36.7204 -0.388463 -1.99045 0
M  V30 386 C 37.0534 1.04184 -1.63888 0
M  V30 387 O 36.3284 1.72292 -0.902535 0
M  V30 388 C 36.6114 -0.572783 -3.55515 0
M  V30 389 C 36.4644 -2.04807 -4.00468 0
M  V30 390 C 37.7834 0.00114064 -4.401 0
M  V30 391 H 34.9024 -0.142619 -0.723069 0
M  V30 392 H 37.5444 -1.01687 -1.60498 0
M  V30 393 H 35.6944 -0.0378425 -3.88482 0
M  V30 394 H 37.3664 -2.64544 -3.77908 0
M  V30 395 H 35.6094 -2.54427 -3.51353 0
M  V30 396 H 36.2804 -2.12792 -5.09337 0
M  V30 397 H 38.7564 -0.455716 -4.13597 0
M  V30 398 H 37.6324 -0.157737 -5.48673 0
M  V30 399 H 37.8934 1.09488 -4.28328 0
M  V30 400 N 36.9525 1.47285 -0.560781 0
M  V30 401 C 37.9155 2.28535 0.174488 0
M  V30 402 C 38.9155 1.37153 0.839388 0
M  V30 403 O 40.1055 1.59748 0.694702 0
M  V30 404 C 37.2375 3.16934 1.25561 0
M  V30 405 H 38.4305 2.95012 -0.539262 0
M  V30 406 H 35.9835 1.53034 -0.317865 0
M  V30 407 H 36.7185 2.55157 2.00164 0
M  V30 408 H 36.5035 3.8419 0.783604 0
M  V30 409 H 37.9935 3.78143 1.77193 0
M  V30 410 N 38.4306 0.297415 1.54768 0
M  V30 411 C 39.6766 -0.313376 2.00364 0
M  V30 412 C 40.0096 -1.53815 1.18553 0
M  V30 413 O 39.2846 -1.92739 0.261103 0
M  V30 414 C 39.5676 -0.673525 3.53745 0
M  V30 415 C 39.4206 0.560133 4.46299 0
M  V30 416 C 40.7396 -1.50143 4.13697 0
M  V30 417 H 37.8586 -0.112428 0.728374 0
M  V30 418 H 40.5006 0.4088 1.8555 0
M  V30 419 H 38.6506 -1.28881 3.665 0
M  V30 420 H 40.3226 1.19863 4.45455 0
M  V30 421 H 38.5656 1.19405 4.17043 0
M  V30 422 H 39.2366 0.26405 5.51368 0
M  V30 423 H 41.7126 -0.981588 4.04356 0
M  V30 424 H 40.5886 -1.72221 5.21182 0
M  V30 425 H 40.8496 -2.48952 3.65343 0
M  V30 426 N 39.9087 -1.5758 0.0250728 0
M  V30 427 C 41.1857 -1.82917 -0.692873 0
M  V30 428 C 41.5657 -0.908137 -1.90568 0
M  V30 429 O 40.9137 0.0372298 -2.2847 0
M  V30 430 C 41.1237 -3.32034 -1.07492 0
M  V30 431 C 42.4717 -3.98406 -1.46826 0
M  V30 432 O 43.4957 -3.36505 -1.16801 0
M  V30 433 O 42.3547 -5.07497 -2.02754 0
M  V30 434 H 39.4487 -0.754079 -0.33955 0
M  V30 435 H 41.9947 -1.69619 0.0524456 0
M  V30 436 H 40.7667 -3.90728 -0.211552 0
M  V30 437 H 40.3897 -3.50424 -1.87854 0
M  V30 438 N 41.3868 0.248026 -1.55636 0
M  V30 439 C 42.2968 1.32859 -1.93354 0
M  V30 440 C 43.3128 1.52719 -0.833838 0
M  V30 441 O 44.4888 1.66363 -1.13513 0
M  V30 442 C 41.5538 2.66337 -2.21958 0
M  V30 443 C 40.6148 2.55008 -3.45354 0
M  V30 444 C 39.8478 3.82121 -3.72584 0
M  V30 445 O 40.0708 4.83951 -3.01907 0
M  V30 446 O 39.0048 3.80822 -4.6611 0
M  V30 447 H 42.8308 1.03862 -2.85388 0
M  V30 448 H 40.4158 0.448686 -1.42503 0
M  V30 449 H 42.2978 3.45216 -2.4167 0
M  V30 450 H 40.9728 2.95068 -1.33103 0
M  V30 451 H 39.8798 1.7442 -3.30951 0
M  V30 452 H 41.2128 2.31222 -4.34508 0
M  V30 453 N 42.8649 1.48995 0.513639 0
M  V30 454 C 43.7949 1.67636 1.62544 0
M  V30 455 C 44.7759 0.525087 1.61793 0
M  V30 456 O 45.9609 0.759502 1.78732 0
M  V30 457 C 43.0909 1.73114 3.01079 0
M  V30 458 C 42.0449 2.87905 3.16693 0
M  V30 459 C 41.3709 2.78486 4.56453 0
M  V30 460 C 42.6709 4.29005 2.97913 0
M  V30 461 H 44.3649 2.60716 1.47198 0
M  V30 462 H 41.9109 1.25465 0.706714 0
M  V30 463 H 43.8639 1.84742 3.78746 0
M  V30 464 H 42.5879 0.766241 3.17484 0
M  V30 465 H 41.2469 2.75859 2.41448 0
M  V30 466 H 40.8949 1.7993 4.69717 0
M  V30 467 H 40.5949 3.55523 4.67843 0
M  V30 468 H 42.1189 2.92104 5.36197 0
M  V30 469 H 43.5329 4.41798 3.65359 0
M  V30 470 H 41.9299 5.07166 3.20785 0
M  V30 471 H 42.9999 4.44329 1.94165 0
M  V30 472 N 44.343 -0.763751 1.37857 0
M  V30 473 C 45.568 -1.55805 1.36893 0
M  V30 474 C 45.993 -1.88054 -0.0416135 0
M  V30 475 O 45.351 -1.49825 -1.02089 0
M  V30 476 C 45.399 -2.84012 2.22192 0
M  V30 477 O 44.503 -3.78732 1.63204 0
M  V30 478 H 43.844 -0.471638 0.46739 0
M  V30 479 H 46.374 -0.944657 1.81487 0
M  V30 480 H 46.384 -3.33037 2.35691 0
M  V30 481 H 45.059 -2.59869 3.24716 0
M  V30 482 H 43.636 -3.37402 1.58791 0
M  V30 483 N 45.8211 -1.22559 -0.990812 0
M  V30 484 C 47.2371 -0.985996 -1.255 0
M  V30 485 C 47.4371 0.319173 -1.98956 0
M  V30 486 O 46.4931 1.04127 -2.3003 0
M  V30 487 C 47.8061 -2.18607 -2.06474 0
M  V30 488 C 49.3541 -2.22985 -2.19651 0
M  V30 489 C 49.8291 -3.4255 -3.04012 0
M  V30 490 N 51.3201 -3.42725 -3.11599 0
M  V30 491 C 52.0551 -4.31892 -3.7717 0
M  V30 492 N 51.5511 -5.31279 -4.44651 0
M  V30 493 N 53.3441 -4.19662 -3.73952 0
M  V30 494 H 45.4951 -2.06469 -0.49841 0
M  V30 495 H 47.7581 -0.904853 -0.282747 0
M  V30 496 H 47.4641 -3.13267 -1.59865 0
M  V30 497 H 47.3381 -2.18838 -3.07229 0
M  V30 498 H 49.7251 -1.28871 -2.65474 0
M  V30 499 H 49.8061 -2.26791 -1.18319 0
M  V30 500 H 49.4501 -4.36965 -2.58889 0
M  V30 501 H 49.3801 -3.35984 -4.0549 0
M  V30 502 H 51.8711 -2.70807 -2.63575 0
M  V30 503 H 52.1841 -5.95593 -4.92431 0
M  V30 504 H 50.5291 -5.3519 -4.43392 0
M  V30 505 H 53.7201 -3.41268 -3.20396 0
M  V30 506 H 53.8931 -4.89358 -4.24774 0
M  V30 507 N 47.2992 1.18797 -1.03562 0
M  V30 508 C 48.2312 2.21731 -0.580337 0
M  V30 509 C 49.2442 1.59051 0.347349 0
M  V30 510 O 50.4332 1.77929 0.142669 0
M  V30 511 C 47.5332 3.38459 0.172805 0
M  V30 512 C 46.7062 4.3072 -0.761496 0
M  V30 513 C 45.7652 5.26174 -0.0525547 0
M  V30 514 O 44.7912 5.65108 -0.681333 0
M  V30 515 N 45.9932 5.67624 1.21586 0
M  V30 516 H 48.7582 2.61417 -1.46565 0
M  V30 517 H 46.3192 1.33531 -0.915476 0
M  V30 518 H 48.3112 3.99335 0.656793 0
M  V30 519 H 46.8812 2.97507 0.959602 0
M  V30 520 H 46.1012 3.67525 -1.42544 0
M  V30 521 H 47.3892 4.89267 -1.39626 0
M  V30 522 H 46.7872 5.38038 1.74732 0
M  V30 523 H 45.3442 6.30721 1.64421 0
M  V30 524 N 48.7773 0.814389 1.34928 0
M  V30 525 C 50.0253 0.397636 1.9815 0
M  V30 526 C 50.3463 -1.04069 1.64908 0
M  V30 527 O 49.6163 -1.72121 0.93548 0
M  V30 528 H 48.1963 0.144043 0.732981 0
M  V30 529 H 50.8583 1.04195 1.6471 0
M  V30 530 H 49.9543 0.509688 3.0791 0
M  V30 531 N 50.2554 -1.46986 0.568584 0
M  V30 532 C 51.4954 -2.04336 0.0512999 0
M  V30 533 C 51.8594 -1.43214 -1.27881 0
M  V30 534 O 53.0604 -1.91679 -1.88448 0
M  V30 535 C 51.3314 -3.57389 -0.0282328 0
M  V30 536 S 52.8904 -4.36056 -0.489991 0
M  V30 537 H 49.7084 -0.71034 0.0306349 0
M  V30 538 H 52.3104 -1.80212 0.757891 0
M  V30 539 H 51.0144 -3.99395 0.944011 0
M  V30 540 H 50.5454 -3.86028 -0.75803 0
M  V30 541 H 52.5604 -4.6441 -1.74752 0
M  V30 542 N 51.7335 -0.305618 -1.54608 0
M  V30 543 C 52.9615 0.304775 -2.04643 0
M  V30 544 C 53.3765 1.47167 -1.18268 0
M  V30 545 O 52.7335 1.81296 -0.209328 0
M  V30 546 C 52.7845 0.756564 -3.53495 0
M  V30 547 O 52.5055 -0.36389 -4.36586 0
M  V30 548 C 54.0065 1.43163 -4.19546 0
M  V30 549 H 51.2265 0.0655481 -0.667791 0
M  V30 550 H 53.7705 -0.446592 -1.99564 0
M  V30 551 H 51.9255 1.45794 -3.58919 0
M  V30 552 H 52.3395 -0.0113121 -5.24499 0
M  V30 553 H 53.8135 1.69886 -5.25207 0
M  V30 554 H 54.2905 2.37318 -3.69563 0
M  V30 555 H 54.8965 0.773307 -4.18211 0
M  V30 556 N 53.2116 1.57565 -0.0334293 0
M  V30 557 C 54.4576 1.92262 0.645226 0
M  V30 558 C 54.7906 0.910543 1.71531 0
M  V30 559 O 54.0656 -0.066099 1.94388 0
M  V30 560 C 54.3486 3.37422 1.2577 0
M  V30 561 C 54.2016 4.49369 0.196891 0
M  V30 562 C 55.5206 3.82628 2.17449 0
M  V30 563 H 52.6396 0.699171 0.233085 0
M  V30 564 H 55.2816 1.89779 -0.0915694 0
M  V30 565 H 53.4316 3.39669 1.88566 0
M  V30 566 H 55.1036 4.59254 -0.433962 0
M  V30 567 H 53.3466 4.31168 -0.477137 0
M  V30 568 H 54.0176 5.47978 0.665124 0
M  V30 569 H 56.4936 3.82145 1.64634 0
M  V30 570 H 55.3696 4.84883 2.57254 0
M  V30 571 H 55.6306 3.18376 3.0674 0
M  V30 572 N 54.6897 -0.239769 1.55765 0
M  V30 573 C 55.9177 -0.98417 1.81994 0
M  V30 574 C 56.3327 -1.7867 0.610124 0
M  V30 575 O 55.6897 -1.77571 -0.421271 0
M  V30 576 C 55.7407 -1.91635 3.06526 0
M  V30 577 O 55.4617 -1.14629 4.22838 0
M  V30 578 C 56.9627 -2.77616 3.45607 0
M  V30 579 H 54.1827 -0.28928 0.605441 0
M  V30 580 H 56.7267 -0.260499 2.02834 0
M  V30 581 H 54.8817 -2.5942 2.87715 0
M  V30 582 H 55.2957 -1.77745 4.93464 0
M  V30 583 H 56.7697 -3.38759 4.35828 0
M  V30 584 H 57.2467 -3.4909 2.6652 0
M  V30 585 H 57.8527 -2.15271 3.66795 0
M  V30 586 N 56.1678 -1.49265 -0.50573 0
M  V30 587 C 57.4138 -1.58748 -1.26202 0
M  V30 588 C 57.7468 -0.271227 -1.92297 0
M  V30 589 O 57.0218 0.724831 -1.80489 0
M  V30 590 C 57.3048 -2.74332 -2.33268 0
M  V30 591 C 57.1578 -4.15737 -1.71705 0
M  V30 592 C 58.4768 -2.85576 -3.34865 0
M  V30 593 H 55.5958 -0.577826 -0.457478 0
M  V30 594 H 58.2378 -1.81532 -0.560897 0
M  V30 595 H 56.3878 -2.55036 -2.93068 0
M  V30 596 H 58.0598 -4.46537 -1.15769 0
M  V30 597 H 56.3028 -4.21605 -1.02135 0
M  V30 598 H 56.9738 -4.92477 -2.49341 0
M  V30 599 H 59.4498 -3.03127 -2.8505 0
M  V30 600 H 58.3258 -3.68135 -4.07146 0
M  V30 601 H 58.5868 -1.94732 -3.96903 0
M  V30 602 N 57.6459 0.756429 -1.3826 0
M  V30 603 C 58.8709 1.55077 -1.37717 0
M  V30 604 C 59.2959 1.88073 0.03164 0
M  V30 605 O 58.6539 1.50364 1.01293 0
M  V30 606 C 58.7019 2.8283 -2.23695 0
M  V30 607 O 57.8059 3.77862 -1.6521 0
M  V30 608 H 57.1469 0.469152 -0.469885 0
M  V30 609 H 59.6769 0.935019 -1.81985 0
M  V30 610 H 59.6869 3.31783 -2.37453 0
M  V30 611 H 58.3619 2.58144 -3.2609 0
M  V30 612 H 56.9389 3.36555 -1.60578 0
M  V30 613 N 59.124 1.23083 0.984299 0
M  V30 614 C 60.401 0.9689 1.69917 0
M  V30 615 C 60.781 -0.513604 2.04757 0
M  V30 616 O 60.129 -1.48383 1.73767 0
M  V30 617 C 60.339 1.87518 2.94343 0
M  V30 618 C 61.687 2.13636 3.6694 0
M  V30 619 O 62.711 1.85036 3.04368 0
M  V30 620 O 61.57 2.62119 4.79537 0
M  V30 621 H 58.664 0.365095 0.742048 0
M  V30 622 H 61.21 1.34107 1.03987 0
M  V30 623 H 59.982 2.87756 2.65164 0
M  V30 624 H 59.605 1.50514 3.6801 0
M  V30 625 N 60.6021 -1.18246 1.0419 0
M  V30 626 C 61.5321 -2.24127 0.654914 0
M  V30 627 C 62.5131 -1.66617 -0.342451 0
M  V30 628 O 63.6981 -1.92924 -0.222277 0
M  V30 629 C 60.8281 -3.47295 0.0183757 0
M  V30 630 C 59.7821 -4.17563 0.939414 0
M  V30 631 C 59.1081 -5.34438 0.167286 0
M  V30 632 C 60.4081 -4.70917 2.25908 0
M  V30 633 H 62.1021 -2.56753 1.54007 0
M  V30 634 H 59.6481 -1.23414 0.74195 0
M  V30 635 H 61.6011 -4.20572 -0.264082 0
M  V30 636 H 60.3251 -3.13907 -0.901664 0
M  V30 637 H 58.9841 -3.46186 1.20628 0
M  V30 638 H 58.6321 -4.97298 -0.7552 0
M  V30 639 H 58.3321 -5.82388 0.780901 0
M  V30 640 H 59.8561 -6.10504 -0.108125 0
M  V30 641 H 61.2701 -5.35882 2.03724 0
M  V30 642 H 59.6671 -5.29406 2.82577 0
M  V30 643 H 60.7371 -3.88272 2.9047 0
M  V30 644 N 62.0802 -0.821533 -1.34494 0
M  V30 645 C 63.3102 -0.421272 -2.02259 0
M  V30 646 C 63.7182 0.977047 -1.6202 0
M  V30 647 O 63.0612 1.64348 -0.820703 0
M  V30 648 C 63.1232 -0.44231 -3.56769 0
M  V30 649 C 62.7872 -1.79372 -4.20327 0
M  V30 650 C 63.7842 -2.75435 -4.40944 0
M  V30 651 C 61.4692 -2.08182 -4.57127 0
M  V30 652 C 63.4632 -3.98482 -4.97484 0
M  V30 653 C 61.1502 -3.31489 -5.13379 0
M  V30 654 C 62.1482 -4.26457 -5.33501 0
M  V30 655 O 61.8362 -5.47585 -5.88562 0
M  V30 656 H 61.5682 -0.167473 -0.654927 0
M  V30 657 H 64.1222 -1.11073 -1.72777 0
M  V30 658 H 62.3522 0.303836 -3.85505 0
M  V30 659 H 64.0412 -0.0622925 -4.05852 0
M  V30 660 H 64.8072 -2.54473 -4.12878 0
M  V30 661 H 60.6862 -1.35066 -4.4077 0
M  V30 662 H 64.2302 -4.72618 -5.13106 0
M  V30 663 H 60.1272 -3.52316 -5.40873 0
M  V30 664 H 60.8952 -5.49086 -6.06998 0
M  V30 665 N 63.5583 1.46682 -0.576371 0
M  V30 666 C 64.5213 2.28707 0.150239 0
M  V30 667 C 65.5213 1.38035 0.824794 0
M  V30 668 O 66.7113 1.60476 0.677719 0
M  V30 669 C 63.8433 3.18248 1.22192 0
M  V30 670 H 65.0363 2.94423 -0.570521 0
M  V30 671 H 62.5893 1.52688 -0.334078 0
M  V30 672 H 63.3243 2.57265 1.97447 0
M  V30 673 H 63.1093 3.85 0.742812 0
M  V30 674 H 64.5993 3.80001 1.73172 0
M  V30 675 N 65.0364 0.313813 1.54444 0
M  V30 676 C 65.9694 -0.598866 2.20202 0
M  V30 677 C 66.9474 -1.12318 1.17573 0
M  V30 678 O 68.1314 -1.18899 1.46271 0
M  V30 679 C 65.2584 -1.82071 2.85601 0
M  V30 680 C 64.3044 -1.42851 4.01865 0
M  V30 681 S 65.1374 -0.473512 5.33402 0
M  V30 682 C 66.2934 -1.70286 6.0229 0
M  V30 683 H 66.5264 -0.0402532 2.97273 0
M  V30 684 H 64.0594 0.0979165 1.54089 0
M  V30 685 H 66.0174 -2.52184 3.23904 0
M  V30 686 H 64.6784 -2.3505 2.08351 0
M  V30 687 H 63.8714 -2.33871 4.46453 0
M  V30 688 H 63.4734 -0.807198 3.65185 0
M  V30 689 H 65.7654 -2.64168 6.23876 0
M  V30 690 H 66.7084 -1.29932 6.96077 0
M  V30 691 H 67.1164 -1.88541 5.32083 0
M  V30 692 N 66.5145 -1.57545 0.0417849 0
M  V30 693 C 67.4625 -2.12148 -0.953723 0
M  V30 694 C 68.4565 -1.05104 -1.32852 0
M  V30 695 O 69.6625 -1.23524 -1.30927 0
M  V30 696 H 66.0375 -0.677957 -0.325389 0
M  V30 697 H 68.0085 -2.94707 -0.467991 0
M  V30 698 C 66.7575 -2.6739 -2.22257 0
M  V30 699 H 66.0805 -3.49413 -1.94295 0
M  V30 700 H 67.5205 -3.09227 -2.90094 0
M  V30 701 C 65.9795 -1.60723 -2.96091 0
M  V30 702 O 66.5095 -1.01449 -3.88679 0
M  V30 703 N 64.7155 -1.32466 -2.58652 0
M  V30 704 H 64.2625 -1.80856 -1.83437 0
M  V30 705 H 64.2205 -0.61325 -3.08361 0
M  V30 706 N 67.9926 0.231505 -1.5589 0
M  V30 707 C 68.9226 1.29022 -1.94617 0
M  V30 708 C 69.9036 1.4941 -0.813067 0
M  V30 709 O 71.0886 1.6176 -1.07459 0
M  V30 710 C 68.2186 2.64199 -2.25424 0
M  V30 711 C 67.1726 2.58484 -3.41131 0
M  V30 712 C 66.4986 3.97599 -3.57518 0
M  V30 713 C 67.7986 2.1413 -4.76388 0
M  V30 714 H 69.4926 0.968563 -2.83301 0
M  V30 715 H 67.0386 0.464479 -1.36303 0
M  V30 716 H 68.9916 3.38413 -2.51107 0
M  V30 717 H 67.7156 2.98032 -1.33583 0
M  V30 718 H 66.3746 1.86727 -3.15481 0
M  V30 719 H 66.0226 4.28723 -2.6307 0
M  V30 720 H 65.7226 3.94659 -4.35337 0
M  V30 721 H 67.2466 4.7349 -3.85538 0
M  V30 722 H 68.6606 2.78083 -5.01341 0
M  V30 723 H 67.0576 2.2227 -5.57419 0
M  V30 724 H 68.1276 1.09331 -4.72414 0
M  V30 725 N 69.4707 1.49531 0.497807 0
M  V30 726 C 70.3807 1.69176 1.62532 0
M  V30 727 C 71.3967 0.5744 1.64246 0
M  V30 728 O 72.5727 0.849497 1.82608 0
M  V30 729 C 69.6377 1.75695 2.98885 0
M  V30 730 C 68.6987 2.9929 3.07773 0
M  V30 731 C 67.9317 3.05488 4.37622 0
M  V30 732 O 68.1547 2.19192 5.26603 0
M  V30 733 O 67.0887 3.9798 4.51548 0
M  V30 734 H 70.9147 2.647 1.48887 0
M  V30 735 H 68.4997 1.3331 0.674441 0
M  V30 736 H 70.3817 1.82317 3.79919 0
M  V30 737 H 69.0567 0.8335 3.12785 0
M  V30 738 H 67.9637 2.98183 2.25915 0
M  V30 739 H 69.2967 3.91125 2.98801 0
M  V30 740 N 70.9488 -0.749086 1.3866 0
M  V30 741 C 72.3598 -1.32664 1.31366 0
M  V30 742 C 72.7108 -1.96179 -0.028484 0
M  V30 743 O 71.8358 -1.9537 -0.93057 0
M  V30 744 C 72.4308 -2.41219 2.37905 0
M  V30 745 C 70.9898 -2.94684 2.34176 0
M  V30 746 C 70.1368 -1.68108 2.20533 0
M  V30 747 H 73.0878 -0.547628 1.48952 0
M  V30 748 H 73.1088 -3.21268 2.0388 0
M  V30 749 H 72.6208 -1.94962 3.35576 0
M  V30 750 H 70.7218 -3.45258 1.401 0
M  V30 751 H 70.8348 -3.48757 3.2849 0
M  V30 752 H 69.1988 -1.91907 1.67463 0
M  V30 753 H 69.9818 -1.23923 3.20153 0
M  V30 754 N 72.4269 -1.23603 -0.977757 0
M  V30 755 C 73.8429 -0.999251 -1.24447 0
M  V30 756 C 74.0429 0.298053 -1.99283 0
M  V30 757 O 73.0989 1.01681 -2.31122 0
M  V30 758 C 74.4119 -2.20784 -2.04144 0
M  V30 759 C 75.9599 -2.25303 -2.17273 0
M  V30 760 C 76.4349 -3.45755 -3.00362 0
M  V30 761 N 77.9259 -3.4601 -3.07947 0
M  V30 762 C 78.6609 -4.35868 -3.72568 0
M  V30 763 N 78.1569 -5.35966 -4.38991 0
M  V30 764 N 79.9499 -4.23605 -3.6948 0
M  V30 765 H 72.1009 -2.06986 -0.476483 0
M  V30 766 H 74.3639 -0.907801 -0.273134 0
M  V30 767 H 74.0699 -3.14945 -1.56533 0
M  V30 768 H 73.9439 -2.22085 -3.04891 0
M  V30 769 H 76.3309 -1.3168 -2.64092 0
M  V30 770 H 76.4119 -2.28033 -1.15907 0
M  V30 771 H 76.0559 -4.39687 -2.5424 0
M  V30 772 H 75.9859 -3.40266 -4.01904 0
M  V30 773 H 78.4769 -2.73588 -2.60688 0
M  V30 774 H 78.7899 -6.00783 -4.86086 0
M  V30 775 H 77.1349 -5.39863 -4.37691 0
M  V30 776 H 80.3259 -3.44647 -3.16759 0
M  V30 777 H 80.4989 -4.93836 -4.1956 0
M  V30 778 N 73.905 1.17692 -1.04816 0
M  V30 779 C 74.868 2.19787 -0.650117 0
M  V30 780 C 75.868 1.58044 0.296427 0
M  V30 781 O 77.058 1.74012 0.0808097 0
M  V30 782 C 74.19 3.40869 0.0456987 0
M  V30 783 H 75.383 2.56516 -1.5537 0
M  V30 784 H 72.936 1.31708 -0.841594 0
M  V30 785 H 73.671 3.09681 0.962726 0
M  V30 786 H 73.456 3.86928 -0.634727 0
M  V30 787 H 74.946 4.16445 0.310432 0
M  V30 788 N 75.3831 0.828654 1.34056 0
M  V30 789 C 76.6111 0.43262 2.02326 0
M  V30 790 C 77.0261 -0.963147 1.62385 0
M  V30 791 O 76.3831 -1.62425 0.832121 0
M  V30 792 C 76.4341 0.53182 3.57567 0
M  V30 793 O 76.1551 1.87258 3.96063 0
M  V30 794 C 77.6561 0.131422 4.43105 0
M  V30 795 H 74.8761 0.172923 0.648335 0
M  V30 796 H 77.4201 1.1184 1.71208 0
M  V30 797 H 75.5751 -0.105938 3.87255 0
M  V30 798 H 75.9891 1.85087 4.90758 0
M  V30 799 H 77.4631 0.251904 5.51425 0
M  V30 800 H 77.9401 -0.925645 4.29335 0
M  V30 801 H 78.5461 0.743207 4.18756 0
M  V30 802 N 76.8612 -1.46375 0.584142 0
M  V30 803 C 78.1382 -1.956 0.0033388 0
M  V30 804 C 78.5182 -1.52679 -1.45782 0
M  V30 805 O 77.8662 -0.77816 -2.14842 0
M  V30 806 C 78.0762 -3.48551 0.176891 0
M  V30 807 C 79.4242 -4.24576 0.0454609 0
M  V30 808 O 80.4482 -3.56043 0.105801 0
M  V30 809 O 79.3072 -5.46427 -0.0890376 0
M  V30 810 H 76.4012 -0.825547 -0.0490066 0
M  V30 811 H 78.9472 -1.56652 0.65256 0
M  V30 812 H 77.7192 -3.72683 1.1926 0
M  V30 813 H 77.3422 -3.94332 -0.508695 0
M  V30 814 N 78.3393 -0.321999 -1.54275 0
M  V30 815 C 79.2863 0.544664 -2.24281 0
M  V30 816 C 80.2563 1.1129 -1.23303 0
M  V30 817 O 81.4413 1.15354 -1.51981 0
M  V30 818 C 78.5813 1.70045 -3.00298 0
M  V30 819 C 77.6943 1.16159 -4.1609 0
M  V30 820 C 76.8293 2.28293 -4.79641 0
M  V30 821 C 75.8683 1.71648 -5.8754 0
M  V30 822 N 75.0053 2.77438 -6.44959 0
M  V30 823 H 79.8453 -0.0588907 -2.97942 0
M  V30 824 H 77.3823 -0.0408345 -1.47043 0
M  V30 825 H 79.3403 2.38054 -3.42616 0
M  V30 826 H 77.9703 2.27531 -2.28975 0
M  V30 827 H 77.0223 0.373092 -3.78566 0
M  V30 828 H 78.3343 0.707087 -4.93763 0
M  V30 829 H 77.4883 3.0421 -5.2492 0
M  V30 830 H 76.2273 2.77079 -4.01346 0
M  V30 831 H 75.2323 0.942282 -5.41665 0
M  V30 832 H 76.4573 1.23741 -6.67731 0
M  V30 833 H 74.4033 3.25519 -5.69538 0
M  V30 834 H 74.3203 2.36547 -7.1804 0
M  V30 835 H 75.5883 3.53189 -6.94894 0
M  V30 836 N 79.8174 1.5752 -0.0501392 0
M  V30 837 C 81.0944 1.83996 0.663685 0
M  V30 838 C 81.4744 0.938339 1.89099 0
M  V30 839 O 80.8224 -0.00087759 2.285 0
M  V30 840 C 81.0324 3.33702 1.02196 0
M  V30 841 C 82.3804 4.00691 1.40469 0
M  V30 842 O 83.4044 3.38321 1.11433 0
M  V30 843 O 82.2634 5.10658 1.94654 0
M  V30 844 H 79.3574 0.759385 0.32751 0
M  V30 845 H 81.9034 1.69514 -0.0794238 0
M  V30 846 H 80.6754 3.91015 0.149364 0
M  V30 847 H 80.2984 3.53368 1.82255 0
M  V30 848 N 81.2955 -0.223234 1.56011 0
M  V30 849 C 82.5445 -0.945912 1.78144 0
M  V30 850 C 82.8575 -1.85567 0.618396 0
M  V30 851 O 84.0635 -2.61688 0.723318 0
M  V30 852 C 82.5195 -1.73216 3.15475 0
M  V30 853 C 82.1275 -0.868619 4.39499 0
M  V30 854 C 83.8715 -2.44615 3.46935 0
M  V30 855 C 81.7785 -1.65212 5.67855 0
M  V30 856 H 80.7085 -0.356929 0.664167 0
M  V30 857 H 83.3595 -0.199845 1.82409 0
M  V30 858 H 81.7415 -2.52107 3.05382 0
M  V30 859 H 82.9155 -0.120366 4.60643 0
M  V30 860 H 81.2305 -0.26683 4.15544 0
M  V30 861 H 83.8275 -3.03732 4.40058 0
M  V30 862 H 84.1705 -3.17417 2.69355 0
M  V30 863 H 84.7035 -1.72715 3.58349 0
M  V30 864 H 81.4425 -0.967407 6.48322 0
M  V30 865 H 80.9625 -2.37503 5.50774 0
M  V30 866 H 82.6415 -2.21322 6.07968 0
M  V30 867 N 82.7736 -1.49793 -0.48987 0
M  V30 868 C 84.0016 -1.63568 -1.26701 0
M  V30 869 C 84.4166 -0.311465 -1.86213 0
M  V30 870 O 83.7736 0.704416 -1.68357 0
M  V30 871 C 83.8246 -2.71284 -2.38929 0
M  V30 872 O 83.5456 -3.9857 -1.81861 0
M  V30 873 C 85.0466 -2.95864 -3.3012 0
M  V30 874 H 82.2666 -0.550342 -0.383881 0
M  V30 875 H 84.8106 -1.95898 -0.586864 0
M  V30 876 H 82.9656 -2.417 -3.02753 0
M  V30 877 H 83.3796 -4.57993 -2.55622 0
M  V30 878 H 84.8536 -3.74941 -4.05121 0
M  V30 879 H 85.3306 -2.06206 -3.87783 0
M  V30 880 H 85.9366 -3.26907 -2.72051 0
M  V30 881 N 84.2517 0.741722 -1.39055 0
M  V30 882 C 85.4997 1.49818 -1.35643 0
M  V30 883 C 85.8207 1.94938 0.0491642 0
M  V30 884 O 85.0907 1.68505 0.999141 0
M  V30 885 H 83.6707 0.555755 -0.499144 0
M  V30 886 H 86.3327 0.880957 -1.73854 0
M  V30 887 H 85.4287 2.38348 -2.01486 0
M  V30 888 N 85.7298 1.2412 0.971189 0
M  V30 889 C 86.9578 1.10575 1.74874 0
M  V30 890 C 87.3728 -0.342017 1.85676 0
M  V30 891 O 86.7298 -1.23617 1.34258 0
M  V30 892 C 86.7808 1.73579 3.171 0
M  V30 893 O 86.5018 3.12695 3.06844 0
M  V30 894 C 88.0028 1.65598 4.11208 0
M  V30 895 H 85.2228 0.386504 0.548503 0
M  V30 896 H 87.7668 1.64156 1.21955 0
M  V30 897 H 85.9218 1.24009 3.67016 0
M  V30 898 H 86.3358 3.43412 3.96445 0
M  V30 899 H 87.8098 2.1437 5.08674 0
M  V30 900 H 88.2868 0.616532 4.34851 0
M  V30 901 H 88.8928 2.14578 3.67201 0
M  V30 902 N 87.2079 -1.17134 1.05439 0
M  V30 903 C 88.1379 -2.2342 0.678649 0
M  V30 904 C 89.1189 -1.66971 -0.32476 0
M  V30 905 O 90.3039 -1.93149 -0.201802 0
M  V30 906 C 87.4339 -3.47256 0.0552099 0
M  V30 907 C 86.3879 -4.16543 0.98365 0
M  V30 908 C 85.7139 -5.34231 0.223961 0
M  V30 909 C 87.0139 -4.68495 2.3089 0
M  V30 910 H 88.7079 -2.55105 1.56722 0
M  V30 911 H 86.2539 -1.2262 0.754998 0
M  V30 912 H 88.2069 -4.20828 -0.21946 0
M  V30 913 H 86.9309 -3.14846 -0.868319 0
M  V30 914 H 85.5899 -3.44887 1.24293 0
M  V30 915 H 85.2379 -4.98071 -0.702412 0
M  V30 916 H 84.9379 -5.81527 0.842627 0
M  V30 917 H 86.4619 -6.10585 -0.0433671 0
M  V30 918 H 87.8759 -5.33691 2.09396 0
M  V30 919 H 86.2729 -5.26379 2.88176 0
M  V30 920 H 87.3429 -3.85169 2.94572 0
M  V30 921 N 88.686 -0.835752 -1.33615 0
M  V30 922 C 89.911 -0.442389 -2.02627 0
M  V30 923 C 90.336 0.947735 -1.62479 0
M  V30 924 O 89.694 1.61907 -0.815826 0
M  V30 925 C 89.742 -0.567216 -3.56111 0
M  V30 926 O 88.846 0.407799 -4.10379 0
M  V30 927 H 88.187 -0.180278 -0.639059 0
M  V30 928 H 90.717 -1.12972 -1.70583 0
M  V30 929 H 90.727 -0.447708 -4.05536 0
M  V30 930 H 89.402 -1.58103 -3.84677 0
M  V30 931 H 87.979 0.246107 -3.72087 0
M  V30 932 N 90.1641 1.46063 -0.591896 0
M  V30 933 C 91.1121 2.32124 0.148739 0
M  V30 934 C 92.1061 1.45035 0.875286 0
M  V30 935 O 93.3121 1.61609 0.792632 0
M  V30 936 H 89.6871 0.749024 0.066832 0
M  V30 937 H 91.6581 2.92392 -0.595783 0
M  V30 938 C 90.4071 3.28373 1.1431 0
M  V30 939 H 89.7301 3.95371 0.59346 0
M  V30 940 H 91.1701 3.91352 1.63155 0
M  V30 941 C 89.6291 2.54393 2.20875 0
M  V30 942 O 90.1591 2.31373 3.28374 0
M  V30 943 N 88.3651 2.14797 1.95731 0
M  V30 944 H 87.9121 2.33719 1.08319 0
M  V30 945 H 87.8701 1.65619 2.67241 0
M  V30 946 N 91.6422 0.330177 1.54103 0
M  V30 947 C 93.0532 -0.15652 1.86043 0
M  V30 948 C 93.4042 -1.51086 1.2517 0
M  V30 949 O 92.5292 -2.09023 0.560217 0
M  V30 950 C 93.1242 -0.290784 3.3755 0
M  V30 951 C 91.6832 -0.721705 3.69416 0
M  V30 952 C 90.8302 0.152622 2.7688 0
M  V30 953 H 93.7812 0.550237 1.48856 0
M  V30 954 H 93.8022 -1.12058 3.63625 0
M  V30 955 H 93.3142 0.695068 3.81825 0
M  V30 956 H 91.4152 -1.71706 3.30678 0
M  V30 957 H 91.5282 -0.520869 4.7626 0
M  V30 958 H 89.8922 -0.372894 2.51956 0
M  V30 959 H 90.6752 1.13536 3.23982 0
M  V30 960 N 93.1203 -1.57491 0.0584922 0
M  V30 961 C 94.0303 -2.15448 -0.928414 0
M  V30 962 C 95.0463 -1.11416 -1.3365 0
M  V30 963 O 96.2223 -1.4362 -1.41193 0
M  V30 964 C 93.2873 -2.69393 -2.18239 0
M  V30 965 C 92.3483 -3.88249 -1.83196 0
M  V30 966 C 91.5813 -4.39613 -3.02616 0
M  V30 967 O 91.8043 -3.90023 -4.16219 0
M  V30 968 O 90.7383 -5.31111 -2.83204 0
M  V30 969 H 94.5643 -3.00112 -0.465483 0
M  V30 970 H 92.1493 -1.48499 -0.163826 0
M  V30 971 H 94.0313 -3.04026 -2.91798 0
M  V30 972 H 92.7063 -1.87796 -2.63656 0
M  V30 973 H 91.6133 -3.58492 -1.06931 0
M  V30 974 H 92.9463 -4.71098 -1.42573 0
M  V30 975 N 94.5984 0.214957 -1.56127 0
M  V30 976 C 95.8444 0.939762 -1.79712 0
M  V30 977 C 96.1774 1.83723 -0.629247 0
M  V30 978 O 95.4524 1.90925 0.371197 0
M  V30 979 C 95.7354 1.77306 -3.13424 0
M  V30 980 C 95.5884 0.90164 -4.40671 0
M  V30 981 C 96.9074 2.74956 -3.43638 0
M  V30 982 H 94.0264 0.340214 -0.653776 0
M  V30 983 H 96.6684 0.20824 -1.88855 0
M  V30 984 H 94.8184 2.39673 -3.0576 0
M  V30 985 H 96.4904 0.294206 -4.60361 0
M  V30 986 H 94.7334 0.207368 -4.33304 0
M  V30 987 H 95.4044 1.51923 -5.30682 0
M  V30 988 H 97.8804 2.22724 -3.51473 0
M  V30 989 H 96.7564 3.30358 -4.38355 0
M  V30 990 H 97.0174 3.53023 -2.66134 0
M  V30 991 N 96.0765 1.50051 0.48192 0
M  V30 992 C 97.3235 1.60498 1.23477 0
M  V30 993 C 97.6515 0.300331 1.92167 0
M  V30 994 O 96.9065 -0.713094 1.82246 0
M  V30 995 C 97.2055 2.72717 2.30998 0
M  V30 996 C 96.8715 4.13572 1.79636 0
M  V30 997 C 95.5335 4.519 1.65348 0
M  V30 998 C 97.8855 5.01649 1.41412 0
M  V30 999 C 95.2135 5.76057 1.11244 0
M  V30 1000 C 97.5655 6.26343 0.887538 0
M  V30 1001 C 96.2295 6.63483 0.731207 0
M  V30 1002 H 95.4995 0.587303 0.451836 0
M  V30 1003 H 98.1465 1.83948 0.532468 0
M  V30 1004 H 96.4515 2.43312 3.07094 0
M  V30 1005 H 98.1485 2.78006 2.88988 0
M  V30 1006 H 94.7385 3.83329 1.91721 0
M  V30 1007 H 98.9225 4.72679 1.51289 0
M  V30 1008 H 94.1785 6.03516 0.978686 0
M  V30 1009 H 98.3525 6.93958 0.582654 0
M  V30 1010 H 95.9795 7.59568 0.309806 0
M  V30 1011 N 97.5546 -0.734337 1.39446 0
M  V30 1012 C 98.5026 -1.86971 1.38364 0
M  V30 1013 C 99.4966 -1.67288 0.266687 0
M  V30 1014 O 100.703 -1.74621 0.436755 0
M  V30 1015 H 97.0776 -0.615474 0.432082 0
M  V30 1016 H 99.0486 -1.85 2.34132 0
M  V30 1017 C 97.7976 -3.2466 1.24465 0
M  V30 1018 H 97.1206 -3.40402 2.09682 0
M  V30 1019 H 98.5606 -4.04292 1.27764 0
M  V30 1020 C 97.0196 -3.36867 -0.0468674 0
M  V30 1021 O 97.5496 -3.88618 -1.01681 0
M  V30 1022 N 95.7556 -2.90391 -0.110145 0
M  V30 1023 H 95.3026 -2.48466 0.679868 0
M  V30 1024 H 95.2606 -2.98939 -0.973799 0
M  V30 1025 N 99.0327 -1.24633 -0.964593 0
M  V30 1026 C 100.263 -1.11339 -1.74032 0
M  V30 1027 C 100.671 0.336593 -1.86182 0
M  V30 1028 O 100.014 1.24389 -1.35178 0
M  V30 1029 C 100.076 -1.68284 -3.1768 0
M  V30 1030 C 99.7397 -3.17196 -3.28992 0
M  V30 1031 C 100.737 -4.14308 -3.14078 0
M  V30 1032 C 98.4217 -3.57215 -3.53133 0
M  V30 1033 C 100.416 -5.4942 -3.23135 0
M  V30 1034 C 98.1027 -4.92468 -3.61827 0
M  V30 1035 C 99.1007 -5.8838 -3.46841 0
M  V30 1036 O 98.7887 -7.21173 -3.55197 0
M  V30 1037 H 98.5207 -0.389551 -0.552472 0
M  V30 1038 H 101.075 -1.65282 -1.21946 0
M  V30 1039 H 99.3047 -1.08777 -3.71085 0
M  V30 1040 H 100.994 -1.50234 -3.77074 0
M  V30 1041 H 101.76 -3.84731 -2.95308 0
M  V30 1042 H 97.6387 -2.83063 -3.63863 0
M  V30 1043 H 101.183 -6.24263 -3.11355 0
M  V30 1044 H 97.0797 -5.21714 -3.80111 0
M  V30 1045 H 97.8477 -7.29135 -3.71892 0
M  V30 1046 N 100.511 1.16574 -1.06058 0
M  V30 1047 C 101.759 1.86677 -0.77434 0
M  V30 1048 C 102.08 1.81959 0.701147 0
M  V30 1049 O 101.35 1.2515 1.50713 0
M  V30 1050 H 99.9298 0.691134 -0.283449 0
M  V30 1051 H 102.592 1.41378 -1.34158 0
M  V30 1052 H 101.688 2.92181 -1.09711 0
M  V30 1053 N 101.989 0.842826 1.3317 0
M  V30 1054 C 103.235 0.441099 1.97945 0
M  V30 1055 C 103.568 -0.998024 1.66593 0
M  V30 1056 O 102.843 -1.69839 0.947898 0
M  V30 1057 C 103.126 0.666841 3.53872 0
M  V30 1058 C 102.979 2.15352 3.94897 0
M  V30 1059 C 104.298 0.115544 4.39948 0
M  V30 1060 H 101.417 0.161739 0.719034 0
M  V30 1061 H 104.059 1.05907 1.57746 0
M  V30 1062 H 102.209 0.140828 3.88245 0
M  V30 1063 H 103.881 2.7447 3.70761 0
M  V30 1064 H 102.124 2.63653 3.44484 0
M  V30 1065 H 102.795 2.26221 5.03516 0
M  V30 1066 H 105.271 0.565213 4.12243 0
M  V30 1067 H 104.147 0.303152 5.48062 0
M  V30 1068 H 104.408 -0.980935 4.3108 0
M  V30 1069 N 103.467 -1.45747 0.599634 0
M  V30 1070 C 104.377 -2.34262 -0.125888 0
M  V30 1071 C 105.393 -1.50768 -0.868625 0
M  V30 1072 O 106.569 -1.83592 -0.828003 0
M  V30 1073 C 103.634 -3.28252 -1.11587 0
M  V30 1074 C 102.695 -4.27651 -0.375956 0
M  V30 1075 C 101.928 -5.1715 -1.31877 0
M  V30 1076 O 102.151 -5.09916 -2.55621 0
M  V30 1077 O 101.085 -5.96286 -0.820157 0
M  V30 1078 H 104.911 -2.97688 0.601315 0
M  V30 1079 H 102.496 -1.44999 0.359934 0
M  V30 1080 H 104.378 -3.86191 -1.68626 0
M  V30 1081 H 103.053 -2.67401 -1.82424 0
M  V30 1082 H 101.96 -3.7335 0.236698 0
M  V30 1083 H 103.293 -4.91334 0.29177 0
M  V30 1084 N 104.945 -0.338344 -1.53925 0
M  V30 1085 C 106.173 0.261298 -2.05243 0
M  V30 1086 C 106.588 1.44625 -1.21363 0
M  V30 1087 O 105.945 1.80811 -0.247736 0
M  V30 1088 C 105.996 0.681412 -3.5502 0
M  V30 1089 O 105.717 -0.456414 -4.35716 0
M  V30 1090 C 107.218 1.34232 -4.22489 0
M  V30 1091 H 104.438 0.0513685 -0.669031 0
M  V30 1092 H 106.982 -0.488822 -1.98572 0
M  V30 1093 H 105.137 1.38148 -3.61931 0
M  V30 1094 H 105.551 -0.122564 -5.24357 0
M  V30 1095 H 107.025 1.58708 -5.28693 0
M  V30 1096 H 107.502 2.29426 -3.74514 0
M  V30 1097 H 108.108 0.684424 -4.19757 0
M  V30 1098 N 106.423 1.57458 -0.0668435 0
M  V30 1099 C 107.373 2.0896 0.912119 0
M  V30 1100 C 108.357 0.998186 1.26195 0
M  V30 1101 O 109.549 1.26133 1.24175 0
M  V30 1102 C 106.678 2.6508 2.18145 0
M  V30 1103 C 105.764 3.81218 1.85832 0
M  V30 1104 N 106.155 4.90378 1.23948 0
M  V30 1105 C 104.453 3.9042 2.15612 0
M  V30 1106 C 105.154 5.71279 1.09616 0
M  V30 1107 N 104.13 5.19389 1.60423 0
M  V30 1108 H 107.932 2.90749 0.42924 0
M  V30 1109 H 105.446 1.6182 0.137184 0
M  V30 1110 H 107.443 3.0029 2.89192 0
M  V30 1111 H 106.103 1.84736 2.67025 0
M  V30 1112 H 107.114 5.09847 0.909731 0
M  V30 1113 H 103.791 3.21043 2.66903 0
M  V30 1114 H 105.181 6.69085 0.614425 0
M  V30 1115 N 107.901 -0.206675 1.56239 0
M  V30 1116 C 108.811 -1.27686 1.96808 0
M  V30 1117 C 109.827 -1.50455 0.874035 0
M  V30 1118 O 111.003 -1.63295 1.17884 0
M  V30 1119 C 108.068 -2.60358 2.28942 0
M  V30 1120 C 107.129 -2.45762 3.51994 0
M  V30 1121 C 106.362 -3.72108 3.82585 0
M  V30 1122 O 106.585 -4.75776 3.14631 0
M  V30 1123 O 105.519 -3.6833 4.76043 0
M  V30 1124 H 109.345 -0.962593 2.88041 0
M  V30 1125 H 106.93 -0.410746 1.43643 0
M  V30 1126 H 108.812 -3.38687 2.50737 0
M  V30 1127 H 107.487 -2.91435 1.4088 0
M  V30 1128 H 106.394 -1.65584 3.35459 0
M  V30 1129 H 107.727 -2.19621 4.40486 0
M  V30 1130 N 109.379 -1.50304 -0.473955 0
M  V30 1131 C 110.342 -1.6841 -1.55469 0
M  V30 1132 C 111.342 -0.554905 -1.50922 0
M  V30 1133 O 112.532 -0.821882 -1.53593 0
M  V30 1134 C 109.664 -1.70667 -2.95102 0
M  V30 1135 H 110.857 -2.64828 -1.40733 0
M  V30 1136 H 108.41 -1.39742 -0.700132 0
M  V30 1137 H 109.145 -0.75932 -3.15285 0
M  V30 1138 H 108.93 -2.52698 -2.9981 0
M  V30 1139 H 110.42 -1.8664 -3.73571 0
M  V30 1140 N 110.857 0.726932 -1.39834 0
M  V30 1141 C 112.087 1.51393 -1.40583 0
M  V30 1142 C 112.495 1.892 -0.000740625 0
M  V30 1143 O 111.838 1.55189 0.982951 0
M  V30 1144 C 111.9 2.82588 -2.22226 0
M  V30 1145 C 111.564 2.67169 -3.70769 0
M  V30 1146 C 112.561 2.3518 -4.63666 0
M  V30 1147 C 110.246 2.83788 -4.14451 0
M  V30 1148 C 112.24 2.20002 -5.98229 0
M  V30 1149 C 109.927 2.68229 -5.49087 0
M  V30 1150 C 110.925 2.36382 -6.4079 0
M  V30 1151 O 110.613 2.2093 -7.72946 0
M  V30 1152 H 110.345 0.474168 -0.48181 0
M  V30 1153 H 112.899 0.905247 -1.84376 0
M  V30 1154 H 111.129 3.45746 -1.73195 0
M  V30 1155 H 112.818 3.44247 -2.15055 0
M  V30 1156 H 113.584 2.21984 -4.31217 0
M  V30 1157 H 109.463 3.07566 -3.43401 0
M  V30 1158 H 113.007 1.95067 -6.69772 0
M  V30 1159 H 108.904 2.81006 -5.81125 0
M  V30 1160 H 109.672 2.35937 -7.83757 0
M  V30 1161 N 112.336 1.25143 0.95797 0
M  V30 1162 C 113.283 1.05235 2.05412 0
M  V30 1163 C 114.253 -0.0374561 1.66058 0
M  V30 1164 O 115.438 0.119073 1.90428 0
M  V30 1165 C 112.578 0.673589 3.38462 0
M  V30 1166 C 111.691 1.8379 3.90954 0
M  V30 1167 C 110.826 1.40381 5.12315 0
M  V30 1168 C 109.865 2.53746 5.57027 0
M  V30 1169 N 109.002 2.11136 6.69601 0
M  V30 1170 H 113.842 1.99048 2.21774 0
M  V30 1171 H 111.379 0.991277 1.08683 0
M  V30 1172 H 113.337 0.434964 4.14926 0
M  V30 1173 H 111.967 -0.227554 3.21997 0
M  V30 1174 H 111.019 2.18992 3.11041 0
M  V30 1175 H 112.331 2.68937 4.20089 0
M  V30 1176 H 111.485 1.12464 5.96185 0
M  V30 1177 H 110.224 0.523015 4.84887 0
M  V30 1178 H 109.229 2.82412 4.71724 0
M  V30 1179 H 110.454 3.42398 5.86464 0
M  V30 1180 H 108.4 1.25468 6.4389 0
M  V30 1181 H 108.317 2.89832 6.98236 0
M  V30 1182 H 109.585 1.86385 7.56889 0
M  V30 1183 N 113.814 -1.1601 1.06675 0
M  V30 1184 C 114.746 -2.20115 0.638921 0
M  V30 1185 C 115.759 -1.59916 -0.305057 0
M  V30 1186 O 116.948 -1.78245 -0.0954446 0
M  V30 1187 C 114.048 -3.38798 -0.0830083 0
M  V30 1188 C 113.221 -4.2855 0.875426 0
M  V30 1189 C 112.28 -5.25849 0.192042 0
M  V30 1190 O 111.306 -5.63102 0.830921 0
M  V30 1191 N 112.508 -5.70648 -1.06493 0
M  V30 1192 H 115.273 -2.57439 1.53444 0
M  V30 1193 H 112.834 -1.31057 0.950557 0
M  V30 1194 H 114.826 -4.00936 -0.550685 0
M  V30 1195 H 113.396 -2.99947 -0.880386 0
M  V30 1196 H 112.616 -3.63617 1.52238 0
M  V30 1197 H 113.904 -4.85393 1.52548 0
M  V30 1198 H 113.302 -5.42482 -1.60405 0
M  V30 1199 H 111.859 -6.34859 -1.47641 0
M  V30 1200 N 115.292 -0.849877 -1.32721 0
M  V30 1201 C 116.708 -0.539102 -1.50219 0
M  V30 1202 C 116.908 0.931271 -1.78689 0
M  V30 1203 O 115.964 1.71455 -1.85363 0
M  V30 1204 C 117.277 -1.42196 -2.64954 0
M  V30 1205 C 118.825 -1.42189 -2.78839 0
M  V30 1206 C 119.3 -2.28985 -3.96648 0
M  V30 1207 N 120.791 -2.26754 -4.03902 0
M  V30 1208 C 121.526 -2.90644 -4.94281 0
M  V30 1209 N 121.022 -3.63629 -5.897 0
M  V30 1210 N 122.815 -2.80057 -4.87365 0
M  V30 1211 H 114.966 -1.80156 -1.12506 0
M  V30 1212 H 117.229 -0.769217 -0.554085 0
M  V30 1213 H 116.935 -2.46733 -2.50631 0
M  V30 1214 H 116.809 -1.10591 -3.60624 0
M  V30 1215 H 119.196 -0.38419 -2.92588 0
M  V30 1216 H 119.277 -1.77807 -1.83898 0
M  V30 1217 H 118.921 -3.32819 -3.83658 0
M  V30 1218 H 118.851 -1.90702 -4.90857 0
M  V30 1219 H 121.342 -1.73688 -3.3562 0
M  V30 1220 H 121.655 -4.09558 -6.55349 0
M  V30 1221 H 120 -3.67737 -5.89741 0
M  V30 1222 H 123.191 -2.22593 -4.11789 0
M  V30 1223 H 123.364 -3.30132 -5.57599 0
M  V30 1224 N 116.77 1.45427 -0.607355 0
M  V30 1225 C 117.995 2.07124 -0.107006 0
M  V30 1226 C 118.42 1.44906 1.19933 0
M  V30 1227 O 117.778 0.541687 1.73019 0
M  V30 1228 C 117.826 3.60595 0.0194119 0
M  V30 1229 O 116.93 3.98285 1.0697 0
M  V30 1230 H 116.271 0.659868 -0.0739597 0
M  V30 1231 H 118.801 1.86683 -0.837297 0
M  V30 1232 H 118.811 4.07419 0.2177 0
M  V30 1233 H 117.486 4.05266 -0.934453 0
M  V30 1234 H 116.063 3.63133 0.847889 0
M  V30 1235 N 118.248 0.346503 1.53744 0
M  V30 1236 C 119.178 -0.501193 2.28058 0
M  V30 1237 C 120.159 -1.10014 1.29734 0
M  V30 1238 O 121.344 -1.12097 1.58581 0
M  V30 1239 C 118.474 -1.65078 3.05559 0
M  V30 1240 C 117.428 -1.18003 4.11411 0
M  V30 1241 C 116.754 -2.41837 4.76884 0
M  V30 1242 C 118.054 -0.278394 5.21558 0
M  V30 1243 H 119.748 0.11875 2.99164 0
M  V30 1244 H 117.294 0.0585531 1.43881 0
M  V30 1245 H 119.247 -2.25028 3.56287 0
M  V30 1246 H 117.971 -2.29767 2.32109 0
M  V30 1247 H 116.63 -0.603331 3.61601 0
M  V30 1248 H 116.278 -3.0494 4.00026 0
M  V30 1249 H 115.978 -2.1102 5.48402 0
M  V30 1250 H 117.502 -3.02508 5.30397 0
M  V30 1251 H 118.916 -0.784823 5.67903 0
M  V30 1252 H 117.313 -0.0619707 6.00068 0
M  V30 1253 H 118.383 0.684677 4.80042 0
M  V30 1254 N 119.726 -1.57421 0.075193 0
M  V30 1255 C 120.689 -2.11791 -0.876203 0
M  V30 1256 C 121.689 -1.04268 -1.22412 0
M  V30 1257 O 122.879 -1.30242 -1.15684 0
M  V30 1258 C 120.011 -2.62207 -2.17854 0
M  V30 1259 H 121.204 -2.9716 -0.40444 0
M  V30 1260 H 118.757 -1.55333 -0.173557 0
M  V30 1261 H 119.492 -1.803 -2.6956 0
M  V30 1262 H 119.277 -3.40802 -1.93897 0
M  V30 1263 H 120.767 -3.04335 -2.85955 0
M  V30 1264 N 121.204 0.198386 -1.56346 0
M  V30 1265 C 122.429 0.939682 -1.84891 0
M  V30 1266 C 122.854 1.76202 -0.658369 0
M  V30 1267 O 122.212 1.76993 0.392851 0
M  V30 1268 C 122.26 1.81428 -3.11635 0
M  V30 1269 O 121.364 2.91265 -2.91956 0
M  V30 1270 H 120.705 0.264807 -0.608912 0
M  V30 1271 H 123.235 0.204695 -2.03573 0
M  V30 1272 H 123.245 2.21958 -3.42343 0
M  V30 1273 H 121.92 1.21004 -3.97908 0
M  V30 1274 H 120.497 2.54514 -2.72538 0
M  V30 1275 N 122.682 1.50554 0.465978 0
M  V30 1276 C 123.959 1.5232 1.22712 0
M  V30 1277 C 124.339 0.270807 2.09356 0
M  V30 1278 O 123.687 -0.745541 2.15995 0
M  V30 1279 C 123.897 2.82175 2.05374 0
M  V30 1280 C 125.245 3.33033 2.6339 0
M  V30 1281 O 126.269 2.83531 2.15612 0
M  V30 1282 O 125.128 4.19336 3.50456 0
M  V30 1283 H 122.222 0.611183 0.557122 0
M  V30 1284 H 124.768 1.62847 0.477381 0
M  V30 1285 H 123.54 3.64797 1.41558 0
M  V30 1286 H 123.163 2.74675 2.87471 0
M  V30 1287 N 124.16 -0.719506 1.40217 0
M  V30 1288 C 125.409 -1.47486 1.37589 0
M  V30 1289 C 125.722 -1.9559 -0.0201568 0
M  V30 1290 O 126.928 -2.70973 -0.169049 0
M  V30 1291 C 125.384 -2.66575 2.41796 0
M  V30 1292 C 124.992 -2.25358 3.87192 0
M  V30 1293 C 126.736 -3.4433 2.48269 0
M  V30 1294 C 124.643 -3.41262 4.83005 0
M  V30 1295 H 123.573 -0.553901 0.511576 0
M  V30 1296 H 126.224 -0.783427 1.65936 0
M  V30 1297 H 124.606 -3.3787 2.06543 0
M  V30 1298 H 125.78 -1.61509 4.31569 0
M  V30 1299 H 124.095 -1.60657 3.84159 0
M  V30 1300 H 126.692 -4.30569 3.17041 0
M  V30 1301 H 127.035 -3.87872 1.51198 0
M  V30 1302 H 127.568 -2.80076 2.82493 0
M  V30 1303 H 124.307 -3.02755 5.81394 0
M  V30 1304 H 123.827 -4.0404 4.43297 0
M  V30 1305 H 125.506 -4.07383 5.02641 0
M  V30 1306 N 125.638 -1.25649 -0.95132 0
M  V30 1307 C 126.866 -1.13343 -1.73092 0
M  V30 1308 C 127.281 0.312434 -1.86197 0
M  V30 1309 O 126.638 1.21465 -1.36207 0
M  V30 1310 C 126.689 -1.78602 -3.14299 0
M  V30 1311 O 126.41 -3.17537 -3.01831 0
M  V30 1312 C 127.911 -1.72119 -4.08522 0
M  V30 1313 H 125.131 -0.395181 -0.542285 0
M  V30 1314 H 127.675 -1.66076 -1.19328 0
M  V30 1315 H 125.83 -1.29832 -3.64996 0
M  V30 1316 H 126.244 -3.49676 -3.90931 0
M  V30 1317 H 127.718 -2.22435 -5.052 0
M  V30 1318 H 128.195 -0.685635 -4.33815 0
M  V30 1319 H 128.801 -2.20393 -3.63741 0
M  V30 1320 N 127.117 1.15442 -1.07289 0
M  V30 1321 C 128.394 1.82306 -0.708792 0
M  V30 1322 C 128.774 1.94991 0.808807 0
M  V30 1323 O 128.122 1.50085 1.72298 0
M  V30 1324 C 128.332 3.18695 -1.42247 0
M  V30 1325 C 129.68 3.94341 -1.57417 0
M  V30 1326 O 130.704 3.28247 -1.38319 0
M  V30 1327 O 129.563 5.12839 -1.88834 0
M  V30 1328 H 126.657 0.787628 -0.252132 0
M  V30 1329 H 129.203 1.22559 -1.17377 0
M  V30 1330 H 127.975 3.04557 -2.45684 0
M  V30 1331 H 127.598 3.86128 -0.948223 0
M  V30 1332 N 128.595 0.856903 1.32268 0
M  V30 1333 C 129.505 0.306131 2.32594 0
M  V30 1334 C 130.521 -0.577209 1.64147 0
M  V30 1335 O 131.697 -0.477043 1.95669 0
M  V30 1336 C 128.762 -0.494561 3.43154 0
M  V30 1337 C 127.823 0.415186 4.27288 0
M  V30 1338 C 127.056 -0.347387 5.32568 0
M  V30 1339 O 127.279 -1.57708 5.48165 0
M  V30 1340 O 126.213 0.287982 6.01211 0
M  V30 1341 H 130.039 1.13737 2.81598 0
M  V30 1342 H 127.624 0.619902 1.35932 0
M  V30 1343 H 129.506 -0.948944 4.10576 0
M  V30 1344 H 128.181 -1.30257 2.96336 0
M  V30 1345 H 127.088 0.917793 3.62667 0
M  V30 1346 H 128.421 1.18844 4.77637 0
M  V30 1347 N 130.073 -1.45103 0.615059 0
M  V30 1348 C 131.005 -2.28786 -0.13762 0
M  V30 1349 C 132.018 -1.40376 -0.824525 0
M  V30 1350 O 133.207 -1.64681 -0.688662 0
M  V30 1351 C 130.307 -3.16322 -1.21628 0
M  V30 1352 C 129.48 -4.33054 -0.615039 0
M  V30 1353 C 128.539 -5.01743 -1.58556 0
M  V30 1354 O 127.565 -5.58293 -1.10895 0
M  V30 1355 N 128.767 -5.01714 -2.91998 0
M  V30 1356 H 131.532 -2.94025 0.580483 0
M  V30 1357 H 129.093 -1.55373 0.45507 0
M  V30 1358 H 131.085 -3.59139 -1.86552 0
M  V30 1359 H 129.655 -2.52943 -1.83681 0
M  V30 1360 H 128.875 -3.93627 0.21245 0
M  V30 1361 H 130.163 -5.08431 -0.193704 0
M  V30 1362 H 129.561 -4.57075 -3.33316 0
M  V30 1363 H 128.118 -5.48371 -3.52325 0
M  V30 1364 N 131.551 -0.354651 -1.53558 0
M  V30 1365 C 132.498 0.496968 -2.25386 0
M  V30 1366 C 133.468 1.0865 -1.25636 0
M  V30 1367 O 134.653 1.12104 -1.54394 0
M  V30 1368 C 131.793 1.63637 -3.03837 0
M  V30 1369 C 130.906 1.07307 -4.18461 0
M  V30 1370 C 130.041 2.18068 -4.84376 0
M  V30 1371 C 129.08 1.59147 -5.91049 0
M  V30 1372 N 128.217 2.63695 -6.50699 0
M  V30 1373 H 133.057 -0.122075 -2.9775 0
M  V30 1374 H 130.594 -0.0720154 -1.46924 0
M  V30 1375 H 132.552 2.30734 -3.47589 0
M  V30 1376 H 131.182 2.22623 -2.33749 0
M  V30 1377 H 130.234 0.292708 -3.79272 0
M  V30 1378 H 131.546 0.602193 -4.95152 0
M  V30 1379 H 130.7 2.93007 -5.31255 0
M  V30 1380 H 129.439 2.68504 -4.07133 0
M  V30 1381 H 128.444 0.827175 -5.43542 0
M  V30 1382 H 129.669 1.09549 -6.70206 0
M  V30 1383 H 127.615 3.13365 -5.76315 0
M  V30 1384 H 127.532 2.21263 -7.22896 0
M  V30 1385 H 128.8 3.3837 -7.02229 0
M  V30 1386 N 133.029 1.57378 -0.0835403 0
M  V30 1387 C 133.976 2.13384 0.879539 0
M  V30 1388 C 134.946 1.04936 1.28754 0
M  V30 1389 O 136.131 1.32662 1.37133 0
M  V30 1390 C 133.271 2.70932 2.13752 0
M  V30 1391 C 132.384 3.93575 1.7811 0
M  V30 1392 C 131.519 4.39326 2.98607 0
M  V30 1393 C 130.558 5.54587 2.59037 0
M  V30 1394 N 129.695 5.95243 3.72331 0
M  V30 1395 H 134.535 2.9537 0.395076 0
M  V30 1396 H 132.072 1.45953 0.183349 0
M  V30 1397 H 134.03 3.02411 2.87408 0
M  V30 1398 H 132.66 1.91693 2.59718 0
M  V30 1399 H 131.712 3.68483 0.94469 0
M  V30 1400 H 133.024 4.77258 1.45005 0
M  V30 1401 H 132.178 4.72528 3.80529 0
M  V30 1402 H 130.917 3.5452 3.34913 0
M  V30 1403 H 129.922 5.21024 1.75539 0
M  V30 1404 H 131.147 6.41133 2.23887 0
M  V30 1405 H 129.093 5.13385 4.08378 0
M  V30 1406 H 129.01 6.73694 3.43034 0
M  V30 1407 H 130.278 6.33072 4.54797 0
M  V30 1408 N 134.507 -0.190092 1.56449 0
M  V30 1409 C 135.753 -0.911052 1.81184 0
M  V30 1410 C 136.086 -1.82699 0.658396 0
M  V30 1411 O 135.361 -1.91491 -0.340775 0
M  V30 1412 C 135.644 -1.72297 3.16205 0
M  V30 1413 C 135.497 -0.831419 4.42049 0
M  V30 1414 C 136.816 -2.69454 3.47969 0
M  V30 1415 H 133.935 -0.32977 0.659106 0
M  V30 1416 H 136.577 -0.178169 1.89163 0
M  V30 1417 H 134.727 -2.34778 3.09534 0
M  V30 1418 H 136.399 -0.220929 4.60771 0
M  V30 1419 H 134.642 -0.138406 4.33579 0
M  V30 1420 H 135.313 -1.43461 5.33032 0
M  V30 1421 H 137.789 -2.17104 3.54972 0
M  V30 1422 H 136.665 -3.23342 4.43555 0
M  V30 1423 H 136.926 -3.48744 2.71717 0
M  V30 1424 N 135.985 -1.50799 -0.457987 0
M  V30 1425 C 137.401 -1.38515 -0.792819 0
M  V30 1426 C 137.601 -0.451409 -1.96379 0
M  V30 1427 O 136.657 0.10112 -2.52297 0
M  V30 1428 C 137.97 -2.80149 -1.09258 0
M  V30 1429 C 139.518 -2.89156 -1.19825 0
M  V30 1430 C 139.993 -4.31651 -1.53106 0
M  V30 1431 N 141.484 -4.34662 -1.60072 0
M  V30 1432 C 142.219 -5.41928 -1.87354 0
M  V30 1433 N 141.715 -6.59384 -2.12568 0
M  V30 1434 N 143.508 -5.29385 -1.88965 0
M  V30 1435 H 135.659 -2.10073 0.313511 0
M  V30 1436 H 137.922 -0.944803 0.0777862 0
M  V30 1437 H 137.628 -3.50374 -0.305084 0
M  V30 1438 H 137.502 -3.18204 -2.02549 0
M  V30 1439 H 139.889 -2.19141 -1.97639 0
M  V30 1440 H 139.97 -2.54626 -0.244821 0
M  V30 1441 H 139.614 -5.02208 -0.758266 0
M  V30 1442 H 139.544 -4.63678 -2.49621 0
M  V30 1443 H 142.035 -3.49973 -1.42573 0
M  V30 1444 H 142.348 -7.36934 -2.32696 0
M  V30 1445 H 140.693 -6.62535 -2.09933 0
M  V30 1446 H 143.884 -4.36616 -1.68772 0
M  V30 1447 H 144.057 -6.13066 -2.09891 0
M  V30 1448 N 137.463 0.71206 -1.40597 0
M  V30 1449 C 138.373 1.8562 -1.43466 0
M  V30 1450 C 139.389 1.70902 -0.326902 0
M  V30 1451 O 140.565 1.93105 -0.572043 0
M  V30 1452 C 137.63 3.21451 -1.29884 0
M  V30 1453 C 136.691 3.48398 -2.50833 0
M  V30 1454 C 135.924 4.77749 -2.3789 0
M  V30 1455 O 136.147 5.53089 -1.39459 0
M  V30 1456 O 135.081 5.05111 -3.27333 0
M  V30 1457 H 138.907 1.86155 -2.39958 0
M  V30 1458 H 136.492 0.86295 -1.21957 0
M  V30 1459 H 138.374 4.02579 -1.24531 0
M  V30 1460 H 137.049 3.21636 -0.364997 0
M  V30 1461 H 135.956 2.67265 -2.61763 0
M  V30 1462 H 137.289 3.53014 -3.4299 0
M  V30 1463 N 138.941 1.26152 0.944643 0
M  V30 1464 C 139.904 1.07474 2.0244 0
M  V30 1465 C 140.904 0.0242064 1.60782 0
M  V30 1466 O 142.094 0.267302 1.72137 0
M  V30 1467 C 139.226 0.633956 3.34953 0
M  V30 1468 H 140.419 2.03336 2.20442 0
M  V30 1469 H 137.972 1.087 1.12312 0
M  V30 1470 H 138.707 -0.326811 3.22649 0
M  V30 1471 H 138.492 1.39247 3.66542 0
M  V30 1472 H 139.982 0.52501 4.14287 0
M  V30 1473 N 140.419 -1.14872 1.07899 0
M  V30 1474 C 141.696 -1.81928 0.71845 0
M  V30 1475 C 142.076 -1.95417 -0.798455 0
M  V30 1476 O 141.424 -1.50997 -1.715 0
M  V30 1477 C 141.634 -3.17937 1.43935 0
M  V30 1478 C 142.982 -3.93501 1.59506 0
M  V30 1479 O 144.006 -3.27509 1.40058 0
M  V30 1480 O 142.865 -5.1183 1.91551 0
M  V30 1481 H 139.959 -0.78628 0.256305 0
M  V30 1482 H 142.505 -1.21934 1.18026 0
M  V30 1483 H 141.277 -3.0325 2.47295 0
M  V30 1484 H 140.9 -3.85619 0.968687 0
M  V30 1485 N 141.898 -0.863906 -1.31812 0
M  V30 1486 C 142.828 -0.330843 -2.31144 0
M  V30 1487 C 143.809 0.575005 -1.60087 0
M  V30 1488 O 144.994 0.493304 -1.8783 0
M  V30 1489 C 142.124 0.47374 -3.44054 0
M  V30 1490 C 141.078 -0.338481 -4.26659 0
M  V30 1491 C 140.404 0.591412 -5.31419 0
M  V30 1492 C 141.704 -1.56926 -4.98168 0
M  V30 1493 H 143.398 -1.16086 -2.75979 0
M  V30 1494 H 140.944 -0.559657 -1.32679 0
M  V30 1495 H 142.897 0.857143 -4.12591 0
M  V30 1496 H 141.621 1.33721 -2.9797 0
M  V30 1497 H 140.28 -0.703754 -3.59782 0
M  V30 1498 H 139.928 1.45199 -4.81587 0
M  V30 1499 H 139.628 0.0519022 -5.87577 0
M  V30 1500 H 141.152 0.97179 -6.02817 0
M  V30 1501 H 142.566 -1.25764 -5.59336 0
M  V30 1502 H 140.963 -2.04739 -5.64094 0
M  V30 1503 H 142.033 -2.32544 -4.25501 0
M  V30 1504 N 143.376 1.44774 -0.622745 0
M  V30 1505 C 144.622 2.0242 -0.124083 0
M  V30 1506 C 144.955 1.4881 1.24777 0
M  V30 1507 O 144.23 0.668799 1.8264 0
M  V30 1508 C 144.513 3.59957 -0.101619 0
M  V30 1509 C 144.366 4.23867 -1.50521 0
M  V30 1510 C 145.685 4.36284 0.578272 0
M  V30 1511 H 142.804 0.735528 -0.0465645 0
M  V30 1512 H 145.446 1.72447 -0.797617 0
M  V30 1513 H 143.596 3.85623 0.471934 0
M  V30 1514 H 145.268 4.09336 -2.12701 0
M  V30 1515 H 143.511 3.81684 -2.06154 0
M  V30 1516 H 144.182 5.32843 -1.4416 0
M  V30 1517 H 146.658 4.16001 0.0906057 0
M  V30 1518 H 145.534 5.46004 0.563149 0
M  V30 1519 H 145.795 4.10271 1.64713 0
M  V30 1520 N 144.854 0.36279 1.53368 0
M  V30 1521 C 146.103 -0.22888 2.00397 0
M  V30 1522 C 146.416 -1.50096 1.25421 0
M  V30 1523 O 147.622 -2.17106 1.63025 0
M  V30 1524 C 146.078 -0.458417 3.56969 0
M  V30 1525 C 145.686 0.798877 4.4082 0
M  V30 1526 C 147.43 -1.00789 4.12361 0
M  V30 1527 C 145.337 0.539078 5.88938 0
M  V30 1528 H 144.267 -0.089305 0.748693 0
M  V30 1529 H 146.918 0.481099 1.77081 0
M  V30 1530 H 145.3 -1.22959 3.76427 0
M  V30 1531 H 146.474 1.57262 4.33134 0
M  V30 1532 H 144.789 1.27137 3.96516 0
M  V30 1533 H 147.386 -1.21754 5.20653 0
M  V30 1534 H 147.729 -1.9692 3.66781 0
M  V30 1535 H 148.262 -0.296961 3.9669 0
M  V30 1536 H 145.001 1.47064 6.3879 0
M  V30 1537 H 144.521 -0.196222 5.99479 0
M  V30 1538 H 146.2 0.163542 6.46793 0
M  V30 1539 N 146.332 -1.57332 0.0918853 0
M  V30 1540 C 147.579 -1.94236 -0.572577 0
M  V30 1541 C 147.907 -0.973398 -1.6839 0
M  V30 1542 O 147.162 0.00756912 -1.95699 0
M  V30 1543 C 147.461 -3.37689 -1.17051 0
M  V30 1544 C 147.127 -4.50527 -0.183304 0
M  V30 1545 C 145.789 -4.81119 0.0882276 0
M  V30 1546 C 148.141 -5.18883 0.49095 0
M  V30 1547 C 145.469 -5.77395 1.04076 0
M  V30 1548 C 147.821 -6.1618 1.43193 0
M  V30 1549 C 146.485 -6.45179 1.71173 0
M  V30 1550 H 145.755 -0.710762 -0.209521 0
M  V30 1551 H 148.402 -1.9077 0.167036 0
M  V30 1552 H 146.707 -3.37718 -1.9863 0
M  V30 1553 H 148.404 -3.63543 -1.69227 0
M  V30 1554 H 144.994 -4.26681 -0.405124 0
M  V30 1555 H 149.178 -4.95427 0.294312 0
M  V30 1556 H 144.434 -5.98179 1.26457 0
M  V30 1557 H 148.608 -6.68243 1.96023 0
M  V30 1558 H 146.235 -7.1959 2.4514 0
M  V30 1559 N 147.81 0.181792 -1.56548 0
M  V30 1560 C 148.742 1.24956 -1.92142 0
M  V30 1561 C 149.755 1.41022 -0.813422 0
M  V30 1562 O 150.944 1.41212 -1.09186 0
M  V30 1563 C 148.044 2.61981 -2.14987 0
M  V30 1564 C 147.217 2.6735 -3.46183 0
M  V30 1565 C 146.276 3.85664 -3.5798 0
M  V30 1566 O 145.302 3.72148 -4.30691 0
M  V30 1567 N 146.504 5.01683 -2.92053 0
M  V30 1568 H 149.269 0.947329 -2.84334 0
M  V30 1569 H 146.83 0.371629 -1.57577 0
M  V30 1570 H 148.822 3.3958 -2.20154 0
M  V30 1571 H 147.392 2.84637 -1.2923 0
M  V30 1572 H 146.612 1.75925 -3.52766 0
M  V30 1573 H 147.9 2.67939 -4.32534 0
M  V30 1574 H 147.298 5.15564 -2.32832 0
M  V30 1575 H 145.855 5.77181 -3.0283 0
M  V30 1576 N 149.288 1.51039 0.449983 0
M  V30 1577 C 150.535 1.63081 1.20045 0
M  V30 1578 C 150.863 0.341024 1.91487 0
M  V30 1579 O 150.118 -0.674276 1.83717 0
M  V30 1580 C 150.417 2.77556 2.25161 0
M  V30 1581 C 150.083 4.17289 1.70823 0
M  V30 1582 C 148.745 4.55305 1.55725 0
M  V30 1583 C 151.097 5.04536 1.3074 0
M  V30 1584 C 148.425 5.78287 0.989999 0
M  V30 1585 C 150.777 6.28085 0.754482 0
M  V30 1586 C 149.441 6.64885 0.590308 0
M  V30 1587 H 148.711 0.596755 0.439277 0
M  V30 1588 H 151.358 1.85037 0.49333 0
M  V30 1589 H 149.663 2.49771 3.01863 0
M  V30 1590 H 151.36 2.84073 2.83026 0
M  V30 1591 H 147.95 3.8731 1.83546 0
M  V30 1592 H 152.134 4.75782 1.41229 0
M  V30 1593 H 147.39 6.05456 0.850451 0
M  V30 1594 H 151.564 6.95038 0.435324 0
M  V30 1595 H 149.191 7.60055 0.14862 0
M  V30 1596 N 150.766 -0.704594 1.40972 0
M  V30 1597 C 152.177 -1.28418 1.3552 0
M  V30 1598 C 152.528 -1.96171 0.0339434 0
M  V30 1599 O 151.653 -1.98231 -0.867944 0
M  V30 1600 C 152.248 -2.33528 2.45459 0
M  V30 1601 C 150.807 -2.87085 2.43433 0
M  V30 1602 C 149.954 -1.61007 2.2577 0
M  V30 1603 H 152.905 -0.499963 1.50619 0
M  V30 1604 H 152.926 -3.14619 2.13998 0
M  V30 1605 H 152.438 -1.84187 3.41609 0
M  V30 1606 H 150.539 -3.40626 1.51013 0
M  V30 1607 H 150.652 -3.3813 3.39419 0
M  V30 1608 H 149.016 -1.86482 1.73483 0
M  V30 1609 H 149.799 -1.13675 3.23933 0
M  V30 1610 N 152.244 -1.26651 -0.937939 0
M  V30 1611 C 153.174 -1.10993 -2.05433 0
M  V30 1612 C 154.155 -0.0142161 -1.70094 0
M  V30 1613 O 155.34 -0.186837 -1.93299 0
M  V30 1614 C 152.47 -0.745561 -3.39203 0
M  V30 1615 C 151.424 -1.79337 -3.88616 0
M  V30 1616 C 150.75 -1.28324 -5.19073 0
M  V30 1617 C 152.05 -3.19553 -4.13138 0
M  V30 1618 H 153.744 -2.0438 -2.1879 0
M  V30 1619 H 151.29 -0.984041 -1.05131 0
M  V30 1620 H 153.243 -0.622888 -4.16771 0
M  V30 1621 H 151.967 0.22401 -3.25831 0
M  V30 1622 H 150.626 -1.90477 -3.13231 0
M  V30 1623 H 150.274 -0.303414 -5.02084 0
M  V30 1624 H 149.974 -1.98369 -5.53103 0
M  V30 1625 H 151.498 -1.1733 -5.99221 0
M  V30 1626 H 152.912 -3.11471 -4.81309 0
M  V30 1627 H 151.309 -3.87218 -4.58457 0
M  V30 1628 H 152.379 -3.65368 -3.18801 0
M  V30 1629 N 153.722 1.14298 -1.08507 0
M  V30 1630 C 154.952 1.88945 -0.835663 0
M  V30 1631 C 155.36 1.78894 0.615928 0
M  V30 1632 O 154.703 1.1468 1.43506 0
M  V30 1633 C 154.765 3.39585 -1.17994 0
M  V30 1634 C 154.429 3.7342 -2.63451 0
M  V30 1635 C 155.426 3.73454 -3.61702 0
M  V30 1636 C 153.111 4.03368 -2.99332 0
M  V30 1637 C 155.105 4.02961 -4.93864 0
M  V30 1638 C 152.792 4.32538 -4.31687 0
M  V30 1639 C 153.79 4.32318 -5.28763 0
M  V30 1640 O 153.478 4.6078 -6.58739 0
M  V30 1641 H 153.21 0.605307 -0.300965 0
M  V30 1642 H 155.764 1.45673 -1.44806 0
M  V30 1643 H 153.994 3.83315 -0.51055 0
M  V30 1644 H 155.683 3.9554 -0.911182 0
M  V30 1645 H 156.449 3.50403 -3.35325 0
M  V30 1646 H 152.328 4.02692 -2.24411 0
M  V30 1647 H 155.872 4.02704 -5.69627 0
M  V30 1648 H 151.769 4.55059 -4.57812 0
M  V30 1649 H 152.537 4.78492 -6.64069 0
M  V30 1650 N 155.201 0.870884 1.31352 0
M  V30 1651 C 156.447 0.492314 1.97352 0
M  V30 1652 C 156.802 -0.945174 1.67583 0
M  V30 1653 O 156.095 -1.65674 0.962423 0
M  V30 1654 C 156.289 0.687157 3.50732 0
M  V30 1655 C 156.118 2.14203 3.95407 0
M  V30 1656 C 154.888 2.78382 4.21701 0
M  V30 1657 C 157.086 3.1144 4.09279 0
M  V30 1658 N 155.068 4.14611 4.52737 0
M  V30 1659 C 156.439 4.32702 4.44037 0
M  V30 1660 C 158.494 3.07418 3.91661 0
M  V30 1661 C 157.197 5.50463 4.63015 0
M  V30 1662 C 159.223 4.24438 4.11833 0
M  V30 1663 C 158.585 5.44463 4.46923 0
M  V30 1664 H 154.684 0.229206 0.747655 0
M  V30 1665 H 157.268 1.12568 1.5886 0
M  V30 1666 H 155.439 0.083384 3.8831 0
M  V30 1667 H 157.171 0.276883 4.03752 0
M  V30 1668 H 153.926 2.29326 4.14375 0
M  V30 1669 H 154.35 4.84928 4.72413 0
M  V30 1670 H 158.992 2.15732 3.6362 0
M  V30 1671 H 156.71 6.42666 4.89904 0
M  V30 1672 H 160.296 4.2278 3.99685 0
M  V30 1673 H 159.176 6.33504 4.62214 0
M  V30 1674 N 156.679 -1.44442 0.630414 0
M  V30 1675 C 157.926 -2.02052 0.134617 0
M  V30 1676 C 158.254 -1.49576 -1.24327 0
M  V30 1677 O 157.509 -0.669806 -1.83881 0
M  V30 1678 C 157.808 -3.57332 0.0697835 0
M  V30 1679 C 157.474 -4.29058 1.38635 0
M  V30 1680 C 156.136 -4.4837 1.74694 0
M  V30 1681 C 158.488 -4.69872 2.25543 0
M  V30 1682 C 155.816 -5.05756 2.97369 0
M  V30 1683 C 158.168 -5.28616 3.47487 0
M  V30 1684 C 156.832 -5.46147 3.8377 0
M  V30 1685 H 156.102 -0.739361 0.0492598 0
M  V30 1686 H 158.749 -1.73217 0.816586 0
M  V30 1687 H 157.054 -3.85577 -0.695553 0
M  V30 1688 H 158.751 -3.99637 -0.330344 0
M  V30 1689 H 155.341 -4.14357 1.09574 0
M  V30 1690 H 159.525 -4.54666 1.98979 0
M  V30 1691 H 154.781 -5.17515 3.25558 0
M  V30 1692 H 158.955 -5.59192 4.15063 0
M  V30 1693 H 156.582 -5.9038 4.7891 0
M  V30 1694 N 158.157 -0.370918 -1.53173 0
M  V30 1695 C 159.382 0.220293 -2.06227 0
M  V30 1696 C 159.807 1.41243 -1.24225 0
M  V30 1697 O 159.165 1.79387 -0.262645 0
M  V30 1698 C 159.213 0.586663 -3.55796 0
M  V30 1699 O 158.317 1.68317 -3.76488 0
M  V30 1700 H 157.658 0.0308099 -0.663285 0
M  V30 1701 H 160.188 -0.533068 -1.97534 0
M  V30 1702 H 160.198 0.85617 -3.98916 0
M  V30 1703 H 158.873 -0.285013 -4.14922 0
M  V30 1704 H 157.45 1.40881 -3.45264 0
M  V30 1705 N 159.635 1.57281 -0.100228 0
M  V30 1706 C 160.881 1.94826 0.563101 0
M  V30 1707 C 161.214 0.982475 1.67514 0
M  V30 1708 O 160.489 0.0164069 1.94493 0
M  V30 1709 C 160.772 3.42453 1.11346 0
M  V30 1710 C 160.625 4.498 0.00612081 0
M  V30 1711 C 161.944 3.91506 2.01024 0
M  V30 1712 H 159.063 0.708428 0.203221 0
M  V30 1713 H 161.705 1.8922 -0.171979 0
M  V30 1714 H 159.855 3.47361 1.7399 0
M  V30 1715 H 161.527 4.57 -0.628357 0
M  V30 1716 H 159.77 4.28756 -0.659581 0
M  V30 1717 H 160.441 5.50306 0.432109 0
M  V30 1718 H 162.917 3.88784 1.48278 0
M  V30 1719 H 161.793 4.95358 2.36457 0
M  V30 1720 H 162.054 3.31099 2.92961 0
M  V30 1721 N 161.113 -0.173488 1.56642 0
M  V30 1722 C 162.524 -0.736155 1.71574 0
M  V30 1723 C 162.875 -1.82888 0.710389 0
M  V30 1724 O 162 -2.16017 -0.1287 0
M  V30 1725 C 162.595 -1.34211 3.11083 0
M  V30 1726 C 161.154 -1.85162 3.27707 0
M  V30 1727 C 160.301 -0.729765 2.67525 0
M  V30 1728 H 163.252 0.0518786 1.58615 0
M  V30 1729 H 163.273 -2.21178 3.09613 0
M  V30 1730 H 162.785 -0.546579 3.84232 0
M  V30 1731 H 160.886 -2.67366 2.59512 0
M  V30 1732 H 160.999 -1.99855 4.35425 0
M  V30 1733 H 159.363 -1.14965 2.27278 0
M  V30 1734 H 160.146 0.0538806 3.43258 0
M  V30 1735 N 162.591 -1.51276 -0.441967 0
M  V30 1736 C 163.554 -1.7167 -1.51862 0
M  V30 1737 C 164.554 -0.586793 -1.49711 0
M  V30 1738 O 165.744 -0.854276 -1.51815 0
M  V30 1739 C 162.876 -1.76889 -2.91416 0
M  V30 1740 H 164.069 -2.67754 -1.35084 0
M  V30 1741 H 161.622 -1.41196 -0.670333 0
M  V30 1742 H 162.357 -0.826026 -3.13604 0
M  V30 1743 H 162.142 -2.59001 -2.94382 0
M  V30 1744 H 163.632 -1.94522 -3.69528 0
M  V30 1745 N 164.069 0.697108 -1.41344 0
M  V30 1746 C 165.318 1.45279 -1.39918 0
M  V30 1747 C 165.631 1.95597 -0.0109624 0
M  V30 1748 O 166.837 2.71208 0.125919 0
M  V30 1749 C 165.293 2.62695 -2.46007 0
M  V30 1750 C 164.901 2.19169 -3.90729 0
M  V30 1751 C 166.645 3.40336 -2.53715 0
M  V30 1752 C 164.552 3.33535 -4.88373 0
M  V30 1753 H 163.482 0.545692 -0.520323 0
M  V30 1754 H 166.133 0.756929 -1.67161 0
M  V30 1755 H 164.515 3.34541 -2.11892 0
M  V30 1756 H 165.689 1.54623 -4.34083 0
M  V30 1757 H 164.004 1.54525 -3.86666 0
M  V30 1758 H 166.601 4.2547 -3.2385 0
M  V30 1759 H 166.944 3.85418 -1.5735 0
M  V30 1760 H 167.477 2.75546 -2.86913 0
M  V30 1761 H 164.216 2.93468 -5.86137 0
M  V30 1762 H 163.736 3.96936 -4.49668 0
M  V30 1763 H 165.415 3.99335 -5.09059 0
M  V30 1764 N 165.547 1.27147 0.931209 0
M  V30 1765 C 166.477 1.12081 2.04842 0
M  V30 1766 C 167.458 0.0232364 1.70084 0
M  V30 1767 O 168.643 0.197085 1.93197 0
M  V30 1768 C 165.773 0.76354 3.38803 0
M  V30 1769 C 164.727 1.81396 3.87659 0
M  V30 1770 C 164.053 1.31075 5.18385 0
M  V30 1771 C 165.353 3.21739 4.11438 0
M  V30 1772 H 167.047 2.05537 2.17703 0
M  V30 1773 H 164.593 0.989603 1.04608 0
M  V30 1774 H 166.546 0.644982 4.16435 0
M  V30 1775 H 165.27 -0.206727 3.25945 0
M  V30 1776 H 163.929 1.92136 3.12217 0
M  V30 1777 H 163.577 0.330037 5.01916 0
M  V30 1778 H 163.277 2.013 5.52044 0
M  V30 1779 H 164.801 1.20506 5.98591 0
M  V30 1780 H 166.215 3.14019 4.79651 0
M  V30 1781 H 164.612 3.89644 4.56397 0
M  V30 1782 H 165.682 3.67054 3.16859 0
M  V30 1783 N 167.025 -1.13721 1.09112 0
M  V30 1784 C 167.972 -2.19031 0.727591 0
M  V30 1785 C 168.942 -1.63555 -0.289656 0
M  V30 1786 O 170.127 -1.90023 -0.172026 0
M  V30 1787 C 167.267 -3.4477 0.15082 0
M  V30 1788 C 166.38 -4.14365 1.22172 0
M  V30 1789 C 165.515 -5.27709 0.608042 0
M  V30 1790 C 164.554 -5.89147 1.66047 0
M  V30 1791 N 163.691 -6.93929 1.06806 0
M  V30 1792 H 168.531 -2.49475 1.62991 0
M  V30 1793 H 166.068 -1.22499 0.81439 0
M  V30 1794 H 168.026 -4.16714 -0.201358 0
M  V30 1795 H 166.656 -3.14787 -0.714783 0
M  V30 1796 H 165.708 -3.40737 1.69122 0
M  V30 1797 H 167.02 -4.56114 2.01895 0
M  V30 1798 H 166.174 -6.06355 0.204523 0
M  V30 1799 H 164.913 -4.872 -0.220769 0
M  V30 1800 H 163.918 -5.09198 2.07357 0
M  V30 1801 H 165.143 -6.31729 2.49189 0
M  V30 1802 H 163.089 -6.55483 0.260476 0
M  V30 1803 H 163.006 -7.34202 1.8023 0
M  V30 1804 H 164.274 -7.76434 0.690644 0
M  V30 1805 N 168.503 -0.877838 -1.30888 0
M  V30 1806 C 169.751 -0.491723 -1.96027 0
M  V30 1807 C 170.072 0.960827 -1.69685 0
M  V30 1808 O 169.342 1.67462 -1.01654 0
M  V30 1809 H 167.922 -0.17885 -0.725273 0
M  V30 1810 H 170.584 -1.11935 -1.59551 0
M  V30 1811 H 169.68 -0.656016 -3.05128 0
M  V30 1812 N 169.982 1.44106 -0.638065 0
M  V30 1813 C 171.228 2.02815 -0.15409 0
M  V30 1814 C 171.583 1.49342 1.21304 0
M  V30 1815 O 170.876 0.670699 1.79478 0
M  V30 1816 C 171.07 3.5729 -0.0887327 0
M  V30 1817 C 170.899 4.2575 -1.44799 0
M  V30 1818 C 169.669 4.62443 -2.03653 0
M  V30 1819 C 171.867 4.55746 -2.38327 0
M  V30 1820 N 169.849 5.15903 -3.32741 0
M  V30 1821 C 171.22 5.10364 -3.52036 0
M  V30 1822 C 173.275 4.37703 -2.3732 0
M  V30 1823 C 171.978 5.48837 -4.64941 0
M  V30 1824 C 174.004 4.77229 -3.49294 0
M  V30 1825 C 173.366 5.31966 -4.61726 0
M  V30 1826 H 169.465 0.775519 -0.100466 0
M  V30 1827 H 172.049 1.755 -0.843071 0
M  V30 1828 H 170.22 3.84201 0.569548 0
M  V30 1829 H 171.952 4.02671 0.404711 0
M  V30 1830 H 168.707 4.46987 -1.56523 0
M  V30 1831 H 169.131 5.47102 -3.98758 0
M  V30 1832 H 173.773 3.94671 -1.51641 0
M  V30 1833 H 171.491 5.9082 -5.51323 0
M  V30 1834 H 175.077 4.64976 -3.49698 0
M  V30 1835 H 173.957 5.61986 -5.46939 0
M  V30 1836 N 171.46 0.379036 1.52974 0
M  V30 1837 C 172.393 -0.504932 2.22544 0
M  V30 1838 C 173.371 -1.0723 1.22231 0
M  V30 1839 O 174.555 -1.12589 1.51182 0
M  V30 1840 C 171.682 -1.69794 2.93066 0
M  V30 1841 C 170.728 -1.25678 4.07563 0
M  V30 1842 S 171.561 -0.246852 5.34931 0
M  V30 1843 C 172.717 -1.44588 6.08971 0
M  V30 1844 H 172.95 0.0858666 2.97176 0
M  V30 1845 H 170.483 0.163183 1.53535 0
M  V30 1846 H 172.441 -2.38219 3.34308 0
M  V30 1847 H 171.102 -2.26002 2.18133 0
M  V30 1848 H 170.295 -2.14725 4.5597 0
M  V30 1849 H 169.897 -0.651584 3.6828 0
M  V30 1850 H 172.189 -2.37469 6.34519 0
M  V30 1851 H 173.132 -1.00292 7.00962 0
M  V30 1852 H 173.54 -1.65804 5.39601 0
M  V30 1853 N 172.938 -1.57226 0.108567 0
M  V30 1854 C 174.215 -1.86333 -0.594939 0
M  V30 1855 C 174.595 -1.00788 -1.85486 0
M  V30 1856 O 173.943 -0.0839293 -2.28346 0
M  V30 1857 C 174.153 -3.37265 -0.897405 0
M  V30 1858 C 175.501 -4.05629 -1.25501 0
M  V30 1859 O 176.525 -3.42224 -0.987998 0
M  V30 1860 O 175.384 -5.17531 -1.75567 0
M  V30 1861 H 172.478 -0.771018 -0.2991 0
M  V30 1862 H 175.024 -1.69102 0.142283 0
M  V30 1863 H 173.796 -3.913 -0.00413806 0
M  V30 1864 H 173.419 -3.59889 -1.69014 0
M  V30 1865 N 174.416 0.165178 -1.56732 0
M  V30 1866 C 175.832 0.517174 -1.50988 0
M  V30 1867 C 176.032 1.84331 -0.813894 0
M  V30 1868 O 175.088 2.49672 -0.37682 0
M  V30 1869 C 176.401 0.544261 -2.95733 0
M  V30 1870 C 177.949 0.631039 -3.06573 0
M  V30 1871 C 178.424 0.68896 -4.52788 0
M  V30 1872 N 179.915 0.751683 -4.5706 0
M  V30 1873 C 180.65 0.817177 -5.67547 0
M  V30 1874 N 180.146 0.843129 -6.8765 0
M  V30 1875 N 181.939 0.856668 -5.55534 0
M  V30 1876 H 174.09 -0.704318 -2.00382 0
M  V30 1877 H 176.353 -0.254687 -0.913148 0
M  V30 1878 H 176.059 -0.361607 -3.49836 0
M  V30 1879 H 175.933 1.3886 -3.5071 0
M  V30 1880 H 178.32 1.52733 -2.52501 0
M  V30 1881 H 178.401 -0.240095 -2.54671 0
M  V30 1882 H 178.045 -0.2031 -5.07494 0
M  V30 1883 H 177.975 1.57633 -5.02454 0
M  V30 1884 H 180.466 0.739661 -3.70591 0
M  V30 1885 H 180.779 0.894448 -7.67606 0
M  V30 1886 H 179.124 0.811304 -6.90248 0
M  V30 1887 H 182.315 0.833437 -4.60621 0
M  V30 1888 H 182.488 0.904247 -6.4166 0
M  V30 1889 N 175.894 1.51508 0.433938 0
M  V30 1890 C 177.14 1.64588 1.18484 0
M  V30 1891 C 177.473 0.362666 1.90784 0
M  V30 1892 O 176.748 -0.637892 1.83742 0
M  V30 1893 C 177.031 2.85149 2.19913 0
M  V30 1894 C 176.884 4.23456 1.51674 0
M  V30 1895 C 178.203 3.01227 3.20858 0
M  V30 1896 H 175.322 0.598994 0.429389 0
M  V30 1897 H 177.964 1.84002 0.473647 0
M  V30 1898 H 176.114 2.68729 2.80566 0
M  V30 1899 H 177.786 4.51552 0.943322 0
M  V30 1900 H 176.029 4.25998 0.819035 0
M  V30 1901 H 176.7 5.03812 2.2556 0
M  V30 1902 H 179.176 3.16382 2.70263 0
M  V30 1903 H 178.052 3.87141 3.89118 0
M  V30 1904 H 178.313 2.13447 3.8716 0
M  V30 1905 N 177.372 -0.689602 1.41712 0
M  V30 1906 C 178.302 -1.81577 1.46806 0
M  V30 1907 C 179.283 -1.66945 0.326105 0
M  V30 1908 O 180.468 -1.86588 0.538377 0
M  V30 1909 C 177.598 -3.19762 1.35535 0
M  V30 1910 C 176.552 -3.49107 2.47605 0
M  V30 1911 C 175.878 -4.86711 2.21397 0
M  V30 1912 C 177.178 -3.47483 3.89939 0
M  V30 1913 H 178.872 -1.7757 2.41058 0
M  V30 1914 H 176.418 -0.852887 1.16025 0
M  V30 1915 H 178.371 -3.98263 1.3771 0
M  V30 1916 H 177.095 -3.24409 0.377708 0
M  V30 1917 H 175.754 -2.72959 2.44722 0
M  V30 1918 H 175.402 -4.8799 1.21961 0
M  V30 1919 H 175.102 -5.0731 2.96497 0
M  V30 1920 H 176.626 -5.67515 2.25297 0
M  V30 1921 H 178.04 -4.1598 3.94505 0
M  V30 1922 H 176.437 -3.79615 4.64771 0
M  V30 1923 H 177.507 -2.46341 4.17665 0
M  V30 1924 N 178.85 -1.27639 -0.924453 0
M  V30 1925 C 180.09 -1.15407 -1.68703 0
M  V30 1926 C 180.454 0.294581 -1.89727 0
M  V30 1927 O 181.655 0.539385 -2.63333 0
M  V30 1928 C 179.926 -1.9195 -3.0148 0
M  V30 1929 S 181.485 -1.95969 -3.92609 0
M  V30 1930 H 178.303 -0.411937 -0.579507 0
M  V30 1931 H 180.905 -1.61592 -1.10038 0
M  V30 1932 H 179.609 -2.96387 -2.83871 0
M  V30 1933 H 179.14 -1.46272 -3.65196 0
M  V30 1934 H 181.155 -1.05846 -4.84779 0
M  V30 1935 N 180.328 1.1314 -1.09713 0
M  V30 1936 C 181.26 2.18343 -0.697056 0
M  V30 1937 C 182.273 1.60669 0.262551 0
M  V30 1938 O 183.462 1.78435 0.0481527 0
M  V30 1939 C 180.562 3.38899 -0.00684728 0
M  V30 1940 C 179.735 4.26078 -0.988741 0
M  V30 1941 C 178.794 5.25155 -0.331394 0
M  V30 1942 O 177.82 5.60701 -0.979926 0
M  V30 1943 N 179.022 5.73271 0.913261 0
M  V30 1944 H 181.787 2.5328 -1.60216 0
M  V30 1945 H 179.348 1.28491 -0.984971 0
M  V30 1946 H 181.34 4.02255 0.444191 0
M  V30 1947 H 179.91 3.02175 0.800551 0
M  V30 1948 H 179.13 3.59453 -1.61826 0
M  V30 1949 H 180.418 4.81178 -1.65364 0
M  V30 1950 H 179.816 5.46544 1.45966 0
M  V30 1951 H 178.373 6.3855 1.30757 0
M  V30 1952 N 181.806 0.884767 1.30421 0
M  V30 1953 C 183.054 0.502112 1.95763 0
M  V30 1954 C 183.375 -0.951815 1.70192 0
M  V30 1955 O 182.645 -1.6692 1.0254 0
M  V30 1956 H 181.225 0.182694 0.724315 0
M  V30 1957 H 183.887 1.1278 1.58955 0
M  V30 1958 H 182.983 0.672188 3.04775 0
M  V30 1959 N 183.284 -1.43765 0.645699 0
M  V30 1960 C 184.531 -2.01898 0.15604 0
M  V30 1961 C 184.859 -1.50887 -1.22733 0
M  V30 1962 O 184.114 -0.689271 -1.8316 0
M  V30 1963 C 184.413 -3.57238 0.107679 0
M  V30 1964 C 184.079 -4.27564 1.43178 0
M  V30 1965 C 182.741 -4.46492 1.7944 0
M  V30 1966 C 185.093 -4.67454 2.30513 0
M  V30 1967 C 182.421 -5.02573 3.02716 0
M  V30 1968 C 184.773 -5.24901 3.53074 0
M  V30 1969 C 183.437 -5.42046 3.89541 0
M  V30 1970 H 182.707 -0.738797 0.057099 0
M  V30 1971 H 185.354 -1.72341 0.834912 0
M  V30 1972 H 183.659 -3.86293 -0.654618 0
M  V30 1973 H 185.356 -3.99965 -0.287938 0
M  V30 1974 H 181.946 -4.13171 1.13963 0
M  V30 1975 H 186.13 -4.5253 2.0379 0
M  V30 1976 H 181.386 -5.14033 3.31028 0
M  V30 1977 H 185.56 -5.54758 4.20971 0
M  V30 1978 H 183.187 -5.85268 4.85145 0
M  V30 1979 N 184.763 -0.387143 -1.52771 0
M  V30 1980 C 185.726 0.436939 -2.24997 0
M  V30 1981 C 186.726 0.991991 -1.26555 0
M  V30 1982 O 187.916 0.874335 -1.50669 0
M  V30 1983 C 185.048 1.61281 -3.00335 0
M  V30 1984 H 186.241 -0.195365 -2.99263 0
M  V30 1985 H 183.794 -0.139218 -1.55679 0
M  V30 1986 H 184.529 2.2826 -2.30364 0
M  V30 1987 H 184.314 1.22154 -3.72587 0
M  V30 1988 H 185.804 2.19629 -3.5518 0
M  V30 1989 N 186.241 1.57166 -0.116904 0
M  V30 1990 C 187.488 1.95123 0.541603 0
M  V30 1991 C 187.816 1.00006 1.6682 0
M  V30 1992 O 187.071 0.0235658 1.95686 0
M  V30 1993 C 187.37 3.39508 1.11664 0
M  V30 1994 C 187.036 4.50762 0.111606 0
M  V30 1995 C 185.698 4.80918 -0.164758 0
M  V30 1996 C 188.05 5.18036 -0.573438 0
M  V30 1997 C 185.378 5.75666 -1.13249 0
M  V30 1998 C 187.73 6.13824 -1.52978 0
M  V30 1999 C 186.394 6.42374 -1.81415 0
M  V30 2000 H 185.664 0.714005 0.198187 0
M  V30 2001 H 188.311 1.9048 -0.197365 0
M  V30 2002 H 186.616 3.40835 1.93232 0
M  V30 2003 H 188.313 3.66189 1.63422 0
M  V30 2004 H 184.903 4.27272 0.337192 0
M  V30 2005 H 189.087 4.94896 -0.373092 0
M  V30 2006 H 184.343 5.96092 -1.35958 0
M  V30 2007 H 188.517 6.65039 -2.06629 0
M  V30 2008 H 186.144 7.15599 -2.56557 0
M  V30 2009 N 187.719 -0.156864 1.56817 0
M  V30 2010 C 188.996 -0.899244 1.73704 0
M  V30 2011 C 189.376 -1.99771 0.682254 0
M  V30 2012 O 188.724 -2.26515 -0.300522 0
M  V30 2013 C 188.934 -1.45075 3.17418 0
M  V30 2014 C 190.282 -1.91802 3.7881 0
M  V30 2015 O 191.306 -1.54838 3.20786 0
M  V30 2016 O 190.165 -2.5994 4.80722 0
M  V30 2017 H 187.259 -0.424267 0.709878 0
M  V30 2018 H 189.805 -0.143561 1.69092 0
M  V30 2019 H 188.577 -0.660846 3.85679 0
M  V30 2020 H 188.2 -2.27021 3.26416 0
M  V30 2021 N 189.197 -1.51736 -0.425897 0
M  V30 2022 C 190.446 -1.64201 -1.17136 0
M  V30 2023 C 190.759 -0.369705 -1.92074 0
M  V30 2024 O 191.965 -0.373898 -2.68913 0
M  V30 2025 C 190.421 -2.90035 -2.13091 0
M  V30 2026 C 190.029 -4.24312 -1.43747 0
M  V30 2027 C 191.773 -3.1186 -2.87999 0
M  V30 2028 C 189.68 -5.41285 -2.38253 0
M  V30 2029 H 188.61 -0.611624 -0.440944 0
M  V30 2030 H 191.261 -1.78212 -0.437328 0
M  V30 2031 H 189.643 -2.69684 -2.89977 0
M  V30 2032 H 190.817 -4.55086 -0.723408 0
M  V30 2033 H 189.132 -4.08456 -0.809465 0
M  V30 2034 H 191.729 -3.96427 -3.58817 0
M  V30 2035 H 192.072 -2.25403 -3.49999 0
M  V30 2036 H 192.605 -3.32605 -2.18217 0
M  V30 2037 H 189.344 -6.30037 -1.80925 0
M  V30 2038 H 188.864 -5.14872 -3.0768 0
M  V30 2039 H 190.543 -5.73694 -2.99139 0
M  V30 2040 N 190.675 0.682077 -1.42076 0
M  V30 2041 C 192.086 1.26246 -1.37546 0
M  V30 2042 C 192.437 1.96092 -0.0651481 0
M  V30 2043 O 191.562 1.99587 0.836297 0
M  V30 2044 C 192.157 2.29594 -2.49143 0
M  V30 2045 C 190.716 2.83175 -2.47969 0
M  V30 2046 C 189.863 1.57395 -2.28303 0
M  V30 2047 H 192.814 0.475937 -1.51395 0
M  V30 2048 H 192.835 3.11175 -2.18976 0
M  V30 2049 H 192.347 1.78729 -3.44496 0
M  V30 2050 H 190.448 3.3818 -1.56413 0
M  V30 2051 H 190.561 3.32687 -3.44755 0
M  V30 2052 H 188.925 1.83699 -1.76428 0
M  V30 2053 H 189.708 1.08507 -3.25701 0
M  V30 2054 N 192.153 1.28127 0.917671 0
M  V30 2055 C 193.401 1.14825 1.66312 0
M  V30 2056 C 193.722 -0.304379 1.9261 0
M  V30 2057 O 192.992 -1.21149 1.53947 0
M  V30 2058 H 191.572 0.421953 0.616413 0
M  V30 2059 H 194.234 1.608 1.10134 0
M  V30 2060 H 193.33 1.68489 2.62712 0
M  V30 2061 N 193.631 -1.12557 1.10312 0
M  V30 2062 C 194.878 -1.84038 0.844759 0
M  V30 2063 C 195.206 -1.84026 -0.629668 0
M  V30 2064 O 194.461 -1.28026 -1.48013 0
M  V30 2065 C 194.76 -3.31462 1.33669 0
M  V30 2066 C 194.426 -3.51647 2.82232 0
M  V30 2067 C 193.088 -3.56864 3.22802 0
M  V30 2068 C 195.44 -3.58867 3.77974 0
M  V30 2069 C 192.768 -3.66844 4.57867 0
M  V30 2070 C 195.12 -3.70375 5.1284 0
M  V30 2071 C 193.784 -3.73848 5.52986 0
M  V30 2072 H 193.054 -0.673444 0.309119 0
M  V30 2073 H 195.701 -1.32824 1.37949 0
M  V30 2074 H 194.006 -3.85091 0.721949 0
M  V30 2075 H 195.703 -3.85236 1.11329 0
M  V30 2076 H 192.293 -3.48249 2.49842 0
M  V30 2077 H 196.477 -3.54107 3.47738 0
M  V30 2078 H 191.733 -3.67804 4.88396 0
M  V30 2079 H 195.907 -3.74904 5.86873 0
M  V30 2080 H 193.534 -3.81333 6.57639 0
M  V30 2081 N 195.109 -0.891671 -1.2995 0
M  V30 2082 C 196.339 -0.527893 -1.99742 0
M  V30 2083 C 196.747 0.88979 -1.66971 0
M  V30 2084 O 196.09 1.59766 -0.906667 0
M  V30 2085 C 196.152 -0.630804 -3.53922 0
M  V30 2086 C 195.816 -2.01401 -4.10228 0
M  V30 2087 C 196.813 -2.98422 -4.25724 0
M  V30 2088 C 194.498 -2.32121 -4.45449 0
M  V30 2089 C 196.492 -4.24293 -4.75662 0
M  V30 2090 C 194.179 -3.58237 -4.95086 0
M  V30 2091 C 195.177 -4.54137 -5.10146 0
M  V30 2092 O 194.865 -5.78014 -5.58708 0
M  V30 2093 H 194.597 -0.201953 -0.645129 0
M  V30 2094 H 197.151 -1.20076 -1.66646 0
M  V30 2095 H 195.381 0.0990616 -3.86573 0
M  V30 2096 H 197.07 -0.277338 -4.04951 0
M  V30 2097 H 197.836 -2.76001 -3.98809 0
M  V30 2098 H 193.715 -1.5824 -4.32991 0
M  V30 2099 H 197.259 -4.99153 -4.87332 0
M  V30 2100 H 193.156 -3.80491 -5.21437 0
M  V30 2101 H 193.924 -5.8049 -5.77039 0
M  V30 2102 N 196.587 1.43421 -0.653314 0
M  V30 2103 C 197.864 1.95361 -0.0966581 0
M  V30 2104 C 198.244 1.59461 1.38331 0
M  V30 2105 O 197.592 0.879777 2.10884 0
M  V30 2106 C 197.802 3.47311 -0.342988 0
M  V30 2107 C 199.15 4.23875 -0.24798 0
M  V30 2108 O 200.174 3.55133 -0.275553 0
M  V30 2109 O 199.033 5.4623 -0.171771 0
M  V30 2110 H 196.127 0.826945 0.00956291 0
M  V30 2111 H 198.673 1.5336 -0.726558 0
M  V30 2112 H 197.445 3.66569 -1.36906 0
M  V30 2113 H 197.068 3.9631 0.319975 0
M  V30 2114 N 198.065 0.39524 1.52563 0
M  V30 2115 C 199.29 -0.187456 2.06551 0
M  V30 2116 C 199.715 -1.39249 1.26457 0
M  V30 2117 O 199.073 -1.78947 0.291151 0
M  V30 2118 C 199.121 -0.529985 3.56684 0
M  V30 2119 O 198.225 -1.62307 3.79118 0
M  V30 2120 H 197.566 -0.0202537 0.663691 0
M  V30 2121 H 200.096 0.564426 1.96661 0
M  V30 2122 H 200.106 -0.792598 4.00227 0
M  V30 2123 H 198.781 0.350987 4.14416 0
M  V30 2124 H 197.358 -1.3537 3.47461 0
M  V30 2125 N 199.544 -1.57102 0.125237 0
M  V30 2126 C 200.792 -1.95021 -0.530198 0
M  V30 2127 C 201.113 -1.00982 -1.66816 0
M  V30 2128 O 200.383 -0.0672693 -1.95784 0
M  V30 2129 H 198.963 -0.720046 -0.198853 0
M  V30 2130 H 201.625 -1.93916 0.19564 0
M  V30 2131 H 200.721 -2.98211 -0.920681 0
M  V30 2132 N 201.022 0.148545 -1.56898 0
M  V30 2133 C 201.952 1.18524 -2.01182 0
M  V30 2134 C 202.933 1.4489 -0.891123 0
M  V30 2135 O 204.118 1.55836 -1.15882 0
M  V30 2136 C 201.248 2.51879 -2.39112 0
M  V30 2137 C 200.202 2.40038 -3.54353 0
M  V30 2138 C 199.528 3.78089 -3.78091 0
M  V30 2139 C 200.828 1.88577 -4.87069 0
M  V30 2140 H 202.522 0.817029 -2.88036 0
M  V30 2141 H 200.068 0.391575 -1.38574 0
M  V30 2142 H 202.021 3.24627 -2.68692 0
M  V30 2143 H 200.745 2.90532 -1.49193 0
M  V30 2144 H 199.404 1.69742 -3.24936 0
M  V30 2145 H 199.052 4.14175 -2.85426 0
M  V30 2146 H 198.752 3.71028 -4.55645 0
M  V30 2147 H 200.276 4.52387 -4.10095 0
M  V30 2148 H 201.69 2.51117 -5.15377 0
M  V30 2149 H 200.087 1.9241 -5.68417 0
M  V30 2150 H 201.157 0.84136 -4.77545 0
M  V30 2151 N 202.5 1.5196 0.417844 0
M  V30 2152 C 203.43 1.77634 1.51554 0
M  V30 2153 C 204.411 0.626918 1.58126 0
M  V30 2154 O 205.596 0.871632 1.7354 0
M  V30 2155 C 202.726 1.91911 2.8946 0
M  V30 2156 C 201.68 3.07463 2.97743 0
M  V30 2157 C 201.006 3.06951 4.37819 0
M  V30 2158 C 202.306 4.47082 2.70027 0
M  V30 2159 H 204 2.6955 1.3032 0
M  V30 2160 H 201.546 1.29706 0.625492 0
M  V30 2161 H 203.499 2.08455 3.6623 0
M  V30 2162 H 202.223 0.966598 3.11969 0
M  V30 2163 H 200.882 2.90656 2.23416 0
M  V30 2164 H 200.53 2.09438 4.57323 0
M  V30 2165 H 200.23 3.84556 4.44286 0
M  V30 2166 H 201.754 3.25613 5.16535 0
M  V30 2167 H 203.168 4.6414 3.36522 0
M  V30 2168 H 201.565 5.2654 2.87881 0
M  V30 2169 H 202.635 4.55777 1.65514 0
M  V30 2170 N 203.978 -0.674533 1.42435 0
M  V30 2171 C 204.91 -1.80005 1.41883 0
M  V30 2172 C 205.923 -1.59667 0.31787 0
M  V30 2173 O 207.112 -1.68781 0.580973 0
M  V30 2174 C 204.212 -3.17114 1.19549 0
M  V30 2175 C 203.385 -3.64299 2.42084 0
M  V30 2176 C 202.444 -4.80142 2.15291 0
M  V30 2177 O 201.47 -4.90673 2.88493 0
M  V30 2178 N 202.672 -5.68869 1.1562 0
M  V30 2179 H 205.437 -1.80964 2.38898 0
M  V30 2180 H 202.998 -0.857633 1.37318 0
M  V30 2181 H 204.99 -3.92267 0.995417 0
M  V30 2182 H 203.56 -3.11053 0.310569 0
M  V30 2183 H 202.78 -2.79822 2.77657 0
M  V30 2184 H 204.068 -3.92567 3.23679 0
M  V30 2185 H 203.466 -5.63012 0.550765 0
M  V30 2186 H 202.023 -6.43833 1.016 0
M  V30 2187 N 205.456 -1.28612 -0.910864 0
M  V30 2188 C 206.704 -1.15705 -1.65701 0
M  V30 2189 C 207.025 0.29416 -1.92769 0
M  V30 2190 O 206.295 1.20331 -1.54588 0
M  V30 2191 H 204.875 -0.425216 -0.614167 0
M  V30 2192 H 207.537 -1.61381 -1.0928 0
M  V30 2193 H 206.633 -1.6988 -2.61815 0
M  V30 2194 N 206.934 1.1197 -1.10907 0
M  V30 2195 C 207.881 2.17846 -0.762345 0
M  V30 2196 C 208.851 1.63995 0.263599 0
M  V30 2197 O 210.036 1.90273 0.141773 0
M  V30 2198 C 207.176 3.44487 -0.205651 0
M  V30 2199 C 206.289 4.12369 -1.28748 0
M  V30 2200 C 205.424 5.26674 -0.691919 0
M  V30 2201 C 204.463 5.86431 -1.75399 0
M  V30 2202 N 203.6 6.92142 -1.17833 0
M  V30 2203 H 208.44 2.46851 -1.6694 0
M  V30 2204 H 205.977 1.21188 -0.833776 0
M  V30 2205 H 207.935 4.16981 0.135037 0
M  V30 2206 H 206.565 3.15884 0.664613 0
M  V30 2207 H 205.617 3.38003 -1.74522 0
M  V30 2208 H 206.929 4.52844 -2.09125 0
M  V30 2209 H 206.083 6.05953 -0.300963 0
M  V30 2210 H 204.822 4.8749 0.143232 0
M  V30 2211 H 203.827 5.05835 -2.15432 0
M  V30 2212 H 205.052 6.27685 -2.59208 0
M  V30 2213 H 202.998 6.54985 -0.364725 0
M  V30 2214 H 202.915 7.31242 -1.91887 0
M  V30 2215 H 204.183 7.75237 -0.81408 0
M  V30 2216 N 208.412 0.89855 1.29475 0
M  V30 2217 C 209.342 0.39201 2.30186 0
M  V30 2218 C 210.323 -0.532359 1.61555 0
M  V30 2219 O 211.508 -0.443331 1.89072 0
M  V30 2220 C 208.638 -0.382353 3.45189 0
M  V30 2221 C 207.592 0.451483 4.25612 0
M  V30 2222 C 206.918 -0.450307 5.328 0
M  V30 2223 C 208.218 1.70079 4.93832 0
M  V30 2224 H 209.912 1.23362 2.72804 0
M  V30 2225 H 207.458 0.594638 1.31149 0
M  V30 2226 H 209.411 -0.747451 4.14718 0
M  V30 2227 H 208.135 -1.25774 3.01411 0
M  V30 2228 H 206.794 0.798897 3.57789 0
M  V30 2229 H 206.442 -1.32379 4.85268 0
M  V30 2230 H 206.142 0.103902 5.87508 0
M  V30 2231 H 207.666 -0.811623 6.05182 0
M  V30 2232 H 209.08 1.40549 5.55805 0
M  V30 2233 H 207.477 2.19623 5.58467 0
M  V30 2234 H 208.547 2.43744 4.19186 0
M  V30 2235 N 209.89 -1.43072 0.660911 0
M  V30 2236 C 210.853 -2.29194 -0.0166406 0
M  V30 2237 C 211.853 -1.42609 -0.742912 0
M  V30 2238 O 213.043 -1.64155 -0.583004 0
M  V30 2239 C 210.175 -3.24831 -1.0343 0
M  V30 2240 H 211.368 -2.90596 0.741208 0
M  V30 2241 H 208.921 -1.5048 0.422532 0
M  V30 2242 H 209.656 -2.68339 -1.82111 0
M  V30 2243 H 209.441 -3.88676 -0.517082 0
M  V30 2244 H 210.931 -3.89451 -1.50723 0
M  V30 2245 N 211.368 -0.403325 -1.52352 0
M  V30 2246 C 212.298 0.416205 -2.29761 0
M  V30 2247 C 213.279 1.05123 -1.33728 0
M  V30 2248 O 214.464 1.06134 -1.62632 0
M  V30 2249 C 211.594 1.53624 -3.11475 0
M  V30 2250 C 210.548 1.02653 -4.15507 0
M  V30 2251 C 209.874 2.23971 -4.85532 0
M  V30 2252 C 211.174 0.08463 -5.22231 0
M  V30 2253 H 212.868 -0.229701 -2.98518 0
M  V30 2254 H 210.414 -0.111913 -1.43564 0
M  V30 2255 H 212.367 2.1165 -3.64393 0
M  V30 2256 H 211.091 2.20994 -2.40477 0
M  V30 2257 H 209.75 0.46871 -3.63591 0
M  V30 2258 H 209.398 2.89883 -4.11068 0
M  V30 2259 H 209.098 1.90521 -5.55856 0
M  V30 2260 H 210.622 2.82614 -5.41259 0
M  V30 2261 H 212.036 0.573509 -5.70424 0
M  V30 2262 H 210.433 -0.160783 -5.99885 0
M  V30 2263 H 211.503 -0.86237 -4.7717 0
M  V30 2264 N 212.846 1.57033 -0.133567 0
M  V30 2265 C 213.776 2.1909 0.807567 0
M  V30 2266 C 214.757 1.13517 1.26681 0
M  V30 2267 O 215.942 1.41809 1.32679 0
M  V30 2268 C 213.072 2.80188 2.05212 0
M  V30 2269 C 212.026 3.91471 1.73015 0
M  V30 2270 C 211.352 4.39443 3.04622 0
M  V30 2271 C 212.652 5.12886 0.987168 0
M  V30 2272 H 214.346 2.97988 0.290403 0
M  V30 2273 H 211.892 1.43335 0.138239 0
M  V30 2274 H 213.845 3.22264 2.71521 0
M  V30 2275 H 212.569 1.98601 2.59278 0
M  V30 2276 H 211.228 3.49993 1.0909 0
M  V30 2277 H 210.876 3.54695 3.56651 0
M  V30 2278 H 210.576 5.14495 2.83847 0
M  V30 2279 H 212.1 4.8418 3.72024 0
M  V30 2280 H 213.514 5.51891 1.55208 0
M  V30 2281 H 211.911 5.93615 0.87985 0
M  V30 2282 H 212.981 4.84894 -0.0235286 0
M  V30 2283 N 214.325 -0.140222 1.56975 0
M  V30 2284 C 215.55 -0.870414 1.88251 0
M  V30 2285 C 215.975 -1.73637 0.723312 0
M  V30 2286 O 215.333 -1.78329 -0.32689 0
M  V30 2287 C 215.381 -1.69737 3.18154 0
M  V30 2288 O 214.485 -2.80229 3.02565 0
M  V30 2289 H 213.826 -0.242025 0.61832 0
M  V30 2290 H 216.356 -0.128999 2.04193 0
M  V30 2291 H 216.366 -2.09099 3.50345 0
M  V30 2292 H 215.041 -1.06152 4.02125 0
M  V30 2293 H 213.618 -2.44224 2.81796 0
M  V30 2294 N 215.803 -1.52179 -0.40978 0
M  V30 2295 C 217.049 -1.66453 -1.15851 0
M  V30 2296 C 217.382 -0.392972 -1.90182 0
M  V30 2297 O 216.657 0.608579 -1.84734 0
M  V30 2298 C 216.94 -2.88612 -2.15349 0
M  V30 2299 C 216.793 -4.25815 -1.44918 0
M  V30 2300 C 218.112 -3.06294 -3.16026 0
M  V30 2301 H 215.231 -0.60575 -0.419805 0
M  V30 2302 H 217.873 -1.84732 -0.444314 0
M  V30 2303 H 216.023 -2.73158 -2.76255 0
M  V30 2304 H 217.695 -4.52995 -0.871365 0
M  V30 2305 H 215.938 -4.27247 -0.751159 0
M  V30 2306 H 216.609 -5.07337 -2.17516 0
M  V30 2307 H 219.085 -3.20641 -2.65195 0
M  V30 2308 H 217.961 -3.93283 -3.8291 0
M  V30 2309 H 218.222 -2.19579 -3.83715 0
M  V30 2310 N 217.281 0.66697 -1.42791 0
M  V30 2311 C 218.509 1.45505 -1.47091 0
M  V30 2312 C 218.924 1.8861 -0.0845873 0
M  V30 2313 O 218.281 1.58632 0.90234 0
M  V30 2314 C 218.332 2.69906 -2.40485 0
M  V30 2315 O 218.053 2.28608 -3.73725 0
M  V30 2316 C 219.554 3.63396 -2.53886 0
M  V30 2317 H 216.774 0.447459 -0.500022 0
M  V30 2318 H 219.318 0.818866 -1.8739 0
M  V30 2319 H 217.473 3.29696 -2.03419 0
M  V30 2320 H 217.887 3.08997 -4.23817 0
M  V30 2321 H 219.361 4.47387 -3.2334 0
M  V30 2322 H 219.838 4.09824 -1.57927 0
M  V30 2323 H 220.444 3.09495 -2.91706 0
M  V30 2324 N 218.759 1.29093 0.90403 0
M  V30 2325 C 219.987 1.19689 1.68766 0
M  V30 2326 C 220.402 -0.243113 1.87228 0
M  V30 2327 O 219.759 -1.16326 1.40621 0
M  V30 2328 C 219.81 1.90144 3.07453 0
M  V30 2329 O 219.531 3.2852 2.89838 0
M  V30 2330 C 221.032 1.87162 4.01852 0
M  V30 2331 H 218.252 0.415035 0.527244 0
M  V30 2332 H 220.796 1.7039 1.13082 0
M  V30 2333 H 218.951 1.43289 3.59926 0
M  V30 2334 H 219.365 3.63944 3.77684 0
M  V30 2335 H 220.839 2.41032 4.96596 0
M  V30 2336 H 221.316 0.84617 4.30972 0
M  V30 2337 H 221.922 2.33741 3.5531 0
M  V30 2338 N 220.237 -1.11381 1.11499 0
M  V30 2339 C 221.485 -1.8277 0.862524 0
M  V30 2340 C 221.806 -1.85097 -0.613534 0
M  V30 2341 O 221.076 -1.32198 -1.4457 0
M  V30 2342 H 219.656 -0.676823 0.316101 0
M  V30 2343 H 222.318 -1.34816 1.4075 0
M  V30 2344 H 221.414 -2.86614 1.23527 0
M  V30 2345 N 221.715 -0.905404 -1.28997 0
M  V30 2346 C 222.963 -0.533192 -1.9494 0
M  V30 2347 C 223.284 0.924618 -1.71685 0
M  V30 2348 O 222.554 1.65268 -1.05183 0
M  V30 2349 H 221.134 -0.194194 -0.721317 0
M  V30 2350 H 223.796 -1.15294 -1.57141 0
M  V30 2351 H 222.892 -0.72059 -3.03667 0
M  V30 2352 N 223.193 1.4272 -0.668489 0
M  V30 2353 C 224.421 2.05966 -0.196348 0
M  V30 2354 C 224.836 1.50191 1.14403 0
M  V30 2355 O 224.193 0.639208 1.7094 0
M  V30 2356 C 224.244 3.61314 -0.115815 0
M  V30 2357 O 223.965 4.1502 -1.40322 0
M  V30 2358 C 225.466 4.41663 0.380579 0
M  V30 2359 H 222.686 0.663954 -0.0969829 0
M  V30 2360 H 225.23 1.82966 -0.913446 0
M  V30 2361 H 223.385 3.83448 0.551931 0
M  V30 2362 H 223.799 5.08832 -1.27243 0
M  V30 2363 H 225.273 5.5065 0.385848 0
M  V30 2364 H 225.75 4.15792 1.41471 0
M  V30 2365 H 226.356 4.24534 -0.255209 0
M  V30 2366 N 224.671 0.411399 1.52136 0
M  V30 2367 C 225.634 -0.401089 2.25663 0
M  V30 2368 C 226.634 -0.971732 1.28117 0
M  V30 2369 O 227.824 -0.850254 1.52041 0
M  V30 2370 C 224.956 -1.56483 3.02863 0
M  V30 2371 H 226.149 0.24295 2.98914 0
M  V30 2372 H 223.702 0.163968 1.55438 0
M  V30 2373 H 224.437 -2.24567 2.33967 0
M  V30 2374 H 224.222 -1.16211 3.74483 0
M  V30 2375 H 225.712 -2.13951 3.58629 0
M  V30 2376 N 226.149 -1.5696 0.141893 0
M  V30 2377 C 227.059 -2.20066 -0.812905 0
M  V30 2378 C 228.075 -1.18344 -1.27557 0
M  V30 2379 O 229.251 -1.50902 -1.33381 0
M  V30 2380 C 226.316 -2.80583 -2.03652 0
M  V30 2381 C 225.377 -3.97414 -1.62359 0
M  V30 2382 C 224.61 -4.55036 -2.78887 0
M  V30 2383 O 224.833 -4.11538 -3.94959 0
M  V30 2384 O 223.767 -5.45376 -2.54653 0
M  V30 2385 H 227.593 -3.02157 -0.305746 0
M  V30 2386 H 225.178 -1.49159 -0.0848799 0
M  V30 2387 H 227.06 -3.19067 -2.75272 0
M  V30 2388 H 225.735 -2.01508 -2.5333 0
M  V30 2389 H 224.642 -3.63656 -0.877775 0
M  V30 2390 H 225.975 -4.77994 -1.17401 0
M  V30 2391 N 227.627 0.131896 -1.57047 0
M  V30 2392 C 228.56 1.19236 -1.94571 0
M  V30 2393 C 229.538 1.40782 -0.813576 0
M  V30 2394 O 230.722 1.55148 -1.07058 0
M  V30 2395 C 227.849 2.54858 -2.23081 0
M  V30 2396 C 226.895 2.49817 -3.45679 0
M  V30 2397 S 227.728 1.95036 -4.98719 0
M  V30 2398 C 228.884 3.32357 -5.30367 0
M  V30 2399 H 229.117 0.872297 -2.84215 0
M  V30 2400 H 226.65 0.338134 -1.50652 0
M  V30 2401 H 228.608 3.32898 -2.40185 0
M  V30 2402 H 227.269 2.84047 -1.34074 0
M  V30 2403 H 226.462 3.49688 -3.62952 0
M  V30 2404 H 226.064 1.79892 -3.27895 0
M  V30 2405 H 228.356 4.28525 -5.2476 0
M  V30 2406 H 229.299 3.19923 -6.31708 0
M  V30 2407 H 229.707 3.3019 -4.57859 0
M  V30 2408 N 229.106 1.52395 0.401703 0
M  V30 2409 C 230.336 1.70429 1.1678 0
M  V30 2410 C 230.744 0.416702 1.84554 0
M  V30 2411 O 230.087 -0.617697 1.73003 0
M  V30 2412 C 230.149 2.78919 2.26814 0
M  V30 2413 C 229.813 4.20437 1.79113 0
M  V30 2414 C 230.81 5.04028 1.27482 0
M  V30 2415 C 228.495 4.66704 1.85722 0
M  V30 2416 C 230.489 6.31961 0.830913 0
M  V30 2417 C 228.176 5.94625 1.40942 0
M  V30 2418 C 229.174 6.77082 0.897128 0
M  V30 2419 O 228.862 8.02607 0.455822 0
M  V30 2420 H 228.594 0.574272 0.356634 0
M  V30 2421 H 231.148 1.99767 0.477724 0
M  V30 2422 H 229.378 2.44973 2.99207 0
M  V30 2423 H 231.067 2.8548 2.88541 0
M  V30 2424 H 231.833 4.69471 1.21744 0
M  V30 2425 H 227.712 4.0262 2.24539 0
M  V30 2426 H 231.256 6.96271 0.430368 0
M  V30 2427 H 227.153 6.28688 1.46362 0
M  V30 2428 H 227.921 8.16453 0.578457 0
M  V30 2429 N 230.584 -0.659388 1.43143 0
M  V30 2430 C 231.812 -1.44723 1.47861 0
M  V30 2431 C 232.227 -1.88563 0.0945886 0
M  V30 2432 O 231.584 -1.59108 -0.893915 0
M  V30 2433 C 231.635 -2.68627 2.41913 0
M  V30 2434 O 231.356 -2.26623 3.74932 0
M  V30 2435 C 232.857 -3.62045 2.55809 0
M  V30 2436 H 230.077 -0.444801 0.502387 0
M  V30 2437 H 232.621 -0.808916 1.87821 0
M  V30 2438 H 230.776 -3.28613 2.05164 0
M  V30 2439 H 231.19 -3.06745 4.2545 0
M  V30 2440 H 232.664 -4.45666 3.25708 0
M  V30 2441 H 233.141 -4.08981 1.60099 0
M  V30 2442 H 233.747 -3.07944 2.93344 0
M  V30 2443 N 232.062 -1.29571 -0.897171 0
M  V30 2444 C 233.009 -1.14916 -2.00158 0
M  V30 2445 C 233.979 -0.0418149 -1.66047 0
M  V30 2446 O 235.164 -0.209793 -1.89643 0
M  V30 2447 C 232.304 -0.834307 -3.34863 0
M  V30 2448 C 231.417 -2.02234 -3.8174 0
M  V30 2449 C 230.552 -1.64664 -5.05034 0
M  V30 2450 C 229.591 -2.80033 -5.44286 0
M  V30 2451 N 228.728 -2.42843 -6.58765 0
M  V30 2452 H 233.568 -2.09403 -2.12025 0
M  V30 2453 H 231.105 -1.042 -1.0383 0
M  V30 2454 H 233.063 -0.632436 -4.12379 0
M  V30 2455 H 231.693 0.0736656 -3.22716 0
M  V30 2456 H 230.745 -2.33583 -3.00238 0
M  V30 2457 H 232.057 -2.88673 -4.06779 0
M  V30 2458 H 231.211 -1.4078 -5.9014 0
M  V30 2459 H 229.95 -0.753766 -4.8184 0
M  V30 2460 H 228.955 -3.04596 -4.57713 0
M  V30 2461 H 230.18 -3.69989 -5.6946 0
M  V30 2462 H 228.126 -1.56046 -6.3717 0
M  V30 2463 H 228.043 -3.22815 -6.83613 0
M  V30 2464 H 229.311 -2.22285 -7.47134 0
M  V30 2465 N 233.54 1.10788 -1.12088 0
M  V30 2466 C 234.768 1.86461 -0.896651 0
M  V30 2467 C 235.183 1.80492 0.553912 0
M  V30 2468 O 234.54 1.19102 1.38278 0
M  V30 2469 C 234.591 3.35006 -1.35843 0
M  V30 2470 O 234.312 3.40866 -2.75213 0
M  V30 2471 C 235.813 4.27565 -1.1706 0
M  V30 2472 H 233.033 0.589425 -0.320654 0
M  V30 2473 H 235.577 1.40076 -1.48993 0
M  V30 2474 H 233.732 3.7887 -0.808458 0
M  V30 2475 H 234.146 4.33411 -2.9539 0
M  V30 2476 H 235.62 5.30007 -1.54263 0
M  V30 2477 H 236.097 4.3906 -0.110814 0
M  V30 2478 H 236.703 3.89501 -1.70789 0
M  V30 2479 N 235.018 0.912232 1.28515 0
M  V30 2480 C 236.266 0.543523 1.94654 0
M  V30 2481 C 236.587 -0.9155 1.72173 0
M  V30 2482 O 235.857 -1.64708 1.06058 0
M  V30 2483 H 234.437 0.198017 0.720277 0
M  V30 2484 H 237.099 1.16126 1.56527 0
M  V30 2485 H 236.195 0.736684 3.03281 0
M  V30 2486 N 236.496 -1.42363 0.676048 0
M  V30 2487 C 237.742 -2.0182 0.199125 0
M  V30 2488 C 238.075 -1.53339 -1.19168 0
M  V30 2489 O 237.35 -0.736124 -1.80032 0
M  V30 2490 C 237.633 -3.59331 0.235144 0
M  V30 2491 C 237.486 -4.17989 1.66149 0
M  V30 2492 C 238.805 -4.3813 -0.41595 0
M  V30 2493 H 235.924 -0.733293 0.0738311 0
M  V30 2494 H 238.566 -1.69368 0.86107 0
M  V30 2495 H 236.716 -3.87109 -0.328487 0
M  V30 2496 H 238.388 -4.0116 2.27747 0
M  V30 2497 H 236.631 -3.7377 2.20178 0
M  V30 2498 H 237.302 -5.27126 1.63837 0
M  V30 2499 H 239.778 -4.16051 0.0638529 0
M  V30 2500 H 238.654 -5.47717 -0.360115 0
M  V30 2501 H 238.915 -4.16101 -1.49373 0
M  V30 2502 N 237.974 -0.419461 -1.51915 0
M  V30 2503 C 238.922 0.415502 -2.28859 0
M  V30 2504 C 239.916 1.03674 -1.3397 0
M  V30 2505 O 241.122 0.973757 -1.51387 0
M  V30 2506 H 237.497 0.152786 -0.736315 0
M  V30 2507 H 239.468 -0.254531 -2.97312 0
M  V30 2508 C 238.217 1.51425 -3.12995 0
M  V30 2509 H 237.54 1.04556 -3.85886 0
M  V30 2510 H 238.98 2.07208 -3.6992 0
M  V30 2511 C 237.439 2.48745 -2.27217 0
M  V30 2512 O 237.969 3.52871 -1.9195 0
M  V30 2513 N 236.175 2.19202 -1.90785 0
M  V30 2514 H 235.722 1.34556 -2.19664 0
M  V30 2515 H 235.68 2.84561 -1.33687 0
M  V30 2516 N 239.452 1.56882 -0.150215 0
M  V30 2517 C 240.7 1.9584 0.499105 0
M  V30 2518 C 241.021 1.03623 1.65188 0
M  V30 2519 O 240.291 0.0984084 1.95653 0
M  V30 2520 H 238.871 0.723119 0.187373 0
M  V30 2521 H 241.533 1.9358 -0.226466 0
M  V30 2522 H 240.629 2.99638 0.873122 0
M  V30 2523 N 240.93 -0.123565 1.57115 0
M  V30 2524 C 242.207 -0.862196 1.75572 0
M  V30 2525 C 242.587 -1.98279 0.724475 0
M  V30 2526 O 241.935 -2.27102 -0.252407 0
M  V30 2527 C 242.145 -1.38309 3.20424 0
M  V30 2528 C 243.493 -1.83724 3.82793 0
M  V30 2529 O 244.517 -1.47999 3.23998 0
M  V30 2530 O 243.376 -2.49685 4.86127 0
M  V30 2531 H 240.47 -0.409113 0.718718 0
M  V30 2532 H 243.016 -0.107661 1.69358 0
M  V30 2533 H 241.788 -0.578889 3.86994 0
M  V30 2534 H 241.411 -2.20046 3.31158 0
M  V30 2535 N 242.408 -1.52605 -0.393616 0
M  V30 2536 C 243.633 -1.71592 -1.16495 0
M  V30 2537 C 244.058 -0.43133 -1.83088 0
M  V30 2538 O 243.416 0.612523 -1.7064 0
M  V30 2539 C 243.464 -2.86318 -2.19213 0
M  V30 2540 O 242.568 -2.52969 -3.257 0
M  V30 2541 H 241.909 -0.570734 -0.33935 0
M  V30 2542 H 244.439 -1.99377 -0.459324 0
M  V30 2543 H 244.449 -3.1168 -2.63286 0
M  V30 2544 H 243.124 -3.79511 -1.7013 0
M  V30 2545 H 241.701 -2.38332 -2.86797 0
M  V30 2546 N 243.887 0.651787 -1.4349 0
M  V30 2547 C 245.303 0.96762 -1.26922 0
M  V30 2548 C 245.503 2.00602 -0.189982 0
M  V30 2549 O 244.559 2.48793 0.431107 0
M  V30 2550 C 245.872 1.45052 -2.63401 0
M  V30 2551 C 247.42 1.5671 -2.70945 0
M  V30 2552 C 247.895 2.0839 -4.07845 0
M  V30 2553 N 249.386 2.1569 -4.09917 0
M  V30 2554 C 250.121 2.56804 -5.12679 0
M  V30 2555 N 249.617 2.97203 -6.25813 0
M  V30 2556 N 251.41 2.56756 -5.00033 0
M  V30 2557 H 243.561 -0.0353158 -2.12371 0
M  V30 2558 H 245.824 0.0467858 -0.946845 0
M  V30 2559 H 245.53 0.761926 -3.43348 0
M  V30 2560 H 245.404 2.42529 -2.88894 0
M  V30 2561 H 247.791 2.2467 -1.9133 0
M  V30 2562 H 247.872 0.57662 -2.49216 0
M  V30 2563 H 247.516 1.41031 -4.87927 0
M  V30 2564 H 247.446 3.08271 -4.26938 0
M  V30 2565 H 249.937 1.87237 -3.28254 0
M  V30 2566 H 250.25 3.27328 -7.00055 0
M  V30 2567 H 248.595 2.95004 -6.29283 0
M  V30 2568 H 251.786 2.24572 -4.10713 0
M  V30 2569 H 251.959 2.88475 -5.80247 0
M  V30 2570 N 245.365 1.30045 0.890287 0
M  V30 2571 C 246.595 1.21296 1.67245 0
M  V30 2572 C 247.003 -0.227471 1.87828 0
M  V30 2573 O 246.346 -1.16296 1.422 0
M  V30 2574 C 246.408 1.86519 3.07329 0
M  V30 2575 C 246.072 3.35837 3.09939 0
M  V30 2576 C 247.069 4.31915 2.89389 0
M  V30 2577 C 244.754 3.77196 3.31706 0
M  V30 2578 C 246.748 5.67325 2.90552 0
M  V30 2579 C 244.435 5.12725 3.32499 0
M  V30 2580 C 245.433 6.076 3.11947 0
M  V30 2581 O 245.121 7.40655 3.12547 0
M  V30 2582 H 244.853 0.4211 0.528821 0
M  V30 2583 H 247.407 1.72111 1.12103 0
M  V30 2584 H 245.637 1.30228 3.64112 0
M  V30 2585 H 247.326 1.71963 3.67673 0
M  V30 2586 H 248.092 4.01294 2.72375 0
M  V30 2587 H 243.971 3.03796 3.4674 0
M  V30 2588 H 247.515 6.41354 2.74429 0
M  V30 2589 H 243.412 5.42988 3.49047 0
M  V30 2590 H 244.18 7.49577 3.28749 0
M  V30 2591 N 246.843 -1.10192 1.12674 0
M  V30 2592 C 248.09 -1.82205 0.883606 0
M  V30 2593 C 248.418 -1.8532 -0.590492 0
M  V30 2594 O 247.673 -1.31137 -1.45264 0
M  V30 2595 C 247.972 -3.28552 1.4067 0
M  V30 2596 C 247.638 -3.45582 2.89627 0
M  V30 2597 C 246.3 -3.49937 3.30299 0
M  V30 2598 C 248.652 -3.50768 3.85501 0
M  V30 2599 C 245.98 -3.57049 4.65546 0
M  V30 2600 C 248.332 -3.59414 5.20581 0
M  V30 2601 C 246.996 -3.62034 5.60792 0
M  V30 2602 H 246.266 -0.666735 0.323334 0
M  V30 2603 H 248.913 -1.29868 1.40736 0
M  V30 2604 H 247.218 -3.83473 0.80347 0
M  V30 2605 H 248.915 -3.82788 1.19475 0
M  V30 2606 H 245.505 -3.42871 2.57172 0
M  V30 2607 H 249.689 -3.46651 3.55171 0
M  V30 2608 H 244.945 -3.57361 4.96088 0
M  V30 2609 H 249.119 -3.62371 5.94693 0
M  V30 2610 H 246.746 -3.67298 6.6558 0
M  V30 2611 N 248.321 -0.919034 -1.28029 0
M  V30 2612 C 249.251 -0.428581 -2.29533 0
M  V30 2613 C 250.232 0.50659 -1.62381 0
M  V30 2614 O 251.417 0.413195 -1.89753 0
M  V30 2615 C 248.547 0.327388 -3.45753 0
M  V30 2616 C 247.501 -0.519137 -4.2484 0
M  V30 2617 C 246.827 0.365486 -5.33449 0
M  V30 2618 C 248.127 -1.77914 -4.91064 0
M  V30 2619 H 249.821 -1.27687 -2.70807 0
M  V30 2620 H 247.367 -0.615428 -1.30186 0
M  V30 2621 H 249.32 0.681378 -4.15855 0
M  V30 2622 H 248.044 1.20963 -3.03374 0
M  V30 2623 H 246.703 -0.855717 -3.56473 0
M  V30 2624 H 246.351 1.24642 -4.87312 0
M  V30 2625 H 246.051 -0.197356 -5.87268 0
M  V30 2626 H 247.575 0.715241 -6.06396 0
M  V30 2627 H 248.989 -1.49374 -5.53498 0
M  V30 2628 H 247.386 -2.2848 -5.54903 0
M  V30 2629 H 248.456 -2.50382 -4.15255 0
M  V30 2630 N 249.799 1.42003 -0.683588 0
M  V30 2631 C 251.045 2.02223 -0.218536 0
M  V30 2632 C 251.4 1.53126 1.16492 0
M  V30 2633 O 250.693 0.727459 1.77253 0
M  V30 2634 C 250.887 3.56827 -0.202357 0
M  V30 2635 C 250.716 4.20928 -1.5827 0
M  V30 2636 C 249.486 4.5573 -2.18262 0
M  V30 2637 C 251.684 4.47933 -2.52706 0
M  V30 2638 N 249.666 5.05056 -3.48986 0
M  V30 2639 C 251.037 4.98906 -3.68094 0
M  V30 2640 C 253.092 4.29931 -2.51125 0
M  V30 2641 C 251.795 5.33768 -4.82166 0
M  V30 2642 C 253.821 4.65875 -3.643 0
M  V30 2643 C 253.183 5.17008 -4.78417 0
M  V30 2644 H 249.282 0.771931 -0.125088 0
M  V30 2645 H 251.866 1.72729 -0.898479 0
M  V30 2646 H 250.037 3.85819 0.447029 0
M  V30 2647 H 251.769 4.03755 0.276399 0
M  V30 2648 H 248.524 4.41781 -1.70665 0
M  V30 2649 H 248.948 5.34139 -4.15962 0
M  V30 2650 H 253.59 3.89647 -1.6412 0
M  V30 2651 H 251.308 5.72981 -5.6984 0
M  V30 2652 H 254.894 4.53615 -3.64314 0
M  V30 2653 H 253.774 5.44301 -5.64541 0
M  V30 2654 N 251.277 0.427512 1.51691 0
M  V30 2655 C 252.688 -0.0378867 1.86662 0
M  V30 2656 C 253.039 -1.42819 1.34525 0
M  V30 2657 O 252.164 -2.05037 0.692014 0
M  V30 2658 C 252.759 -0.0755266 3.38716 0
M  V30 2659 C 251.318 -0.485309 3.73258 0
M  V30 2660 C 250.465 0.328399 2.75349 0
M  V30 2661 H 253.416 0.64379 1.45055 0
M  V30 2662 H 253.437 -0.887056 3.70016 0
M  V30 2663 H 252.949 0.936487 3.76632 0
M  V30 2664 H 251.05 -1.50329 3.40928 0
M  V30 2665 H 251.163 -0.21693 4.78609 0
M  V30 2666 H 249.527 -0.211905 2.53817 0
M  V30 2667 H 250.31 1.3391 3.16106 0
M  V30 2668 N 252.755 -1.56801 0.158532 0
M  V30 2669 C 253.685 -2.20347 -0.772609 0
M  V30 2670 C 254.666 -1.15518 -1.24859 0
M  V30 2671 O 255.851 -1.43902 -1.30406 0
M  V30 2672 C 252.981 -2.83417 -2.00729 0
M  V30 2673 C 251.935 -3.94174 -1.66765 0
M  V30 2674 C 251.261 -4.44233 -2.97592 0
M  V30 2675 C 252.561 -5.14392 -0.905447 0
M  V30 2676 H 254.255 -2.98413 -0.242959 0
M  V30 2677 H 251.801 -1.43537 -0.115419 0
M  V30 2678 H 253.754 -3.26543 -2.6636 0
M  V30 2679 H 252.478 -2.02701 -2.56086 0
M  V30 2680 H 251.137 -3.51684 -1.03508 0
M  V30 2681 H 250.785 -3.60325 -3.50963 0
M  V30 2682 H 250.485 -5.18945 -2.75626 0
M  V30 2683 H 252.009 -4.90037 -3.64274 0
M  V30 2684 H 253.423 -5.5429 -1.46408 0
M  V30 2685 H 251.82 -5.9494 -0.7853 0
M  V30 2686 H 252.89 -4.84795 0.100668 0
M  V30 2687 N 254.233 0.115231 -1.57178 0
M  V30 2688 C 255.165 1.16694 -1.97269 0
M  V30 2689 C 256.178 1.37445 -0.872502 0
M  V30 2690 O 257.367 1.36454 -1.15077 0
M  V30 2691 C 254.467 2.52627 -2.25905 0
M  V30 2692 C 253.64 2.52427 -3.57211 0
M  V30 2693 C 252.699 3.70134 -3.74016 0
M  V30 2694 O 251.725 3.53546 -4.46087 0
M  V30 2695 N 252.927 4.88844 -3.13068 0
M  V30 2696 H 255.692 0.82588 -2.88096 0
M  V30 2697 H 253.253 0.304461 -1.59011 0
M  V30 2698 H 255.245 3.29937 -2.34359 0
M  V30 2699 H 253.815 2.789 -1.41186 0
M  V30 2700 H 253.035 1.60805 -3.5991 0
M  V30 2701 H 254.323 2.49353 -4.43509 0
M  V30 2702 H 253.721 5.05225 -2.54489 0
M  V30 2703 H 252.278 5.63817 -3.27037 0
M  V30 2704 N 255.711 1.52812 0.385517 0
M  V30 2705 C 256.661 1.74219 1.47078 0
M  V30 2706 C 257.645 0.59632 1.49442 0
M  V30 2707 O 258.837 0.85428 1.5502 0
M  V30 2708 C 255.966 1.9176 2.84751 0
M  V30 2709 C 255.052 3.12289 2.86943 0
M  V30 2710 N 255.443 4.34575 2.58802 0
M  V30 2711 C 253.741 3.12605 3.1811 0
M  V30 2712 C 254.442 5.162 2.68166 0
M  V30 2713 N 253.418 4.51964 3.02043 0
M  V30 2714 H 257.22 2.6639 1.24152 0
M  V30 2715 H 254.734 1.51166 0.593504 0
M  V30 2716 H 256.731 2.05218 3.62893 0
M  V30 2717 H 255.391 1.00805 3.08656 0
M  V30 2718 H 256.402 4.62649 2.32759 0
M  V30 2719 H 253.079 2.31472 3.47458 0
M  V30 2720 H 254.469 6.23689 2.49923 0
M  V30 2721 N 257.189 -0.644168 1.43834 0
M  V30 2722 C 258.437 -1.40117 1.45642 0
M  V30 2723 C 258.758 -1.94814 0.0852413 0
M  V30 2724 O 258.028 -1.74988 -0.880688 0
M  V30 2725 H 256.608 -0.52005 0.536243 0
M  V30 2726 H 259.27 -0.7591 1.7951 0
M  V30 2727 H 258.366 -2.23902 2.17427 0
M  V30 2728 N 258.668 -1.30515 -0.883378 0
M  V30 2729 C 259.896 -1.22359 -1.66841 0
M  V30 2730 C 260.311 0.213296 -1.87591 0
M  V30 2731 O 259.668 1.14075 -1.42454 0
M  V30 2732 C 259.719 -1.95011 -3.04389 0
M  V30 2733 O 259.44 -3.3309 -2.84575 0
M  V30 2734 C 260.941 -1.93532 -3.98824 0
M  V30 2735 H 258.161 -0.423371 -0.520575 0
M  V30 2736 H 260.705 -1.72167 -1.10357 0
M  V30 2737 H 258.86 -1.48997 -3.57601 0
M  V30 2738 H 259.274 -3.69907 -3.71846 0
M  V30 2739 H 260.748 -2.48902 -4.92699 0
M  V30 2740 H 261.225 -0.914627 -4.29571 0
M  V30 2741 H 261.831 -2.39364 -3.51547 0
M  V30 2742 N 260.146 1.09593 -1.13257 0
M  V30 2743 C 261.076 2.18214 -0.830946 0
M  V30 2744 C 262.057 1.68812 0.208966 0
M  V30 2745 O 263.242 1.9408 0.0682666 0
M  V30 2746 C 260.372 3.46051 -0.294296 0
M  V30 2747 C 259.326 4.08778 -1.26826 0
M  V30 2748 C 258.652 5.31419 -0.591449 0
M  V30 2749 C 259.952 4.51476 -2.62615 0
M  V30 2750 H 261.646 2.43703 -1.73923 0
M  V30 2751 H 259.192 1.17128 -0.837675 0
M  V30 2752 H 261.145 4.2134 -0.0709606 0
M  V30 2753 H 259.869 3.20079 0.649366 0
M  V30 2754 H 258.528 3.35505 -1.47756 0
M  V30 2755 H 258.176 5.01727 0.357633 0
M  V30 2756 H 257.876 5.74341 -1.24123 0
M  V30 2757 H 259.4 6.09433 -0.377355 0
M  V30 2758 H 260.814 5.17999 -2.45663 0
M  V30 2759 H 259.211 5.05277 -3.23752 0
M  V30 2760 H 260.281 3.63962 -3.20406 0
M  V30 2761 N 261.624 0.925811 1.2754 0
M  V30 2762 C 262.574 0.394488 2.24561 0
M  V30 2763 C 263.558 -0.500183 1.52928 0
M  V30 2764 O 264.75 -0.337936 1.73744 0
M  V30 2765 C 261.879 -0.353328 3.41477 0
M  V30 2766 C 260.965 0.557752 4.20416 0
M  V30 2767 N 261.356 1.67674 4.77199 0
M  V30 2768 C 259.654 0.360404 4.44541 0
M  V30 2769 C 260.355 2.24324 5.36706 0
M  V30 2770 N 259.331 1.53305 5.21535 0
M  V30 2771 H 263.133 1.2489 2.66045 0
M  V30 2772 H 260.647 0.779864 1.4245 0
M  V30 2773 H 262.644 -0.7509 4.10082 0
M  V30 2774 H 261.304 -1.20469 3.01525 0
M  V30 2775 H 262.315 2.05915 4.75204 0
M  V30 2776 H 258.992 -0.450454 4.15063 0
M  V30 2777 H 260.382 3.18521 5.91603 0
M  V30 2778 N 263.102 -1.41638 0.69111 0
M  V30 2779 C 264.349 -2.01299 0.220193 0
M  V30 2780 C 264.677 -1.54715 -1.17871 0
M  V30 2781 O 263.932 -0.747193 -1.80874 0
M  V30 2782 C 264.231 -3.56714 0.221277 0
M  V30 2783 C 263.897 -4.22792 1.56709 0
M  V30 2784 C 262.559 -4.40557 1.93554 0
M  V30 2785 C 264.911 -4.59883 2.45268 0
M  V30 2786 C 262.239 -4.92688 3.18552 0
M  V30 2787 C 264.591 -5.13403 3.69595 0
M  V30 2788 C 263.255 -5.29379 4.06589 0
M  V30 2789 H 262.525 -0.736606 0.0805743 0
M  V30 2790 H 265.172 -1.69598 0.889319 0
M  V30 2791 H 263.477 -3.8818 -0.531391 0
M  V30 2792 H 265.174 -4.00678 -0.160547 0
M  V30 2793 H 261.764 -4.09336 1.2705 0
M  V30 2794 H 265.948 -4.45817 2.18084 0
M  V30 2795 H 261.204 -5.03242 3.47214 0
M  V30 2796 H 265.378 -5.41084 4.38407 0
M  V30 2797 H 263.005 -5.69537 5.03519 0
M  V30 2798 N 264.58 -0.43555 -1.51462 0
M  V30 2799 C 265.82 0.130708 -2.03982 0
M  V30 2800 C 266.184 1.40117 -1.31268 0
M  V30 2801 O 267.385 2.04755 -1.74152 0
M  V30 2802 C 265.656 0.346102 -3.5572 0
M  V30 2803 S 267.215 0.876022 -4.29967 0
M  V30 2804 H 264.033 0.0326881 -0.710248 0
M  V30 2805 H 266.635 -0.594544 -1.8624 0
M  V30 2806 H 265.339 -0.584911 -4.0621 0
M  V30 2807 H 264.87 1.09849 -3.77752 0
M  V30 2808 H 266.885 2.15379 -4.47019 0
M  V30 2809 N 266.058 1.56714 -0.166846 0
M  V30 2810 C 267.306 1.96358 0.478305 0
M  V30 2811 C 267.627 1.0537 1.6408 0
M  V30 2812 O 266.897 0.119154 1.95537 0
M  V30 2813 H 265.477 0.725065 0.179692 0
M  V30 2814 H 268.139 1.93329 -0.246985 0
M  V30 2815 H 267.235 3.00547 0.841292 0
M  V30 2816 N 267.536 -0.106894 1.57237 0
M  V30 2817 C 268.783 -0.812526 1.85484 0
M  V30 2818 C 269.111 -1.79304 0.753687 0
M  V30 2819 O 268.366 -1.94047 -0.253853 0
M  V30 2820 C 268.665 -1.58628 3.20268 0
M  V30 2821 C 268.331 -0.748967 4.44636 0
M  V30 2822 C 266.993 -0.518104 4.78403 0
M  V30 2823 C 269.345 -0.166122 5.20935 0
M  V30 2824 C 266.673 0.305659 5.85903 0
M  V30 2825 C 269.025 0.644899 6.29304 0
M  V30 2826 C 267.689 0.885965 6.61594 0
M  V30 2827 H 266.959 -0.297324 0.678734 0
M  V30 2828 H 269.606 -0.0744332 1.91355 0
M  V30 2829 H 267.911 -2.39562 3.10028 0
M  V30 2830 H 269.608 -2.13643 3.39349 0
M  V30 2831 H 266.198 -0.939006 4.18187 0
M  V30 2832 H 270.382 -0.33167 4.95191 0
M  V30 2833 H 265.638 0.501528 6.0934 0
M  V30 2834 H 269.812 1.10345 6.87602 0
M  V30 2835 H 267.439 1.52609 7.44725 0
M  V30 2836 N 269.014 -1.53014 -0.377408 0
M  V30 2837 C 269.961 -1.78616 -1.46168 0
M  V30 2838 C 270.931 -0.629917 -1.53692 0
M  V30 2839 O 272.116 -0.870861 -1.69766 0
M  V30 2840 C 269.256 -1.97123 -2.8326 0
M  V30 2841 C 268.369 -3.24831 -2.84796 0
M  V30 2842 C 267.504 -3.33591 -4.13389 0
M  V30 2843 C 266.543 -4.55377 -4.09021 0
M  V30 2844 N 265.68 -4.61355 -5.29241 0
M  V30 2845 H 270.52 -2.71142 -1.23637 0
M  V30 2846 H 268.057 -1.34326 -0.599577 0
M  V30 2847 H 270.015 -2.05839 -3.62886 0
M  V30 2848 H 268.645 -1.07946 -3.04216 0
M  V30 2849 H 267.697 -3.25128 -1.97474 0
M  V30 2850 H 269.009 -4.14523 -2.77439 0
M  V30 2851 H 268.163 -3.41554 -5.01424 0
M  V30 2852 H 266.902 -2.41894 -4.23484 0
M  V30 2853 H 265.907 -4.47527 -3.19373 0
M  V30 2854 H 267.132 -5.48402 -4.00539 0
M  V30 2855 H 265.078 -3.72554 -5.39944 0
M  V30 2856 H 264.995 -5.44935 -5.24006 0
M  V30 2857 H 266.263 -4.73586 -6.19141 0
M  V30 2858 N 270.492 0.636531 -1.44174 0
M  V30 2859 C 271.738 1.39826 -1.4689 0
M  V30 2860 C 272.071 1.93947 -0.0990585 0
M  V30 2861 O 271.346 1.73325 0.882544 0
M  V30 2862 C 271.629 2.56751 -2.5249 0
M  V30 2863 C 271.482 2.08014 -3.98811 0
M  V30 2864 C 272.801 3.58946 -2.54649 0
M  V30 2865 H 269.92 0.507075 -0.53483 0
M  V30 2866 H 272.562 0.720188 -1.75822 0
M  V30 2867 H 270.712 3.14597 -2.2795 0
M  V30 2868 H 272.384 1.5504 -4.34466 0
M  V30 2869 H 270.627 1.39242 -4.10846 0
M  V30 2870 H 271.298 2.92169 -4.68339 0
M  V30 2871 H 273.774 3.1089 -2.76563 0
M  V30 2872 H 272.65 4.38286 -3.3045 0
M  V30 2873 H 272.911 4.12655 -1.58646 0
M  V30 2874 N 271.97 1.30982 0.876444 0
M  V30 2875 C 272.9 1.20668 1.99903 0
M  V30 2876 C 273.881 0.095354 1.69833 0
M  V30 2877 O 275.066 0.27885 1.92188 0
M  V30 2878 C 272.196 0.90655 3.3526 0
M  V30 2879 C 271.15 1.97675 3.79617 0
M  V30 2880 C 270.476 1.52943 5.1236 0
M  V30 2881 C 271.776 3.389 3.97422 0
M  V30 2882 H 273.47 2.14586 2.0879 0
M  V30 2883 H 271.016 1.03308 1.00317 0
M  V30 2884 H 272.969 0.821025 4.13324 0
M  V30 2885 H 271.693 -0.0682969 3.26529 0
M  V30 2886 H 270.352 2.05205 3.03787 0
M  V30 2887 H 270 0.54262 5.00065 0
M  V30 2888 H 269.7 2.24532 5.43009 0
M  V30 2889 H 271.224 1.45786 5.92941 0
M  V30 2890 H 272.638 3.34081 4.659 0
M  V30 2891 H 271.035 4.0865 4.3946 0
M  V30 2892 H 272.105 3.80163 3.01006 0
M  V30 2893 N 273.449 -1.08991 1.13837 0
M  V30 2894 C 274.412 -2.13925 0.822715 0
M  V30 2895 C 275.412 -1.599 -0.1699 0
M  V30 2896 O 276.602 -1.74104 0.0577251 0
M  V30 2897 C 273.734 -3.40155 0.225318 0
M  V30 2898 H 274.927 -2.43358 1.75262 0
M  V30 2899 H 272.48 -1.24603 0.943594 0
M  V30 2900 H 273.215 -3.16352 -0.713594 0
M  V30 2901 H 273 -3.80661 0.940193 0
M  V30 2902 H 274.49 -4.17594 0.0214784 0
M  V30 2903 N 274.927 -0.932562 -1.27047 0
M  V30 2904 C 276.338 -0.619451 -1.76124 0
M  V30 2905 C 276.689 0.865397 -1.76083 0
M  V30 2906 O 275.814 1.67722 -1.36742 0
M  V30 2907 C 276.409 -1.11771 -3.19832 0
M  V30 2908 C 274.968 -0.855174 -3.66557 0
M  V30 2909 C 274.115 -1.27362 -2.46321 0
M  V30 2910 H 277.066 -1.11181 -1.13245 0
M  V30 2911 H 277.087 -0.46759 -3.77616 0
M  V30 2912 H 276.599 -2.19842 -3.1983 0
M  V30 2913 H 274.7 0.211524 -3.71999 0
M  V30 2914 H 274.813 -1.47613 -4.55793 0
M  V30 2915 H 273.177 -0.692119 -2.45116 0
M  V30 2916 H 273.96 -2.36307 -2.49025 0
M  V30 2917 N 276.405 1.4127 -0.698611 0
M  V30 2918 C 277.337 2.292 0.00399731 0
M  V30 2919 C 278.35 1.44944 0.741279 0
M  V30 2920 O 279.539 1.68416 0.591477 0
M  V30 2921 C 276.639 3.22875 1.02979 0
M  V30 2922 C 275.812 4.35904 0.36151 0
M  V30 2923 C 274.871 5.10134 1.29033 0
M  V30 2924 O 273.897 5.63809 0.781562 0
M  V30 2925 N 275.099 5.17885 2.6225 0
M  V30 2926 H 277.864 2.9014 -0.750921 0
M  V30 2927 H 275.425 1.52455 -0.544882 0
M  V30 2928 H 277.417 3.69404 1.65296 0
M  V30 2929 H 275.987 2.63221 1.68622 0
M  V30 2930 H 275.207 3.91719 -0.441584 0
M  V30 2931 H 276.495 5.08696 -0.103055 0
M  V30 2932 H 275.893 4.7573 3.061 0
M  V30 2933 H 274.45 5.6798 3.19754 0
M  V30 2934 N 277.883 0.443576 1.51229 0
M  V30 2935 C 279.132 -0.122332 2.01329 0
M  V30 2936 C 279.445 -1.43237 1.33201 0
M  V30 2937 O 280.651 -2.0816 1.74304 0
M  V30 2938 C 279.107 -0.268551 3.58897 0
M  V30 2939 C 278.715 1.03142 4.35965 0
M  V30 2940 C 280.459 -0.787894 4.17124 0
M  V30 2941 C 278.366 0.850504 5.85252 0
M  V30 2942 H 277.296 -0.0494929 0.752374 0
M  V30 2943 H 279.947 0.574289 1.74282 0
M  V30 2944 H 278.329 -1.02832 3.82415 0
M  V30 2945 H 279.503 1.80001 4.24189 0
M  V30 2946 H 277.818 1.47977 3.89219 0
M  V30 2947 H 280.415 -0.939841 5.26375 0
M  V30 2948 H 280.758 -1.77201 3.76703 0
M  V30 2949 H 281.291 -0.0862669 3.97706 0
M  V30 2950 H 278.03 1.80718 6.30096 0
M  V30 2951 H 277.55 0.121825 5.99676 0
M  V30 2952 H 279.229 0.506163 6.45017 0
M  V30 2953 N 279.361 -1.56624 0.175154 0
M  V30 2954 C 280.586 -2.01813 -0.478137 0
M  V30 2955 C 281.011 -1.05457 -1.55757 0
M  V30 2956 O 280.369 -0.0347439 -1.81267 0
M  V30 2957 C 280.417 -3.45581 -1.02987 0
M  V30 2958 O 279.521 -3.52305 -2.14371 0
M  V30 2959 H 278.862 -0.65413 -0.114059 0
M  V30 2960 H 281.392 -2.02673 0.280173 0
M  V30 2961 H 281.402 -3.84965 -1.35151 0
M  V30 2962 H 280.077 -4.1521 -0.239556 0
M  V30 2963 H 278.654 -3.24783 -1.83222 0
M  V30 2964 N 280.839 0.0985539 -1.57292 0
M  V30 2965 C 282.086 0.802678 -1.85912 0
M  V30 2966 C 282.414 1.78901 -0.763186 0
M  V30 2967 O 281.669 1.94178 0.243559 0
M  V30 2968 C 281.968 1.56927 -3.21105 0
M  V30 2969 C 281.634 0.725376 -4.45027 0
M  V30 2970 C 280.296 0.492726 -4.78671 0
M  V30 2971 C 282.648 0.138493 -5.21016 0
M  V30 2972 C 279.976 -0.336727 -5.85733 0
M  V30 2973 C 282.328 -0.678264 -6.28953 0
M  V30 2974 C 280.992 -0.921039 -6.61115 0
M  V30 2975 H 280.262 0.293721 -0.680301 0
M  V30 2976 H 282.909 0.0642841 -1.91392 0
M  V30 2977 H 281.214 2.37914 -3.11294 0
M  V30 2978 H 282.911 2.11841 -3.40477 0
M  V30 2979 H 279.501 0.916815 -4.18679 0
M  V30 2980 H 283.685 0.305404 -4.95359 0
M  V30 2981 H 278.941 -0.533836 -6.09065 0
M  V30 2982 H 283.115 -1.1399 -6.87007 0
M  V30 2983 H 280.742 -1.56556 -7.43905 0
M  V30 2984 N 282.317 1.53212 0.369288 0
M  V30 2985 C 283.28 1.7872 1.43498 0
M  V30 2986 C 284.28 0.657554 1.46741 0
M  V30 2987 O 285.47 0.925736 1.47566 0
M  V30 2988 C 282.602 1.90591 2.82645 0
M  V30 2989 H 283.795 2.73894 1.22156 0
M  V30 2990 H 281.348 1.44233 0.602203 0
M  V30 2991 H 282.083 0.974709 3.09306 0
M  V30 2992 H 281.868 2.72751 2.8169 0
M  V30 2993 H 283.358 2.11931 3.59826 0
M  V30 2994 N 283.795 -0.628877 1.44509 0
M  V30 2995 C 285.206 -1.21054 1.42137 0
M  V30 2996 C 285.557 -1.95715 0.137881 0
M  V30 2997 O 284.682 -2.02554 -0.761645 0
M  V30 2998 C 285.277 -2.20189 2.57493 0
M  V30 2999 C 283.836 -2.73777 2.58308 0
M  V30 3000 C 282.983 -1.48813 2.33987 0
M  V30 3001 H 285.934 -0.41942 1.53057 0
M  V30 3002 H 285.955 -3.02833 2.30375 0
M  V30 3003 H 285.467 -1.6582 3.50892 0
M  V30 3004 H 283.568 -3.32142 1.68856 0
M  V30 3005 H 283.681 -3.19662 3.56865 0
M  V30 3006 H 282.045 -1.77024 1.83124 0
M  V30 3007 H 282.828 -0.963442 3.29504 0
M  V30 3008 N 285.273 -1.31445 -0.869486 0
M  V30 3009 C 286.183 -1.21097 -2.0093 0
M  V30 3010 C 287.199 -0.127584 -1.73532 0
M  V30 3011 O 288.375 -0.345477 -1.98415 0
M  V30 3012 C 285.44 -0.919378 -3.34288 0
M  V30 3013 C 284.501 -2.08971 -3.75006 0
M  V30 3014 C 283.734 -1.81194 -5.02001 0
M  V30 3015 O 283.957 -0.747296 -5.65484 0
M  V30 3016 O 282.891 -2.66883 -5.39497 0
M  V30 3017 H 286.717 -2.16883 -2.12592 0
M  V30 3018 H 284.302 -1.11189 -0.997868 0
M  V30 3019 H 286.184 -0.772625 -4.14257 0
M  V30 3020 H 284.859 0.00844772 -3.23699 0
M  V30 3021 H 283.766 -2.29187 -2.95676 0
M  V30 3022 H 285.099 -2.9998 -3.90221 0
M  V30 3023 N 286.751 1.08385 -1.14413 0
M  V30 3024 C 288 1.80153 -0.907076 0
M  V30 3025 C 288.313 1.87176 0.567851 0
M  V30 3026 O 289.519 2.55359 0.922172 0
M  V30 3027 C 287.975 3.23687 -1.57336 0
M  V30 3028 C 287.583 3.24897 -3.08457 0
M  V30 3029 C 289.327 4.00136 -1.41744 0
M  V30 3030 C 287.234 4.6302 -3.67921 0
M  V30 3031 H 286.164 0.675139 -0.335714 0
M  V30 3032 H 288.815 1.21733 -1.37307 0
M  V30 3033 H 287.197 3.82234 -1.03505 0
M  V30 3034 H 288.371 2.76055 -3.68958 0
M  V30 3035 H 286.686 2.61943 -3.2369 0
M  V30 3036 H 289.283 5.02201 -1.83572 0
M  V30 3037 H 289.626 4.14709 -0.363576 0
M  V30 3038 H 290.159 3.48058 -1.92614 0
M  V30 3039 H 286.898 4.5365 -4.73161 0
M  V30 3040 H 286.418 5.12143 -3.12201 0
M  V30 3041 H 288.097 5.31994 -3.68227 0
M  V30 3042 N 288.23 0.939286 1.26551 0
M  V30 3043 C 289.193 0.451987 2.24699 0
M  V30 3044 C 290.193 -0.435869 1.5478 0
M  V30 3045 O 291.383 -0.235314 1.72603 0
M  V30 3046 C 288.515 -0.348801 3.39111 0
M  V30 3047 H 289.708 1.3193 2.69322 0
M  V30 3048 H 287.261 0.721072 1.38673 0
M  V30 3049 H 287.996 -1.23444 2.99887 0
M  V30 3050 H 287.781 0.287945 3.91041 0
M  V30 3051 H 289.271 -0.679726 4.12031 0
M  V30 3052 N 289.708 -1.40897 0.706093 0
M  V30 3053 C 290.933 -2.05895 0.249435 0
M  V30 3054 C 291.358 -1.52823 -1.09666 0
M  V30 3055 O 290.716 -0.659589 -1.68876 0
M  V30 3056 C 290.764 -3.59872 0.22904 0
M  V30 3057 O 289.868 -4.04708 -0.792784 0
M  V30 3058 H 289.209 -0.653206 0.119241 0
M  V30 3059 H 291.739 -1.80471 0.96391 0
M  V30 3060 H 291.749 -4.07951 0.0634791 0
M  V30 3061 H 290.424 -3.97866 1.21141 0
M  V30 3062 H 289.001 -3.68111 -0.59572 0
M  V30 3063 N 291.186 -0.45159 -1.50991 0
M  V30 3064 C 292.096 0.358431 -2.31846 0
M  V30 3065 C 293.112 1.01438 -1.41373 0
M  V30 3066 O 294.288 1.00663 -1.74439 0
M  V30 3067 C 291.353 1.43704 -3.15515 0
M  V30 3068 C 290.414 0.799742 -4.21785 0
M  V30 3069 C 289.647 1.82696 -5.01456 0
M  V30 3070 O 289.87 3.05105 -4.81941 0
M  V30 3071 O 288.804 1.40958 -5.85162 0
M  V30 3072 H 292.63 -0.302032 -3.02194 0
M  V30 3073 H 290.215 -0.213825 -1.47862 0
M  V30 3074 H 292.097 2.06227 -3.67489 0
M  V30 3075 H 290.772 2.08133 -2.47916 0
M  V30 3076 H 289.679 0.136084 -3.73852 0
M  V30 3077 H 291.012 0.198718 -4.91799 0
M  V30 3078 N 292.664 1.56529 -0.183458 0
M  V30 3079 C 293.574 2.22144 0.754272 0
M  V30 3080 C 294.59 1.21684 1.24374 0
M  V30 3081 O 295.766 1.54385 1.29333 0
M  V30 3082 C 292.831 2.85884 1.96141 0
M  V30 3083 C 291.892 4.01579 1.51765 0
M  V30 3084 C 291.125 4.6227 2.66725 0
M  V30 3085 O 291.348 4.21865 3.83909 0
M  V30 3086 O 290.282 5.51936 2.40104 0
M  V30 3087 H 294.108 3.02861 0.225527 0
M  V30 3088 H 291.693 1.49331 0.0453032 0
M  V30 3089 H 293.575 3.26253 2.66715 0
M  V30 3090 H 292.25 2.08154 2.47899 0
M  V30 3091 H 291.157 3.65856 0.781049 0
M  V30 3092 H 292.49 4.80938 1.04686 0
M  V30 3093 N 294.142 -0.090211 1.57342 0
M  V30 3094 C 295.052 -1.12735 2.05738 0
M  V30 3095 C 296.068 -1.43557 0.983231 0
M  V30 3096 O 297.244 -1.54101 1.29672 0
M  V30 3097 C 294.309 -2.42659 2.47624 0
M  V30 3098 C 293.37 -2.18975 3.69254 0
M  V30 3099 C 292.603 -3.42704 4.09133 0
M  V30 3100 O 292.826 -4.51127 3.49057 0
M  V30 3101 O 291.76 -3.32003 5.02053 0
M  V30 3102 H 295.586 -0.746279 2.94388 0
M  V30 3103 H 293.171 -0.303064 1.46294 0
M  V30 3104 H 295.053 -3.19155 2.7517 0
M  V30 3105 H 293.728 -2.80182 1.62109 0
M  V30 3106 H 292.635 -1.40244 3.46818 0
M  V30 3107 H 293.968 -1.86342 4.55563 0
M  V30 3108 N 295.62 -1.53406 -0.361157 0
M  V30 3109 C 297.036 -1.43277 -0.703124 0
M  V30 3110 C 297.236 -0.575384 -1.9311 0
M  V30 3111 O 296.292 -0.0595362 -2.5243 0
M  V30 3112 C 297.605 -2.8653 -0.9122 0
M  V30 3113 C 299.153 -2.96191 -1.01193 0
M  V30 3114 C 299.628 -4.40514 -1.25345 0
M  V30 3115 N 301.119 -4.43962 -1.32105 0
M  V30 3116 C 301.854 -5.52746 -1.5251 0
M  V30 3117 N 301.35 -6.71567 -1.70203 0
M  V30 3118 N 303.143 -5.40331 -1.54916 0
M  V30 3119 H 295.294 -2.07654 0.446475 0
M  V30 3120 H 297.557 -0.937944 0.137715 0
M  V30 3121 H 297.263 -3.51605 -0.0816414 0
M  V30 3122 H 297.137 -3.30441 -1.81903 0
M  V30 3123 H 299.524 -2.31266 -1.83303 0
M  V30 3124 H 299.605 -2.55667 -0.0823929 0
M  V30 3125 H 299.249 -5.06014 -0.437346 0
M  V30 3126 H 299.179 -4.78614 -2.19627 0
M  V30 3127 H 301.67 -3.58332 -1.20028 0
M  V30 3128 H 301.983 -7.50241 -1.85359 0
M  V30 3129 H 300.328 -6.74545 -1.67373 0
M  V30 3130 H 303.519 -4.46465 -1.40663 0
M  V30 3131 H 303.692 -6.25173 -1.70477 0
M  V30 3132 N 297.098 0.621204 -1.44841 0
M  V30 3133 C 298.045 1.73267 -1.5247 0
M  V30 3134 C 299.015 1.6189 -0.371611 0
M  V30 3135 O 300.2 1.81668 -0.58321 0
M  V30 3136 C 297.34 3.11545 -1.48438 0
M  V30 3137 C 296.453 3.33827 -2.74196 0
M  V30 3138 C 295.588 4.62133 -2.61929 0
M  V30 3139 C 294.627 4.77627 -3.82804 0
M  V30 3140 N 293.764 5.97219 -3.69153 0
M  V30 3141 H 298.604 1.66082 -2.47428 0
M  V30 3142 H 296.141 0.810026 -1.22788 0
M  V30 3143 H 298.099 3.91528 -1.4409 0
M  V30 3144 H 296.729 3.1772 -0.570402 0
M  V30 3145 H 295.781 2.47715 -2.88689 0
M  V30 3146 H 297.093 3.41153 -3.6389 0
M  V30 3147 H 296.247 5.50291 -2.5547 0
M  V30 3148 H 294.986 4.57182 -1.69811 0
M  V30 3149 H 293.991 3.87896 -3.89637 0
M  V30 3150 H 295.216 4.84385 -4.75971 0
M  V30 3151 H 293.162 5.93339 -2.79794 0
M  V30 3152 H 293.079 6.05644 -4.52472 0
M  V30 3153 H 294.347 6.87912 -3.66603 0
M  V30 3154 N 298.576 1.31904 0.862503 0
M  V30 3155 C 299.824 1.21776 1.61292 0
M  V30 3156 C 300.145 -0.222413 1.93727 0
M  V30 3157 O 299.415 -1.1451 1.58947 0
M  V30 3158 H 297.995 0.447717 0.597962 0
M  V30 3159 H 300.657 1.65326 1.03215 0
M  V30 3160 H 299.753 1.7948 2.5533 0
M  V30 3161 N 300.054 -1.07777 1.14986 0
M  V30 3162 C 300.987 -2.14228 0.786243 0
M  V30 3163 C 301.965 -1.60888 -0.235347 0
M  V30 3164 O 303.149 -1.88099 -0.122909 0
M  V30 3165 C 300.276 -3.38281 0.168433 0
M  V30 3166 C 299.322 -4.10387 1.16123 0
M  V30 3167 S 300.155 -4.62371 2.70135 0
M  V30 3168 C 301.311 -5.89704 2.09762 0
M  V30 3169 H 301.544 -2.44741 1.68787 0
M  V30 3170 H 299.077 -1.19984 0.971756 0
M  V30 3171 H 301.035 -4.10098 -0.181588 0
M  V30 3172 H 299.696 -3.05953 -0.710725 0
M  V30 3173 H 298.889 -4.99431 0.677086 0
M  V30 3174 H 298.491 -3.44513 1.45556 0
M  V30 3175 H 300.783 -6.61648 1.45701 0
M  V30 3176 H 301.726 -6.42824 2.96955 0
M  V30 3177 H 302.134 -5.4302 1.54239 0
M  V30 3178 N 301.532 -0.945985 -1.26051 0
M  V30 3179 C 302.778 -0.597002 -1.93814 0
M  V30 3180 C 303.111 0.862484 -1.73997 0
M  V30 3181 O 302.386 1.61769 -1.07986 0
M  V30 3182 C 302.669 -0.945937 -3.47454 0
M  V30 3183 C 302.522 -2.46052 -3.76535 0
M  V30 3184 C 303.841 -0.464785 -4.37639 0
M  V30 3185 H 300.96 -0.218366 -0.703907 0
M  V30 3186 H 303.602 -1.18107 -1.48831 0
M  V30 3187 H 301.752 -0.448902 -3.85898 0
M  V30 3188 H 303.424 -3.03065 -3.47778 0
M  V30 3189 H 301.667 -2.90194 -3.22444 0
M  V30 3190 H 302.338 -2.65517 -4.83947 0
M  V30 3191 H 304.814 -0.891016 -4.06448 0
M  V30 3192 H 303.69 -0.737712 -5.4392 0
M  V30 3193 H 303.951 0.635274 -4.37512 0
M  V30 3194 N 303.011 1.40521 -0.713556 0
M  V30 3195 C 303.974 2.29098 -0.0684347 0
M  V30 3196 C 304.974 1.45268 0.689472 0
M  V30 3197 O 306.164 1.66205 0.521677 0
M  V30 3198 C 303.296 3.28446 0.913024 0
M  V30 3199 H 304.489 2.87645 -0.84855 0
M  V30 3200 H 302.042 1.48809 -0.47809 0
M  V30 3201 H 302.777 2.74913 1.72027 0
M  V30 3202 H 302.562 3.90327 0.372472 0
M  V30 3203 H 304.052 3.94777 1.36165 0
M  V30 3204 N 304.489 0.459591 1.5075 0
M  V30 3205 C 305.452 -0.329093 2.26825 0
M  V30 3206 C 306.452 -0.930481 1.31144 0
M  V30 3207 O 307.642 -0.801453 1.54669 0
M  V30 3208 C 304.774 -1.46768 3.07688 0
M  V30 3209 H 305.967 0.337924 2.9799 0
M  V30 3210 H 303.52 0.213336 1.54837 0
M  V30 3211 H 304.255 -2.17009 2.40993 0
M  V30 3212 H 304.04 -1.04238 3.77991 0
M  V30 3213 H 305.53 -2.02433 3.65254 0
M  V30 3214 N 305.967 -1.56429 0.191757 0
M  V30 3215 C 307.213 -1.98541 -0.441943 0
M  V30 3216 C 307.568 -1.07646 -1.59468 0
M  V30 3217 O 306.861 -0.120191 -1.91223 0
M  V30 3218 C 307.055 -3.44449 -0.953384 0
M  V30 3219 C 306.884 -4.49456 0.148262 0
M  V30 3220 C 305.654 -5.01668 0.604781 0
M  V30 3221 C 307.852 -5.05336 0.95602 0
M  V30 3222 N 305.834 -5.90334 1.6846 0
M  V30 3223 C 307.205 -5.9064 1.88531 0
M  V30 3224 C 309.26 -4.87779 0.998811 0
M  V30 3225 C 307.963 -6.60264 2.85383 0
M  V30 3226 C 309.989 -5.58139 1.95537 0
M  V30 3227 C 309.351 -6.43187 2.8721 0
M  V30 3228 H 305.45 -0.771247 -0.129236 0
M  V30 3229 H 308.034 -1.92426 0.296682 0
M  V30 3230 H 306.205 -3.5107 -1.66146 0
M  V30 3231 H 307.937 -3.73533 -1.55741 0
M  V30 3232 H 304.692 -4.73183 0.198736 0
M  V30 3233 H 305.116 -6.39371 2.22561 0
M  V30 3234 H 309.758 -4.21705 0.304048 0
M  V30 3235 H 307.476 -7.25538 3.55837 0
M  V30 3236 H 311.062 -5.46532 1.99484 0
M  V30 3237 H 309.942 -6.96674 3.60022 0
M  V30 3238 N 307.445 0.0818655 -1.57387 0
M  V30 3239 C 308.67 0.799946 -1.91352 0
M  V30 3240 C 309.095 1.70833 -0.787258 0
M  V30 3241 O 308.453 1.79419 0.26048 0
M  V30 3242 C 308.501 1.57812 -3.24234 0
M  V30 3243 O 307.605 2.68806 -3.12757 0
M  V30 3244 H 306.946 0.21891 -0.626877 0
M  V30 3245 H 309.476 0.0531256 -2.04531 0
M  V30 3246 H 309.486 1.95952 -3.57864 0
M  V30 3247 H 308.161 0.911548 -4.05788 0
M  V30 3248 H 306.738 2.33597 -2.90666 0
M  V30 3249 N 308.923 1.53595 0.353017 0
M  V30 3250 C 309.855 1.77219 1.45348 0
M  V30 3251 C 310.868 0.65324 1.49119 0
M  V30 3252 O 312.057 0.929775 1.52373 0
M  V30 3253 C 309.157 1.84841 2.84055 0
M  V30 3254 C 308.33 3.14649 3.03833 0
M  V30 3255 C 307.389 3.13351 4.22727 0
M  V30 3256 O 306.415 3.87107 4.17297 0
M  V30 3257 N 307.617 2.35052 5.30783 0
M  V30 3258 H 310.382 2.72178 1.25457 0
M  V30 3259 H 307.943 1.52528 0.542833 0
M  V30 3260 H 309.935 1.81435 3.61751 0
M  V30 3261 H 308.505 0.971114 2.97133 0
M  V30 3262 H 307.725 3.31256 2.13689 0
M  V30 3263 H 309.013 4.00411 3.13925 0
M  V30 3264 H 308.411 1.74663 5.38061 0
M  V30 3265 H 306.968 2.37453 6.07009 0
M  V30 3266 N 310.401 -0.613514 1.45168 0
M  V30 3267 C 311.817 -0.933629 1.29443 0
M  V30 3268 C 312.017 -2.00028 0.243101 0
M  V30 3269 O 311.073 -2.49848 -0.364992 0
M  V30 3270 C 312.386 -1.38018 2.67155 0
M  V30 3271 C 313.934 -1.49471 2.75004 0
M  V30 3272 C 314.409 -1.97503 4.13227 0
M  V30 3273 N 315.9 -2.04746 4.15491 0
M  V30 3274 C 316.635 -2.43121 5.19307 0
M  V30 3275 N 316.131 -2.80506 6.33473 0
M  V30 3276 N 317.924 -2.43408 5.06664 0
M  V30 3277 H 310.075 0.0916097 2.12202 0
M  V30 3278 H 312.338 -0.0216655 0.947752 0
M  V30 3279 H 312.044 -0.670625 3.45247 0
M  V30 3280 H 311.918 -2.34784 2.95222 0
M  V30 3281 H 314.305 -2.19519 1.9722 0
M  V30 3282 H 314.386 -0.510342 2.50657 0
M  V30 3283 H 314.03 -1.28045 4.91495 0
M  V30 3284 H 313.96 -2.96843 4.34962 0
M  V30 3285 H 316.451 -1.78468 3.33103 0
M  V30 3286 H 316.764 -3.08652 7.08487 0
M  V30 3287 H 315.109 -2.78216 6.36884 0
M  V30 3288 H 318.3 -2.13604 4.16523 0
M  V30 3289 H 318.473 -2.72989 5.87691 0
M  V30 3290 N 311.879 -1.3236 -0.855495 0
M  V30 3291 C 312.809 -1.23833 -1.97958 0
M  V30 3292 C 313.79 -0.122361 -1.69659 0
M  V30 3293 O 314.975 -0.30939 -1.9172 0
M  V30 3294 C 312.105 -0.959772 -3.33775 0
M  V30 3295 C 311.059 -2.03689 -3.76424 0
M  V30 3296 C 310.385 -1.61075 -5.09862 0
M  V30 3297 C 311.685 -3.4518 -3.9198 0
M  V30 3298 H 313.379 -2.1788 -2.0535 0
M  V30 3299 H 310.925 -1.04891 -0.986605 0
M  V30 3300 H 312.878 -0.886678 -4.11966 0
M  V30 3301 H 311.602 0.0163404 -3.26596 0
M  V30 3302 H 310.261 -2.10012 -3.00484 0
M  V30 3303 H 309.909 -0.622107 -4.99138 0
M  V30 3304 H 309.609 -2.33143 -5.39368 0
M  V30 3305 H 311.133 -1.55201 -5.90546 0
M  V30 3306 H 312.547 -3.4145 -4.60526 0
M  V30 3307 H 310.944 -4.1559 -4.32903 0
M  V30 3308 H 312.014 -3.84903 -2.94919 0
M  V30 3309 N 313.357 1.07166 -1.15556 0
M  V30 3310 C 314.289 2.14341 -0.811815 0
M  V30 3311 C 315.302 1.61835 0.177015 0
M  V30 3312 O 316.491 1.78439 -0.0464996 0
M  V30 3313 C 313.591 3.38387 -0.186481 0
M  V30 3314 C 312.764 4.20238 -1.21321 0
M  V30 3315 C 311.823 5.2266 -0.609302 0
M  V30 3316 O 310.849 5.54719 -1.27576 0
M  V30 3317 N 312.051 5.77306 0.608099 0
M  V30 3318 H 314.816 2.44431 -1.73417 0
M  V30 3319 H 312.377 1.23089 -1.0517 0
M  V30 3320 H 314.369 4.04044 0.230339 0
M  V30 3321 H 312.939 3.05994 0.639249 0
M  V30 3322 H 312.159 3.50369 -1.80652 0
M  V30 3323 H 313.447 4.71736 -1.90638 0
M  V30 3324 H 312.845 5.53513 1.1679 0
M  V30 3325 H 311.402 6.44583 0.96725 0
M  V30 3326 N 314.835 0.952656 1.25548 0
M  V30 3327 C 316.063 0.623496 1.97282 0
M  V30 3328 C 316.478 -0.803987 1.70826 0
M  V30 3329 O 315.835 -1.53755 0.983147 0
M  V30 3330 C 315.886 0.870209 3.5087 0
M  V30 3331 O 315.607 2.24156 3.76412 0
M  V30 3332 C 317.108 0.553164 4.39835 0
M  V30 3333 H 314.328 0.233931 0.628902 0
M  V30 3334 H 316.872 1.27649 1.59768 0
M  V30 3335 H 315.027 0.263652 3.86502 0
M  V30 3336 H 315.441 2.31021 4.70882 0
M  V30 3337 H 316.915 0.776342 5.46513 0
M  V30 3338 H 317.392 -0.512215 4.36203 0
M  V30 3339 H 317.998 1.13896 4.09766 0
M  V30 3340 N 316.313 -1.40141 0.720998 0
M  V30 3341 C 317.562 -2.0002 0.259804 0
M  V30 3342 C 317.875 -1.57839 -1.15526 0
M  V30 3343 O 319.081 -2.10455 -1.71525 0
M  V30 3344 C 317.537 -3.57516 0.413566 0
M  V30 3345 C 317.145 -4.08667 1.83562 0
M  V30 3346 C 318.889 -4.24498 0.0134387 0
M  V30 3347 C 316.796 -5.58686 1.93968 0
M  V30 3348 H 315.726 -0.748195 0.0933806 0
M  V30 3349 H 318.377 -1.60313 0.892866 0
M  V30 3350 H 316.759 -3.9495 -0.288169 0
M  V30 3351 H 317.933 -3.82598 2.56817 0
M  V30 3352 H 316.248 -3.543 2.1877 0
M  V30 3353 H 318.845 -5.34654 0.0703954 0
M  V30 3354 H 319.188 -4.03375 -1.02927 0
M  V30 3355 H 319.721 -3.92188 0.665815 0
M  V30 3356 H 316.46 -5.8467 2.96379 0
M  V30 3357 H 315.98 -5.86602 1.25131 0
M  V30 3358 H 317.659 -6.23875 1.71431 0
M  V30 3359 N 317.792 -0.46758 -1.50504 0
M  V30 3360 C 319.038 0.0808869 -2.03239 0
M  V30 3361 C 319.393 1.37721 -1.34353 0
M  V30 3362 O 318.686 1.86016 -0.459194 0
M  V30 3363 C 318.88 0.323995 -3.55928 0
M  V30 3364 C 318.709 -0.947215 -4.39611 0
M  V30 3365 C 317.479 -1.48951 -4.82848 0
M  V30 3366 C 319.677 -1.84166 -4.80195 0
M  V30 3367 N 317.659 -2.71011 -5.50842 0
M  V30 3368 C 319.03 -2.90815 -5.47564 0
M  V30 3369 C 321.085 -1.85246 -4.62156 0
M  V30 3370 C 319.788 -3.98529 -5.98805 0
M  V30 3371 C 321.814 -2.91914 -5.14335 0
M  V30 3372 C 321.176 -3.97282 -5.81676 0
M  V30 3373 H 317.275 -0.0103394 -0.781932 0
M  V30 3374 H 319.859 -0.635003 -1.84054 0
M  V30 3375 H 318.03 1.00892 -3.75067 0
M  V30 3376 H 319.762 0.866492 -3.95315 0
M  V30 3377 H 316.517 -1.03918 -4.62058 0
M  V30 3378 H 316.941 -3.32988 -5.89447 0
M  V30 3379 H 321.583 -1.05103 -4.09528 0
M  V30 3380 H 319.301 -4.79491 -6.50472 0
M  V30 3381 H 322.887 -2.93729 -5.0221 0
M  V30 3382 H 321.767 -4.78462 -6.21324 0
M  V30 3383 N 319.27 1.56325 -0.20005 0
M  V30 3384 C 320.217 2.1932 0.718833 0
M  V30 3385 C 321.187 1.14198 1.20615 0
M  V30 3386 O 322.372 1.42469 1.26914 0
M  V30 3387 C 319.512 2.86041 1.93066 0
M  V30 3388 C 318.625 4.05702 1.48425 0
M  V30 3389 C 317.76 4.60266 2.65196 0
M  V30 3390 C 316.799 5.72273 2.17185 0
M  V30 3391 N 315.936 6.21221 3.27152 0
M  V30 3392 H 320.776 2.97486 0.17489 0
M  V30 3393 H 318.313 1.46911 0.0745794 0
M  V30 3394 H 320.271 3.22897 2.64184 0
M  V30 3395 H 318.901 2.1043 2.44783 0
M  V30 3396 H 317.953 3.74475 0.668755 0
M  V30 3397 H 319.265 4.86699 1.09204 0
M  V30 3398 H 318.419 4.99453 3.4443 0
M  V30 3399 H 317.158 3.78386 3.07693 0
M  V30 3400 H 316.163 5.3261 1.36407 0
M  V30 3401 H 317.388 6.55974 1.75713 0
M  V30 3402 H 315.334 5.42263 3.69171 0
M  V30 3403 H 315.251 6.97284 2.92116 0
M  V30 3404 H 316.519 6.65063 4.06585 0
M  V30 3405 N 320.748 -0.0735177 1.57428 0
M  V30 3406 C 321.658 -1.10547 2.06922 0
M  V30 3407 C 322.674 -1.42506 0.998402 0
M  V30 3408 O 323.85 -1.52717 1.31299 0
M  V30 3409 C 320.915 -2.40019 2.50184 0
M  V30 3410 C 319.976 -2.15046 3.71556 0
M  V30 3411 C 319.209 -3.38345 4.12745 0
M  V30 3412 O 319.432 -4.47399 3.53822 0
M  V30 3413 O 318.366 -3.2666 5.05546 0
M  V30 3414 H 322.192 -0.715013 2.95163 0
M  V30 3415 H 319.777 -0.287531 1.46607 0
M  V30 3416 H 321.659 -3.16218 2.78539 0
M  V30 3417 H 320.334 -2.78447 1.65072 0
M  V30 3418 H 319.241 -1.36558 3.48285 0
M  V30 3419 H 320.574 -1.81499 4.57514 0
M  V30 3420 N 322.226 -1.5378 -0.344866 0
M  V30 3421 C 323.136 -1.84667 -1.4469 0
M  V30 3422 C 324.152 -0.736704 -1.57635 0
M  V30 3423 O 325.328 -1.02888 -1.73136 0
M  V30 3424 C 322.393 -2.04869 -2.79696 0
M  V30 3425 C 321.454 -3.28731 -2.76106 0
M  V30 3426 C 320.687 -3.4796 -4.04673 0
M  V30 3427 O 320.91 -2.71052 -5.01883 0
M  V30 3428 O 319.844 -4.41383 -4.09224 0
M  V30 3429 H 323.67 -2.78334 -1.21506 0
M  V30 3430 H 321.255 -1.39418 -0.536921 0
M  V30 3431 H 323.137 -2.19609 -3.59652 0
M  V30 3432 H 321.812 -1.14391 -3.02814 0
M  V30 3433 H 320.719 -3.19396 -1.94774 0
M  V30 3434 H 322.052 -4.19198 -2.57941 0
M  V30 3435 N 323.704 0.605807 -1.45491 0
M  V30 3436 C 325.115 1.18777 -1.44045 0
M  V30 3437 C 325.466 1.95471 -0.169001 0
M  V30 3438 O 324.591 2.0374 0.729324 0
M  V30 3439 C 325.186 2.16064 -2.60963 0
M  V30 3440 C 323.745 2.69633 -2.62631 0
M  V30 3441 C 322.892 1.45072 -2.36325 0
M  V30 3442 H 325.843 0.395017 -1.53705 0
M  V30 3443 H 325.864 2.9913 -2.35163 0
M  V30 3444 H 325.376 1.60217 -3.53486 0
M  V30 3445 H 323.477 3.29414 -1.74119 0
M  V30 3446 H 323.59 3.13944 -3.61906 0
M  V30 3447 H 321.954 1.74089 -1.85917 0
M  V30 3448 H 322.737 0.910899 -3.30995 0
M  V30 3449 N 325.182 1.32811 0.848464 0
M  V30 3450 C 326.431 1.23075 1.59798 0
M  V30 3451 C 326.744 -0.204419 1.94529 0
M  V30 3452 O 327.95 -0.423701 2.68173 0
M  V30 3453 C 326.406 2.15594 2.88179 0
M  V30 3454 C 326.014 3.64228 2.60849 0
M  V30 3455 C 327.758 2.14709 3.66197 0
M  V30 3456 C 325.665 4.48689 3.85269 0
M  V30 3457 H 324.595 0.457091 0.599653 0
M  V30 3458 H 327.246 1.57813 0.936342 0
M  V30 3459 H 325.628 1.73778 3.55833 0
M  V30 3460 H 326.802 4.14424 2.01467 0
M  V30 3461 H 325.117 3.67306 1.96151 0
M  V30 3462 H 327.714 2.75046 4.58534 0
M  V30 3463 H 328.057 1.13966 4.00397 0
M  V30 3464 H 328.59 2.54837 3.05455 0
M  V30 3465 H 325.329 5.5027 3.56207 0
M  V30 3466 H 324.849 4.03241 4.44024 0
M  V30 3467 H 326.528 4.62006 4.52946 0
M  V30 3468 N 326.66 -1.06551 1.16123 0
M  V30 3469 C 328.071 -1.60768 0.949232 0
M  V30 3470 C 328.422 -1.89523 -0.507508 0
M  V30 3471 O 327.547 -1.66671 -1.38021 0
M  V30 3472 C 328.142 -2.92086 1.71671 0
M  V30 3473 C 326.701 -3.43015 1.54977 0
M  V30 3474 C 325.848 -2.16947 1.72711 0
M  V30 3475 H 328.799 -0.895354 1.31031 0
M  V30 3476 H 328.82 -3.6138 1.19099 0
M  V30 3477 H 328.332 -2.71127 2.7769 0
M  V30 3478 H 326.433 -3.69039 0.513873 0
M  V30 3479 H 326.546 -4.18516 2.33198 0
M  V30 3480 H 324.91 -2.27041 1.15431 0
M  V30 3481 H 325.693 -1.98473 2.80113 0
M  V30 3482 N 328.138 -0.959301 -1.25041 0
M  V30 3483 C 329.378 -0.624343 -1.94631 0
M  V30 3484 C 329.742 0.82403 -1.73418 0
M  V30 3485 O 330.943 1.26881 -2.3697 0
M  V30 3486 C 329.214 -0.978805 -3.43736 0
M  V30 3487 S 330.773 -0.757127 -4.32219 0
M  V30 3488 H 327.591 -0.229327 -0.673001 0
M  V30 3489 H 330.193 -1.23447 -1.51595 0
M  V30 3490 H 328.897 -2.02997 -3.56679 0
M  V30 3491 H 328.428 -0.359117 -3.91757 0
M  V30 3492 H 330.443 0.369759 -4.9482 0
M  V30 3493 N 329.616 1.39756 -0.72842 0
M  V30 3494 C 330.844 2.04948 -0.283528 0
M  V30 3495 C 331.259 1.54908 1.0793 0
M  V30 3496 O 330.616 0.711135 1.68075 0
M  V30 3497 C 330.667 3.60498 -0.268957 0
M  V30 3498 O 330.388 4.08695 -1.57798 0
M  V30 3499 C 331.889 4.4288 0.192912 0
M  V30 3500 H 329.109 0.659243 -0.125056 0
M  V30 3501 H 331.653 1.78927 -0.990226 0
M  V30 3502 H 329.808 3.85444 0.388801 0
M  V30 3503 H 330.222 5.02977 -1.48709 0
M  V30 3504 H 331.696 5.51791 0.151952 0
M  V30 3505 H 332.173 4.21418 1.23708 0
M  V30 3506 H 332.779 4.23069 -0.435039 0
M  V30 3507 N 331.094 0.475555 1.50254 0
M  V30 3508 C 332.057 -0.305016 2.27161 0
M  V30 3509 C 333.057 -0.916519 1.32123 0
M  V30 3510 O 334.247 -0.785003 1.5551 0
M  V30 3511 C 331.379 -1.43496 3.09227 0
M  V30 3512 H 332.572 0.369511 2.97615 0
M  V30 3513 H 330.125 0.229747 1.54602 0
M  V30 3514 H 330.86 -2.14441 2.43281 0
M  V30 3515 H 330.645 -1.00223 3.79075 0
M  V30 3516 H 332.135 -1.98548 3.67381 0
M  V30 3517 N 332.573 -1.56217 0.208337 0
M  V30 3518 C 333.523 -2.16324 -0.720281 0
M  V30 3519 C 334.507 -1.10775 -1.16695 0
M  V30 3520 O 335.699 -1.36801 -1.12314 0
M  V30 3521 C 332.828 -2.83644 -1.93393 0
M  V30 3522 C 331.914 -3.96401 -1.50755 0
M  V30 3523 N 332.305 -4.99546 -0.792937 0
M  V30 3524 C 330.603 -4.08246 -1.79585 0
M  V30 3525 C 331.304 -5.78828 -0.577364 0
M  V30 3526 N 330.28 -5.31723 -1.1301 0
M  V30 3527 H 334.082 -2.93432 -0.165725 0
M  V30 3528 H 331.596 -1.62397 0.00906463 0
M  V30 3529 H 333.593 -3.25107 -2.60981 0
M  V30 3530 H 332.253 -2.08027 -2.49308 0
M  V30 3531 H 333.264 -5.15967 -0.447004 0
M  V30 3532 H 329.941 -3.4377 -2.36915 0
M  V30 3533 H 331.331 -6.71899 -0.00952956 0
M  V30 3534 N 334.051 0.0651679 -1.57465 0
M  V30 3535 C 335.297 0.758912 -1.88712 0
M  V30 3536 C 335.652 1.7485 -0.802819 0
M  V30 3537 O 334.945 1.90632 0.192359 0
M  V30 3538 C 335.139 1.50081 -3.24362 0
M  V30 3539 C 334.968 0.584579 -4.45884 0
M  V30 3540 C 333.738 0.219039 -5.04825 0
M  V30 3541 C 335.936 -0.121559 -5.14156 0
M  V30 3542 N 333.918 -0.702222 -6.09871 0
M  V30 3543 C 335.289 -0.899767 -6.13436 0
M  V30 3544 C 337.344 -0.192331 -4.97528 0
M  V30 3545 C 336.047 -1.74218 -6.97883 0
M  V30 3546 C 338.073 -1.02174 -5.82507 0
M  V30 3547 C 337.435 -1.78798 -6.8133 0
M  V30 3548 H 333.534 0.25293 -0.739967 0
M  V30 3549 H 336.118 0.0201744 -1.9469 0
M  V30 3550 H 334.289 2.21023 -3.1938 0
M  V30 3551 H 336.021 2.14409 -3.43236 0
M  V30 3552 H 332.776 0.57336 -4.70117 0
M  V30 3553 H 333.2 -1.15629 -6.67052 0
M  V30 3554 H 337.842 0.385741 -4.21037 0
M  V30 3555 H 335.56 -2.3312 -7.73745 0
M  V30 3556 H 339.146 -1.07957 -5.71696 0
M  V30 3557 H 338.026 -2.41942 -7.45945 0
M  V30 3558 N 335.529 1.53961 0.336706 0
M  V30 3559 C 336.479 1.7881 1.41461 0
M  V30 3560 C 337.463 0.643561 1.47469 0
M  V30 3561 O 338.655 0.903166 1.52223 0
M  V30 3562 C 335.784 2.00722 2.78506 0
M  V30 3563 C 334.87 3.2126 2.76862 0
M  V30 3564 N 335.261 4.42588 2.44845 0
M  V30 3565 C 333.559 3.22568 3.08004 0
M  V30 3566 C 334.26 5.2447 2.51607 0
M  V30 3567 N 333.236 4.61344 2.87511 0
M  V30 3568 H 337.038 2.70205 1.15615 0
M  V30 3569 H 334.552 1.52978 0.545112 0
M  V30 3570 H 336.549 2.1666 3.5618 0
M  V30 3571 H 335.209 1.10573 3.05293 0
M  V30 3572 H 336.22 4.69819 2.17922 0
M  V30 3573 H 332.897 2.42409 3.39918 0
M  V30 3574 H 334.287 6.31324 2.29955 0
M  V30 3575 N 337.007 -0.598083 1.45811 0
M  V30 3576 C 338.254 -1.35681 1.50323 0
M  V30 3577 C 338.582 -1.9393 0.148739 0
M  V30 3578 O 337.837 -1.76094 -0.853787 0
M  V30 3579 C 338.136 -2.51669 2.53766 0
M  V30 3580 C 337.802 -2.11508 3.98215 0
M  V30 3581 C 336.464 -2.0027 4.37545 0
M  V30 3582 C 338.816 -1.80308 4.89018 0
M  V30 3583 C 336.144 -1.56067 5.65562 0
M  V30 3584 C 338.496 -1.37589 6.17456 0
M  V30 3585 C 337.16 -1.24916 6.55708 0
M  V30 3586 H 336.43 -0.496492 0.550069 0
M  V30 3587 H 339.077 -0.675052 1.79207 0
M  V30 3588 H 337.382 -3.25225 2.18486 0
M  V30 3589 H 339.079 -3.09895 2.54492 0
M  V30 3590 H 335.669 -2.21185 3.67117 0
M  V30 3591 H 339.853 -1.87884 4.59362 0
M  V30 3592 H 335.109 -1.44886 5.93985 0
M  V30 3593 H 339.283 -1.12495 6.87254 0
M  V30 3594 H 336.91 -0.904386 7.54801 0
M  V30 3595 N 338.485 -1.33259 -0.841409 0
M  V30 3596 C 339.733 -1.24326 -1.59334 0
M  V30 3597 C 340.054 0.191564 -1.94057 0
M  V30 3598 O 339.324 1.11967 -1.60749 0
M  V30 3599 H 337.904 -0.457174 -0.590763 0
M  V30 3600 H 340.566 -1.66947 -1.00571 0
M  V30 3601 H 339.662 -1.8352 -2.52442 0
M  V30 3602 N 339.963 1.05934 -1.16686 0
M  V30 3603 C 340.895 2.13468 -0.834503 0
M  V30 3604 C 341.908 1.62013 0.15984 0
M  V30 3605 O 343.097 1.7838 -0.0654228 0
M  V30 3606 C 340.197 3.3817 -0.222361 0
M  V30 3607 C 339.37 4.18928 -1.25771 0
M  V30 3608 C 338.429 5.21985 -0.664703 0
M  V30 3609 O 337.455 5.53334 -1.33453 0
M  V30 3610 N 338.657 5.77919 0.546834 0
M  V30 3611 H 341.422 2.42578 -1.75999 0
M  V30 3612 H 338.983 1.21967 -1.06469 0
M  V30 3613 H 340.975 4.04266 0.187472 0
M  V30 3614 H 339.545 3.06655 0.606758 0
M  V30 3615 H 338.765 3.48433 -1.84358 0
M  V30 3616 H 340.053 4.69687 -1.95631 0
M  V30 3617 H 339.451 5.54721 1.10912 0
M  V30 3618 H 338.008 6.45573 0.898829 0
M  V30 3619 O 341.48 1.09547 1.18667 0
M  V30 3620 H 342.171 0.792406 1.7675 0
M  V30 END ATOM
M  V30 BEGIN BOND
M  V30 END BOND
M  V30 END CTAB
M  END
$$$$
