drugbank_target|P36956 Sterol regulatory element-binding protein 1 (DB03756; DB09539; DB11133; DB13961)
 OpenBabel12092121023D

  0  0  0     0  0            999 V3000
M  V30 BEGIN CTAB
M  V30 COUNTS 17197 17408 0 0 0
M  V30 BEGIN ATOM
M  V30 1 H -0.908 1.98254 -0.117106 0
M  V30 2 N 0 1.576 0 0
M  V30 3 C 0.933 2.03868 1.02534 0
M  V30 4 C 1.911 0.928543 1.3348 0
M  V30 5 O 3.095 1.19667 1.45644 0
M  V30 6 C 0.222 2.43627 2.35294 0
M  V30 7 C -0.732 3.65373 2.2001 0
M  V30 8 S 0.101 5.13292 1.52614 0
M  V30 9 C 1.257 5.56322 2.86805 0
M  V30 10 H 1.49 2.90518 0.631377 0
M  V30 11 H -0.977 1.52953 0.210867 0
M  V30 12 H 0.981 2.67203 3.11629 0
M  V30 13 H -0.358 1.57376 2.7183 0
M  V30 14 H -1.165 3.90944 3.18086 0
M  V30 15 H -1.563 3.418 1.51819 0
M  V30 16 H 0.729 5.58782 3.83104 0
M  V30 17 H 1.672 6.56266 2.65933 0
M  V30 18 H 2.08 4.83886 2.90714 0
M  V30 19 N 1.4781 -0.272755 1.55222 0
M  V30 20 C 2.7551 -1.02562 1.66555 0
M  V30 21 C 3.1351 -2.04282 0.532189 0
M  V30 22 O 2.4831 -2.23662 -0.467717 0
M  V30 23 C 2.6931 -1.6822 3.05782 0
M  V30 24 C 4.0411 -2.19373 3.63539 0
M  V30 25 O 5.0651 -1.78206 3.08417 0
M  V30 26 O 3.9241 -2.94883 4.60115 0
M  V30 27 H 1.0181 -0.475755 0.676451 0
M  V30 28 H 3.5641 -0.268593 1.67561 0
M  V30 29 H 2.3361 -0.945112 3.79715 0
M  V30 30 H 1.9591 -2.50609 3.08676 0
M  V30 31 N 2.9562 -1.48159 -0.537278 0
M  V30 32 C 3.8662 -1.64807 -1.6696 0
M  V30 33 C 4.8822 -0.530651 -1.65711 0
M  V30 34 O 6.0582 -0.800784 -1.84796 0
M  V30 35 C 3.1232 -1.67708 -3.03438 0
M  V30 36 C 2.1842 -2.91025 -3.156 0
M  V30 37 C 1.4172 -2.93778 -4.45567 0
M  V30 38 O 1.6402 -2.05153 -5.3223 0
M  V30 39 O 0.5742 -3.85868 -4.61941 0
M  V30 40 H 4.4002 -2.6066 -1.55853 0
M  V30 41 H 1.9852 -1.31475 -0.709549 0
M  V30 42 H 3.8672 -1.7218 -3.84619 0
M  V30 43 H 2.5422 -0.750278 -3.14885 0
M  V30 44 H 1.4492 -2.92089 -2.33741 0
M  V30 45 H 2.7822 -3.83065 -3.09066 0
M  V30 46 N 4.4343 0.785586 -1.36625 0
M  V30 47 C 5.8453 1.36101 -1.27803 0
M  V30 48 C 6.1963 1.96035 0.0804875 0
M  V30 49 O 5.3213 1.92834 0.982042 0
M  V30 50 C 5.9163 2.47442 -2.31426 0
M  V30 51 C 4.4753 3.00789 -2.26281 0
M  V30 52 C 3.6223 1.73896 -2.15999 0
M  V30 53 H 6.5733 0.586928 -1.47448 0
M  V30 54 H 6.5943 3.2656 -1.95291 0
M  V30 55 H 6.1063 2.03791 -3.30289 0
M  V30 56 H 4.2073 3.48851 -1.30896 0
M  V30 57 H 4.3203 3.57343 -3.19128 0
M  V30 58 H 2.6843 1.9628 -1.62316 0
M  V30 59 H 3.4673 1.32368 -3.16755 0
M  V30 60 N 5.9124 1.20967 1.01018 0
M  V30 61 C 7.3234 1.02319 1.56165 0
M  V30 62 C 7.6744 -0.418546 1.91684 0
M  V30 63 O 6.7994 -1.30096 1.72928 0
M  V30 64 C 7.3944 1.85109 2.8376 0
M  V30 65 C 5.9534 1.70809 3.35412 0
M  V30 66 C 5.1004 1.82643 2.08655 0
M  V30 67 H 8.0514 1.35065 0.833255 0
M  V30 68 H 8.0724 1.35827 3.55431 0
M  V30 69 H 7.5844 2.90035 2.57878 0
M  V30 70 H 5.6854 0.685464 3.66241 0
M  V30 71 H 5.7984 2.52467 4.07182 0
M  V30 72 H 4.1624 1.25896 2.21409 0
M  V30 73 H 4.9454 2.89066 1.85191 0
M  V30 74 N 7.3905 -1.2043 1.01659 0
M  V30 75 C 8.6375 -1.89797 0.705917 0
M  V30 76 C 8.9655 -1.78848 -0.764439 0
M  V30 77 O 8.2205 -1.16694 -1.57102 0
M  V30 78 C 8.5195 -3.40464 1.08714 0
M  V30 79 C 8.1855 -3.71614 2.5537 0
M  V30 80 C 6.8475 -3.79826 2.95441 0
M  V30 81 C 9.1995 -3.85915 3.50313 0
M  V30 82 C 6.5275 -3.99797 4.29394 0
M  V30 83 C 8.8795 -4.07396 4.83954 0
M  V30 84 C 7.5435 -4.13837 5.23732 0
M  V30 85 H 6.8135 -0.694518 0.258313 0
M  V30 86 H 9.4605 -1.42691 1.27717 0
M  V30 87 H 7.7655 -3.89385 0.434309 0
M  V30 88 H 9.4625 -3.92433 0.824461 0
M  V30 89 H 6.0525 -3.65822 2.23321 0
M  V30 90 H 10.2365 -3.78926 3.20513 0
M  V30 91 H 5.4925 -4.03018 4.59768 0
M  V30 92 H 9.6665 -4.17404 5.57447 0
M  V30 93 H 7.2935 -4.29064 6.27541 0
M  V30 94 N 8.8686 -0.792821 -1.36206 0
M  V30 95 C 10.0936 -0.377701 -2.03932 0
M  V30 96 C 10.5186 0.998947 -1.59382 0
M  V30 97 O 9.8766 1.64421 -0.763903 0
M  V30 98 C 9.9246 -0.453635 -3.57735 0
M  V30 99 O 9.0286 0.538151 -4.08874 0
M  V30 100 H 8.3696 -0.159855 -0.644471 0
M  V30 101 H 10.8996 -1.07488 -1.7409 0
M  V30 102 H 10.9096 -0.318464 -4.06755 0
M  V30 103 H 9.5846 -1.45784 -3.89512 0
M  V30 104 H 8.1616 0.364359 -3.71116 0
M  V30 105 N 10.3467 1.47872 -0.545128 0
M  V30 106 C 11.2567 2.33633 0.212746 0
M  V30 107 C 12.2727 1.4744 0.923983 0
M  V30 108 O 13.4487 1.80393 0.895572 0
M  V30 109 C 10.5137 3.23884 1.23693 0
M  V30 110 C 9.5747 4.25961 0.534417 0
M  V30 111 C 8.8077 5.11899 1.5098 0
M  V30 112 O 9.0307 5.00077 2.7437 0
M  V30 113 O 7.9647 5.92831 1.0409 0
M  V30 114 H 11.7907 2.99714 -0.490416 0
M  V30 115 H 9.3757 1.46235 -0.305871 0
M  V30 116 H 11.2577 3.79666 1.82843 0
M  V30 117 H 9.9327 2.60446 1.92222 0
M  V30 118 H 8.8397 3.73972 -0.0979679 0
M  V30 119 H 10.1727 4.92079 -0.109213 0
M  V30 120 N 11.8248 0.280983 1.55075 0
M  V30 121 C 12.7878 -0.590896 2.21452 0
M  V30 122 C 13.7878 -1.07682 1.19421 0
M  V30 123 O 14.9778 -0.97605 1.44288 0
M  V30 124 C 12.1098 -1.81587 2.88511 0
M  V30 125 H 13.3028 -0.0112554 2.99898 0
M  V30 126 H 10.8558 0.0316438 1.56268 0
M  V30 127 H 11.5908 -2.43587 2.14093 0
M  V30 128 H 11.3758 -1.4753 3.63287 0
M  V30 129 H 12.8658 -2.43575 3.39206 0
M  V30 130 N 13.3029 -1.57598 0.00835791 0
M  V30 131 C 14.2659 -2.07884 -0.965242 0
M  V30 132 C 15.2659 -0.989825 -1.26725 0
M  V30 133 O 16.4559 -1.25218 -1.21104 0
M  V30 134 C 13.5879 -2.52731 -2.28779 0
M  V30 135 H 14.7809 -2.95178 -0.530112 0
M  V30 136 H 12.3339 -1.54458 -0.239283 0
M  V30 137 H 13.0689 -1.68705 -2.76964 0
M  V30 138 H 12.8539 -3.32272 -2.08177 0
M  V30 139 H 14.3439 -2.91933 -2.98605 0
M  V30 140 N 14.781 0.264519 -1.55364 0
M  V30 141 C 15.711 1.33121 -1.91836 0
M  V30 142 C 16.692 1.51101 -0.781192 0
M  V30 143 O 17.877 1.64003 -1.04003 0
M  V30 144 C 15.007 2.68921 -2.19769 0
M  V30 145 C 13.961 2.65661 -3.35571 0
M  V30 146 C 13.287 4.05093 -3.49004 0
M  V30 147 C 14.587 2.24187 -4.71739 0
M  V30 148 H 16.281 1.02844 -2.81182 0
M  V30 149 H 13.827 0.493286 -1.35287 0
M  V30 150 H 15.78 3.43663 -2.43872 0
M  V30 151 H 14.504 3.00799 -1.27231 0
M  V30 152 H 13.163 1.93377 -3.1145 0
M  V30 153 H 12.811 4.34206 -2.53917 0
M  V30 154 H 12.511 4.03804 -4.26868 0
M  V30 155 H 14.035 4.81561 -3.75408 0
M  V30 156 H 15.449 2.88654 -4.9533 0
M  V30 157 H 13.846 2.34044 -5.52579 0
M  V30 158 H 14.916 1.19327 -4.69988 0
M  V30 159 N 16.2591 1.48442 0.529413 0
M  V30 160 C 17.1691 1.6569 1.66084 0
M  V30 161 C 18.1851 0.539432 1.65427 0
M  V30 162 O 19.3611 0.810572 1.84368 0
M  V30 163 C 16.4261 1.69315 3.02545 0
M  V30 164 C 15.4871 2.92694 3.14052 0
M  V30 165 C 14.7201 2.96137 4.44003 0
M  V30 166 O 14.9431 2.07973 5.31134 0
M  V30 167 O 13.8771 3.88312 4.59888 0
M  V30 168 H 17.7031 2.61483 1.54469 0
M  V30 169 H 15.2881 1.3185 0.702567 0
M  V30 170 H 17.1701 1.74217 3.83701 0
M  V30 171 H 15.8451 0.766966 3.14483 0
M  V30 172 H 14.7521 2.93324 2.32189 0
M  V30 173 H 16.0851 3.84699 3.0703 0
M  V30 174 N 17.7372 -0.778329 1.37039 0
M  V30 175 C 18.6692 -1.90034 1.2814 0
M  V30 176 C 19.6822 -1.61585 0.198558 0
M  V30 177 O 20.8712 -1.72625 0.454175 0
M  V30 178 C 17.9712 -3.25108 0.956968 0
M  V30 179 C 17.1442 -3.81253 2.14394 0
M  V30 180 C 16.2032 -4.94789 1.79082 0
M  V30 181 O 15.2292 -5.10721 2.51301 0
M  V30 182 N 16.4312 -5.75878 0.731043 0
M  V30 183 H 19.1962 -1.98186 2.24816 0
M  V30 184 H 16.7572 -0.957129 1.30578 0
M  V30 185 H 18.7492 -3.9857 0.701701 0
M  V30 186 H 17.3192 -3.125 0.0789812 0
M  V30 187 H 16.5392 -2.99647 2.56135 0
M  V30 188 H 17.8272 -4.15495 2.93668 0
M  V30 189 H 17.2252 -5.65547 0.131618 0
M  V30 190 H 15.7822 -6.49596 0.535622 0
M  V30 191 N 19.2153 -1.21501 -1.00376 0
M  V30 192 C 20.1783 -0.976927 -2.07337 0
M  V30 193 C 21.1783 0.0525322 -1.60714 0
M  V30 194 O 22.3683 -0.184869 -1.73216 0
M  V30 195 C 19.5003 -0.473423 -3.37597 0
M  V30 196 H 20.6933 -1.92587 -2.29892 0
M  V30 197 H 18.2463 -1.03217 -1.17371 0
M  V30 198 H 18.9813 0.480379 -3.20722 0
M  V30 199 H 18.7663 -1.216 -3.72768 0
M  V30 200 H 20.2563 -0.32675 -4.1632 0
M  V30 201 N 20.6934 1.19889 -1.02296 0
M  V30 202 C 21.6234 2.25141 -0.619174 0
M  V30 203 C 22.6044 1.66051 0.368915 0
M  V30 204 O 23.7894 1.92546 0.252941 0
M  V30 205 C 20.9194 3.4728 0.0368783 0
M  V30 206 C 19.8734 4.19005 -0.872865 0
M  V30 207 C 19.1994 5.34637 -0.0822402 0
M  V30 208 C 20.4994 4.74452 -2.18387 0
M  V30 209 H 22.1934 2.59171 -1.49903 0
M  V30 210 H 19.7394 1.24579 -0.722222 0
M  V30 211 H 21.6924 4.20098 0.330958 0
M  V30 212 H 20.4164 3.12433 0.95149 0
M  V30 213 H 19.0754 3.48061 -1.15105 0
M  V30 214 H 18.7234 4.96034 0.83422 0
M  V30 215 H 18.4234 5.83557 -0.688149 0
M  V30 216 H 19.9474 6.10255 0.205238 0
M  V30 217 H 21.3614 5.39055 -1.95172 0
M  V30 218 H 19.7584 5.33834 -2.74119 0
M  V30 219 H 20.8284 3.92844 -2.84257 0
M  V30 220 N 22.1715 0.800033 1.35784 0
M  V30 221 C 23.4195 0.376597 1.9856 0
M  V30 222 C 23.7405 -1.05812 1.63795 0
M  V30 223 O 23.0105 -1.73103 0.917171 0
M  V30 224 H 21.5905 0.136261 0.734467 0
M  V30 225 H 24.2525 1.02442 1.65806 0
M  V30 226 H 23.3485 0.477002 3.08433 0
M  V30 227 N 23.6496 -1.47581 0.552962 0
M  V30 228 C 24.5596 -2.33743 -0.200353 0
M  V30 229 C 25.5756 -1.47928 -0.916151 0
M  V30 230 O 26.7516 -1.80865 -0.885993 0
M  V30 231 C 23.8166 -3.24536 -1.21973 0
M  V30 232 C 22.8776 -4.26238 -0.511819 0
M  V30 233 C 22.1106 -5.12693 -1.48263 0
M  V30 234 O 22.3336 -5.01525 -2.71714 0
M  V30 235 O 21.2676 -5.93375 -1.00945 0
M  V30 236 H 25.0936 -2.9945 0.506304 0
M  V30 237 H 22.6786 -1.46071 0.313622 0
M  V30 238 H 24.5606 -3.80631 -1.80827 0
M  V30 239 H 23.2356 -2.61462 -1.90839 0
M  V30 240 H 22.1426 -3.73914 0.117799 0
M  V30 241 H 23.4756 -4.92014 0.135308 0
M  V30 242 N 25.1277 -0.289203 -1.54924 0
M  V30 243 C 26.5387 0.205791 -1.85562 0
M  V30 244 C 26.8897 1.54351 -1.2112 0
M  V30 245 O 26.0147 2.10435 -0.504601 0
M  V30 246 C 26.6097 0.380177 -3.3666 0
M  V30 247 C 25.1687 0.819395 -3.67373 0
M  V30 248 C 24.3157 -0.079159 -2.77187 0
M  V30 249 H 27.2667 -0.510577 -1.50262 0
M  V30 250 H 27.2877 1.21659 -3.60526 0
M  V30 251 H 26.7997 -0.593589 -3.83534 0
M  V30 252 H 24.9007 1.80413 -3.26009 0
M  V30 253 H 25.0137 0.646957 -4.74712 0
M  V30 254 H 23.3777 0.439565 -2.50878 0
M  V30 255 H 24.1607 -1.04906 -3.26878 0
M  V30 256 N 26.6058 1.57591 -0.0167156 0
M  V30 257 C 27.8458 1.93145 0.668902 0
M  V30 258 C 28.2098 0.892406 1.7 0
M  V30 259 O 29.4108 1.13373 2.43721 0
M  V30 260 C 27.6818 3.33678 1.28039 0
M  V30 261 S 29.2408 3.91142 1.9888 0
M  V30 262 H 26.0588 0.67593 0.220545 0
M  V30 263 H 28.6608 1.95347 -0.0774105 0
M  V30 264 H 27.3648 4.07126 0.517339 0
M  V30 265 H 26.8958 3.3489 2.06427 0
M  V30 266 H 28.9108 3.73571 3.26587 0
M  V30 267 N 28.0839 -0.256276 1.55502 0
M  V30 268 C 29.3609 -1.00789 1.67633 0
M  V30 269 C 29.7409 -2.03706 0.553826 0
M  V30 270 O 29.0889 -2.24145 -0.443969 0
M  V30 271 C 29.2989 -1.64968 3.07549 0
M  V30 272 C 30.6469 -2.15505 3.65845 0
M  V30 273 O 31.6709 -1.74925 3.1029 0
M  V30 274 O 30.5299 -2.89986 4.63217 0
M  V30 275 H 27.6239 -0.468553 0.681459 0
M  V30 276 H 30.1699 -0.250806 1.67836 0
M  V30 277 H 28.9419 -0.904785 3.80696 0
M  V30 278 H 28.5649 -2.47321 3.11317 0
M  V30 279 N 29.562 -1.4872 -0.521534 0
M  V30 280 C 30.492 -1.66771 -1.63431 0
M  V30 281 C 31.473 -0.516499 -1.62069 0
M  V30 282 O 32.658 -0.750013 -1.79132 0
M  V30 283 C 29.788 -1.71515 -3.01993 0
M  V30 284 C 28.742 -2.86222 -3.18216 0
M  V30 285 C 28.068 -2.76061 -4.57924 0
M  V30 286 C 29.368 -4.27419 -3.00184 0
M  V30 287 H 31.062 -2.59932 -1.48579 0
M  V30 288 H 28.608 -1.25089 -0.713358 0
M  V30 289 H 30.561 -1.82731 -3.7972 0
M  V30 290 H 29.285 -0.749393 -3.17886 0
M  V30 291 H 27.944 -2.74575 -2.42908 0
M  V30 292 H 27.592 -1.77437 -4.70665 0
M  V30 293 H 27.292 -3.53037 -4.69722 0
M  V30 294 H 28.816 -2.89256 -5.37739 0
M  V30 295 H 30.23 -4.39855 -3.67697 0
M  V30 296 H 28.627 -5.05458 -3.2347 0
M  V30 297 H 29.697 -4.43293 -1.96518 0
M  V30 298 N 31.0401 0.771051 -1.3745 0
M  V30 299 C 32.3171 1.519 -1.23231 0
M  V30 300 C 32.6971 2.10383 0.173809 0
M  V30 301 O 32.0451 1.95583 1.18151 0
M  V30 302 C 32.2551 2.59933 -2.32886 0
M  V30 303 C 33.6031 3.27316 -2.70461 0
M  V30 304 O 34.6271 2.70228 -2.32068 0
M  V30 305 O 33.4861 4.30531 -3.36608 0
M  V30 306 H 30.5801 0.672803 -0.480901 0
M  V30 307 H 33.1261 0.807957 -1.49232 0
M  V30 308 H 31.8981 2.14842 -3.27045 0
M  V30 309 H 31.5211 3.38637 -2.08353 0
M  V30 310 N 32.5182 1.22032 0.997298 0
M  V30 311 C 33.4812 0.987909 2.06816 0
M  V30 312 C 34.4812 -0.0440084 1.6074 0
M  V30 313 O 35.6712 0.194053 1.73116 0
M  V30 314 C 32.8032 0.49132 3.37341 0
M  V30 315 H 33.9962 1.93803 2.28868 0
M  V30 316 H 31.5492 1.03838 1.16822 0
M  V30 317 H 32.2842 -0.463364 3.20973 0
M  V30 318 H 32.0692 1.23575 3.72118 0
M  V30 319 H 33.5592 0.348824 4.16141 0
M  V30 320 N 33.9963 -1.19345 1.0293 0
M  V30 321 C 34.9593 -2.20793 0.615069 0
M  V30 322 C 35.9593 -1.57553 -0.321533 0
M  V30 323 O 37.1493 -1.73862 -0.108483 0
M  V30 324 C 34.2813 -3.40754 -0.0999222 0
M  V30 325 H 35.4743 -2.58955 1.51269 0
M  V30 326 H 33.0273 -1.3303 0.820534 0
M  V30 327 H 33.7623 -3.0811 -1.01187 0
M  V30 328 H 33.5473 -3.87889 0.57309 0
M  V30 329 H 35.0373 -4.15898 -0.376645 0
M  V30 330 N 35.4744 -0.807222 -1.35358 0
M  V30 331 C 36.4044 -0.232509 -2.3234 0
M  V30 332 C 37.3854 0.642386 -1.57504 0
M  V30 333 O 38.5704 0.572526 -1.85569 0
M  V30 334 C 35.7004 0.619238 -3.41735 0
M  V30 335 C 34.6544 -0.157215 -4.27711 0
M  V30 336 C 33.9804 0.816273 -5.28433 0
M  V30 337 C 35.2804 -1.35656 -5.04376 0
M  V30 338 H 36.9744 -1.04276 -2.80654 0
M  V30 339 H 34.5204 -0.50288 -1.34934 0
M  V30 340 H 36.4734 1.03137 -4.08584 0
M  V30 341 H 35.1974 1.46239 -2.92031 0
M  V30 342 H 33.8564 -0.550525 -3.62443 0
M  V30 343 H 33.5044 1.65494 -4.74996 0
M  V30 344 H 33.2044 0.301067 -5.86828 0
M  V30 345 H 34.7284 1.22659 -5.98153 0
M  V30 346 H 36.1424 -1.01927 -5.64166 0
M  V30 347 H 34.5394 -1.8063 -5.7227 0
M  V30 348 H 35.6094 -2.14288 -4.34981 0
M  V30 349 N 36.9525 1.47285 -0.560781 0
M  V30 350 C 37.8825 2.32857 0.173105 0
M  V30 351 C 38.8635 1.44009 0.905281 0
M  V30 352 O 40.0485 1.7286 0.885046 0
M  V30 353 C 37.1785 3.25861 1.20133 0
M  V30 354 C 36.1325 4.23978 0.585388 0
M  V30 355 C 35.4585 5.06332 1.7185 0
M  V30 356 C 36.7585 5.20242 -0.463178 0
M  V30 357 H 38.4525 2.94466 -0.541307 0
M  V30 358 H 35.9985 1.41601 -0.261764 0
M  V30 359 H 37.9515 3.84569 1.72293 0
M  V30 360 H 36.6755 2.62315 1.94573 0
M  V30 361 H 35.3345 3.66501 0.085054 0
M  V30 362 H 34.9825 4.39186 2.45203 0
M  V30 363 H 34.6825 5.72762 1.31213 0
M  V30 364 H 36.2065 5.67899 2.24329 0
M  V30 365 H 37.6205 5.73293 -0.027502 0
M  V30 366 H 36.0175 5.94896 -0.788627 0
M  V30 367 H 37.0875 4.65504 -1.35773 0
M  V30 368 N 38.4306 0.297415 1.54768 0
M  V30 369 C 39.6586 -0.315623 2.04478 0
M  V30 370 C 40.0736 -1.47792 1.17486 0
M  V30 371 O 39.4306 -1.81404 0.19971 0
M  V30 372 C 39.4816 -0.7753 3.53088 0
M  V30 373 O 39.2026 0.340732 4.36773 0
M  V30 374 C 40.7036 -1.45386 4.18781 0
M  V30 375 H 37.9236 -0.0690887 0.667434 0
M  V30 376 H 40.4676 0.436003 1.99798 0
M  V30 377 H 38.6226 -1.47696 3.58141 0
M  V30 378 H 39.0366 -0.0165035 5.24497 0
M  V30 379 H 40.5106 -1.72669 5.24299 0
M  V30 380 H 40.9876 -2.39275 3.68299 0
M  V30 381 H 41.5936 -0.795475 4.17795 0
M  V30 382 N 39.9087 -1.5758 0.0250728 0
M  V30 383 C 41.1857 -1.82917 -0.692873 0
M  V30 384 C 41.5657 -0.908137 -1.90568 0
M  V30 385 O 40.9137 0.0372298 -2.2847 0
M  V30 386 C 41.1237 -3.32034 -1.07492 0
M  V30 387 C 42.4717 -3.98406 -1.46826 0
M  V30 388 O 43.4957 -3.36505 -1.16801 0
M  V30 389 O 42.3547 -5.07497 -2.02754 0
M  V30 390 H 39.4487 -0.754079 -0.33955 0
M  V30 391 H 41.9947 -1.69619 0.0524456 0
M  V30 392 H 40.7667 -3.90728 -0.211552 0
M  V30 393 H 40.3897 -3.50424 -1.87854 0
M  V30 394 N 41.3868 0.248026 -1.55636 0
M  V30 395 C 42.6358 0.974134 -1.76617 0
M  V30 396 C 42.9488 1.86528 -0.588796 0
M  V30 397 O 44.1548 2.62805 -0.681594 0
M  V30 398 C 42.6108 1.78213 -3.12679 0
M  V30 399 C 42.2188 0.93843 -4.38061 0
M  V30 400 C 43.9628 2.50104 -3.42999 0
M  V30 401 C 41.8698 1.74225 -5.65155 0
M  V30 402 H 40.7998 0.36745 -0.658405 0
M  V30 403 H 43.4508 0.22884 -1.82067 0
M  V30 404 H 41.8328 2.56933 -3.01333 0
M  V30 405 H 43.0068 0.193635 -4.60393 0
M  V30 406 H 41.3218 0.332905 -4.15067 0
M  V30 407 H 43.9188 3.10694 -4.3517 0
M  V30 408 H 44.2618 3.21662 -2.64271 0
M  V30 409 H 44.7948 1.78395 -3.55556 0
M  V30 410 H 41.5338 1.07043 -6.46701 0
M  V30 411 H 41.0538 2.46235 -5.46926 0
M  V30 412 H 42.7328 2.30967 -6.0437 0
M  V30 413 N 42.8649 1.48995 0.513639 0
M  V30 414 C 43.7749 1.67443 1.64317 0
M  V30 415 C 44.7909 0.556947 1.64846 0
M  V30 416 O 45.9669 0.830082 1.83498 0
M  V30 417 C 43.0319 1.72515 3.00732 0
M  V30 418 C 42.0929 2.96009 3.1093 0
M  V30 419 C 41.3259 3.00829 4.40837 0
M  V30 420 O 41.5489 2.13594 5.28898 0
M  V30 421 O 40.4829 3.93168 4.55744 0
M  V30 422 H 44.3089 2.63106 1.51687 0
M  V30 423 H 41.8939 1.32588 0.688543 0
M  V30 424 H 43.7759 1.78277 3.81831 0
M  V30 425 H 42.4509 0.800278 3.13651 0
M  V30 426 H 41.3579 2.9577 2.29065 0
M  V30 427 H 42.6909 3.87934 3.02933 0
M  V30 428 N 44.343 -0.763751 1.37857 0
M  V30 429 C 45.62 -1.51244 1.24035 0
M  V30 430 C 46 -2.10472 -0.162649 0
M  V30 431 O 45.348 -1.96206 -1.17112 0
M  V30 432 C 45.558 -2.58694 2.34261 0
M  V30 433 C 46.906 -3.25878 2.72193 0
M  V30 434 O 47.93 -2.68993 2.33497 0
M  V30 435 O 46.789 -4.2874 3.38887 0
M  V30 436 H 43.883 -0.670243 0.484462 0
M  V30 437 H 46.429 -0.800031 1.49658 0
M  V30 438 H 45.201 -2.13105 3.2818 0
M  V30 439 H 44.824 -3.37527 2.10146 0
M  V30 440 N 45.8211 -1.22559 -0.990812 0
M  V30 441 C 46.7541 -0.940773 -2.07905 0
M  V30 442 C 47.7321 0.117082 -1.62178 0
M  V30 443 O 48.9161 -0.0149506 -1.88494 0
M  V30 444 C 46.0431 -0.415321 -3.36144 0
M  V30 445 C 45.0891 -1.45818 -4.00799 0
M  V30 446 S 45.9221 -3.03219 -4.41382 0
M  V30 447 C 47.0781 -2.52317 -5.72789 0
M  V30 448 H 47.3111 -1.8623 -2.31745 0
M  V30 449 H 44.8441 -1.05688 -1.12558 0
M  V30 450 H 46.8021 -0.118747 -4.10328 0
M  V30 451 H 45.4631 0.485121 -3.10331 0
M  V30 452 H 44.6561 -1.04044 -4.93144 0
M  V30 453 H 44.2581 -1.70356 -3.32949 0
M  V30 454 H 46.5501 -1.93688 -6.49224 0
M  V30 455 H 47.4931 -3.43161 -6.19392 0
M  V30 456 H 47.9011 -1.93529 -5.30289 0
M  V30 457 N 47.2992 1.18797 -1.03562 0
M  V30 458 C 48.2292 2.24472 -0.643019 0
M  V30 459 C 49.2102 1.66433 0.351283 0
M  V30 460 O 50.3952 1.92803 0.232505 0
M  V30 461 C 47.5252 3.473 4.24935e-05 0
M  V30 462 C 46.4792 4.18055 -0.917257 0
M  V30 463 C 45.8052 5.34519 -0.138941 0
M  V30 464 C 47.1052 4.72109 -2.23407 0
M  V30 465 H 48.7992 2.57566 -1.52643 0
M  V30 466 H 46.3452 1.23806 -0.735394 0
M  V30 467 H 48.2982 4.20426 0.286383 0
M  V30 468 H 47.0222 3.13424 0.918299 0
M  V30 469 H 45.6812 3.46821 -1.1879 0
M  V30 470 H 45.3292 4.96891 0.781562 0
M  V30 471 H 45.0292 5.82794 -0.750005 0
M  V30 472 H 46.5532 6.10438 0.1405 0
M  V30 473 H 47.9672 5.36955 -2.00879 0
M  V30 474 H 46.3642 5.30897 -2.79765 0
M  V30 475 H 47.4342 3.89807 -2.88407 0
M  V30 476 N 48.7773 0.814389 1.34928 0
M  V30 477 C 49.7093 0.187834 2.28429 0
M  V30 478 C 50.7223 -0.617374 1.5064 0
M  V30 479 O 51.9113 -0.448454 1.72775 0
M  V30 480 C 49.0113 -0.755962 3.30361 0
M  V30 481 C 48.1843 0.00456686 4.374 0
M  V30 482 C 47.2433 -0.858876 5.19143 0
M  V30 483 O 46.2693 -0.306968 5.68372 0
M  V30 484 N 47.4713 -2.17988 5.38016 0
M  V30 485 H 50.2363 0.991105 2.82838 0
M  V30 486 H 47.7973 0.670561 1.4736 0
M  V30 487 H 49.7893 -1.338 3.81942 0
M  V30 488 H 48.3593 -1.46001 2.7641 0
M  V30 489 H 47.5793 0.767865 3.86649 0
M  V30 490 H 48.8673 0.528422 5.06049 0
M  V30 491 H 48.2653 -2.65212 4.99679 0
M  V30 492 H 46.8223 -2.71098 5.92747 0
M  V30 493 N 50.2554 -1.46986 0.568584 0
M  V30 494 C 51.1854 -2.32946 -0.160753 0
M  V30 495 C 52.1664 -1.44487 -0.897631 0
M  V30 496 O 53.3514 -1.73327 -0.875867 0
M  V30 497 C 50.4814 -3.26494 -1.18403 0
M  V30 498 C 49.4354 -4.24282 -0.562895 0
M  V30 499 C 48.7614 -5.07236 -1.69163 0
M  V30 500 C 50.0614 -5.19989 0.490761 0
M  V30 501 H 51.7554 -2.94175 0.556916 0
M  V30 502 H 49.3014 -1.4146 0.26927 0
M  V30 503 H 51.2544 -3.85477 -1.70251 0
M  V30 504 H 49.9784 -2.63343 -1.93179 0
M  V30 505 H 48.6374 -3.66541 -0.0656164 0
M  V30 506 H 48.2854 -4.4048 -2.42871 0
M  V30 507 H 47.9854 -5.7345 -1.28174 0
M  V30 508 H 49.5094 -5.6908 -2.21314 0
M  V30 509 H 50.9234 -5.73271 0.0579047 0
M  V30 510 H 49.3204 -5.94469 0.820165 0
M  V30 511 H 50.3904 -4.64777 1.3824 0
M  V30 512 N 51.7335 -0.305618 -1.54608 0
M  V30 513 C 52.9825 0.303098 -1.9941 0
M  V30 514 C 53.2955 1.54648 -1.19764 0
M  V30 515 O 54.5015 2.23007 -1.54855 0
M  V30 516 C 52.9575 0.590588 -3.55021 0
M  V30 517 C 52.5655 -0.634719 -4.43481 0
M  V30 518 C 54.3095 1.16025 -4.08336 0
M  V30 519 C 52.2165 -0.320126 -5.90533 0
M  V30 520 H 51.1465 0.117031 -0.744862 0
M  V30 521 H 53.7975 -0.415045 -1.78745 0
M  V30 522 H 52.1795 1.36845 -3.71604 0
M  V30 523 H 53.3535 -1.41079 -4.38672 0
M  V30 524 H 51.6685 -1.12333 -4.00962 0
M  V30 525 H 54.2655 1.40994 -5.15776 0
M  V30 526 H 54.6085 2.10397 -3.5922 0
M  V30 527 H 55.1415 0.443985 -3.95315 0
M  V30 528 H 51.8805 -1.23254 -6.43808 0
M  V30 529 H 51.4005 0.418579 -5.98338 0
M  V30 530 H 53.0795 0.0766241 -6.46955 0
M  V30 531 N 53.2116 1.57565 -0.0334293 0
M  V30 532 C 54.1596 2.1164 0.96496 0
M  V30 533 C 55.1536 1.04398 1.33407 0
M  V30 534 O 56.3596 1.22828 1.3158 0
M  V30 535 H 52.7346 0.676222 0.32898 0
M  V30 536 H 54.7056 2.94455 0.483614 0
M  V30 537 C 53.4546 2.66207 2.23672 0
M  V30 538 H 52.7776 3.48378 1.96145 0
M  V30 539 H 54.2176 3.07685 2.9173 0
M  V30 540 C 52.6766 1.59151 2.96939 0
M  V30 541 O 53.2066 0.993858 3.89211 0
M  V30 542 N 51.4126 1.31093 2.59351 0
M  V30 543 H 50.9596 1.7988 1.84393 0
M  V30 544 H 50.9176 0.596889 3.08682 0
M  V30 545 N 54.6897 -0.239769 1.55765 0
M  V30 546 C 55.6377 -1.31668 1.91745 0
M  V30 547 C 56.6317 -1.49462 0.797338 0
M  V30 548 O 57.8377 -1.50852 0.982021 0
M  V30 549 H 54.2127 -0.441048 0.609082 0
M  V30 550 H 56.1837 -0.985923 2.81642 0
M  V30 551 C 54.9327 -2.66368 2.2348 0
M  V30 552 H 54.2557 -2.53478 3.09175 0
M  V30 553 H 55.6957 -3.40578 2.52553 0
M  V30 554 C 54.1547 -3.20002 1.05359 0
M  V30 555 O 54.6847 -4.00538 0.305261 0
M  V30 556 N 52.8907 -2.78126 0.842292 0
M  V30 557 H 52.4377 -2.12742 1.45253 0
M  V30 558 H 52.3957 -3.14354 0.053652 0
M  V30 559 N 56.1678 -1.49265 -0.50573 0
M  V30 560 C 57.0998 -1.617 -1.62437 0
M  V30 561 C 58.1128 -0.499924 -1.54934 0
M  V30 562 O 59.3018 -0.771785 -1.60953 0
M  V30 563 C 56.4018 -1.5533 -3.01207 0
M  V30 564 C 55.5748 -2.8249 -3.33943 0
M  V30 565 C 54.6338 -2.69238 -4.52103 0
M  V30 566 O 53.6598 -3.43167 -4.5412 0
M  V30 567 N 54.8618 -1.80468 -5.51735 0
M  V30 568 H 57.6268 -2.58177 -1.52199 0
M  V30 569 H 55.1878 -1.46294 -0.693511 0
M  V30 570 H 57.1798 -1.44125 -3.78167 0
M  V30 571 H 55.7498 -0.667297 -3.05395 0
M  V30 572 H 54.9698 -3.08081 -2.45926 0
M  V30 573 H 56.2578 -3.66802 -3.5261 0
M  V30 574 H 55.6558 -1.19653 -5.52901 0
M  V30 575 H 54.2128 -1.75188 -6.27816 0
M  V30 576 N 57.6459 0.756429 -1.3826 0
M  V30 577 C 58.9229 1.50584 -1.24835 0
M  V30 578 C 59.3029 2.10556 0.151485 0
M  V30 579 O 58.6509 1.96825 1.1607 0
M  V30 580 C 58.8609 2.57448 -2.3563 0
M  V30 581 C 60.2089 3.24429 -2.73917 0
M  V30 582 O 61.2329 2.67751 -2.34921 0
M  V30 583 O 60.0919 4.26937 -3.41156 0
M  V30 584 H 57.1859 0.667664 -0.48801 0
M  V30 585 H 59.7319 0.792083 -1.5008 0
M  V30 586 H 58.5039 2.11362 -3.29305 0
M  V30 587 H 58.1269 3.36408 -2.11933 0
M  V30 588 N 59.124 1.23083 0.984299 0
M  V30 589 C 60.349 1.088 1.76571 0
M  V30 590 C 60.774 -0.356657 1.84688 0
M  V30 591 O 60.132 -1.25788 1.30565 0
M  V30 592 C 60.18 1.71371 3.17277 0
M  V30 593 O 59.284 0.973213 4.00752 0
M  V30 594 H 58.625 0.381599 0.543395 0
M  V30 595 H 61.155 1.63057 1.23587 0
M  V30 596 H 61.165 1.76449 3.67872 0
M  V30 597 H 59.84 2.76493 3.10684 0
M  V30 598 H 58.417 0.999078 3.59267 0
M  V30 599 N 60.6021 -1.18246 1.0419 0
M  V30 600 C 61.8791 -1.84121 0.660208 0
M  V30 601 C 62.2591 -1.92778 -0.860221 0
M  V30 602 O 61.6071 -1.45464 -1.76217 0
M  V30 603 C 61.8171 -3.22355 1.33747 0
M  V30 604 C 63.1651 -3.98376 1.46906 0
M  V30 605 O 64.1891 -3.31799 1.29568 0
M  V30 606 O 63.0481 -5.17665 1.75171 0
M  V30 607 H 60.1421 -0.794036 0.231161 0
M  V30 608 H 62.6881 -1.25628 1.14087 0
M  V30 609 H 61.4601 -3.10964 2.37522 0
M  V30 610 H 61.0831 -3.88506 0.845515 0
M  V30 611 N 62.0802 -0.821533 -1.34494 0
M  V30 612 C 63.3272 -0.408946 -1.98328 0
M  V30 613 C 63.6552 1.02764 -1.65136 0
M  V30 614 O 62.9102 1.73026 -0.914349 0
M  V30 615 C 63.2092 -0.556512 -3.53041 0
M  V30 616 C 62.8752 -1.95861 -4.0614 0
M  V30 617 C 61.5372 -2.34217 -4.20352 0
M  V30 618 C 63.8892 -2.87523 -4.34718 0
M  V30 619 C 61.2172 -3.63572 -4.6047 0
M  V30 620 C 63.5692 -4.1634 -4.76281 0
M  V30 621 C 62.2332 -4.54675 -4.88699 0
M  V30 622 H 61.5032 -0.149644 -0.725732 0
M  V30 623 H 64.1502 -1.04521 -1.6046 0
M  V30 624 H 62.4552 0.163148 -3.9146 0
M  V30 625 H 64.1522 -0.217826 -4.00408 0
M  V30 626 H 60.7422 -1.65066 -3.95539 0
M  V30 627 H 64.9262 -2.59133 -4.23277 0
M  V30 628 H 60.1822 -3.93101 -4.68275 0
M  V30 629 H 64.3562 -4.87455 -4.97354 0
M  V30 630 H 61.9832 -5.54959 -5.19542 0
M  V30 631 N 63.5583 1.46682 -0.576371 0
M  V30 632 C 64.9693 1.86112 -0.148091 0
M  V30 633 C 65.3203 1.48073 1.2872 0
M  V30 634 O 64.4453 0.892656 1.97131 0
M  V30 635 C 65.0403 3.37786 -0.261982 0
M  V30 636 C 63.5993 3.76235 0.111384 0
M  V30 637 C 62.7463 2.70713 -0.60083 0
M  V30 638 H 65.6973 1.37927 -0.78497 0
M  V30 639 H 65.7183 3.77007 0.514364 0
M  V30 640 H 65.2303 3.6544 -1.30671 0
M  V30 641 H 63.3313 3.54198 1.15649 0
M  V30 642 H 63.4443 4.78391 -0.26052 0
M  V30 643 H 61.8083 2.54666 -0.0417783 0
M  V30 644 H 62.5913 3.01208 -1.64708 0
M  V30 645 N 65.0364 0.313813 1.54444 0
M  V30 646 C 66.2844 -0.291099 1.99993 0
M  V30 647 C 66.6054 -1.53418 1.20366 0
M  V30 648 O 65.8754 -1.93544 0.302927 0
M  V30 649 H 64.4554 -0.110552 0.738774 0
M  V30 650 H 67.1174 0.428106 1.9014 0
M  V30 651 H 66.2134 -0.554268 3.07139 0
M  V30 652 N 66.5145 -1.57545 0.0417849 0
M  V30 653 C 67.4445 -2.14009 -0.933929 0
M  V30 654 C 68.4255 -1.05938 -1.33083 0
M  V30 655 O 69.6105 -1.33833 -1.40721 0
M  V30 656 C 66.7405 -2.67747 -2.21199 0
M  V30 657 C 65.6945 -3.80718 -1.95544 0
M  V30 658 C 65.0205 -4.20935 -3.29724 0
M  V30 659 C 66.3205 -5.06258 -1.28452 0
M  V30 660 H 68.0145 -2.95788 -0.463645 0
M  V30 661 H 65.5605 -1.42285 -0.221573 0
M  V30 662 H 67.5135 -3.05886 -2.89848 0
M  V30 663 H 66.2375 -1.83147 -2.70416 0
M  V30 664 H 64.8965 -3.43037 -1.2931 0
M  V30 665 H 64.5445 -3.33298 -3.76724 0
M  V30 666 H 64.2445 -4.9707 -3.13361 0
M  V30 667 H 65.7685 -4.61666 -3.9962 0
M  V30 668 H 67.1825 -5.41903 -1.8712 0
M  V30 669 H 65.5795 -5.87475 -1.22445 0
M  V30 670 H 66.6495 -4.84207 -0.259219 0
M  V30 671 N 67.9926 0.231505 -1.5589 0
M  V30 672 C 69.2396 0.957352 -1.78441 0
M  V30 673 C 69.5676 1.84726 -0.60882 0
M  V30 674 O 68.8226 1.91416 0.40725 0
M  V30 675 C 69.1216 1.83577 -3.0665 0
M  V30 676 C 68.7876 1.09993 -4.37278 0
M  V30 677 C 67.4496 0.896629 -4.72773 0
M  V30 678 C 69.8016 0.579558 -5.17968 0
M  V30 679 C 67.1296 0.160896 -5.86479 0
M  V30 680 C 69.4816 -0.142783 -6.32439 0
M  V30 681 C 68.1456 -0.357427 -6.66542 0
M  V30 682 H 67.4156 0.35032 -0.65296 0
M  V30 683 H 70.0626 0.226259 -1.90159 0
M  V30 684 H 68.3676 2.63441 -2.90011 0
M  V30 685 H 70.0646 2.39934 -3.21298 0
M  V30 686 H 66.6546 1.26835 -4.09403 0
M  V30 687 H 70.8386 0.724125 -4.90989 0
M  V30 688 H 66.0946 -0.0157293 -6.11398 0
M  V30 689 H 70.2686 -0.553559 -6.94196 0
M  V30 690 H 67.8956 -0.929466 -7.54497 0
M  V30 691 N 69.4707 1.49531 0.497807 0
M  V30 692 C 70.7477 1.49682 1.25915 0
M  V30 693 C 71.1277 0.226339 2.09883 0
M  V30 694 O 70.4757 -0.791189 2.14365 0
M  V30 695 C 70.6857 2.77755 2.11313 0
M  V30 696 C 72.0337 3.27371 2.70395 0
M  V30 697 O 73.0577 2.78894 2.21578 0
M  V30 698 O 71.9167 4.11808 3.59272 0
M  V30 699 H 69.0107 0.599228 0.56996 0
M  V30 700 H 71.5567 1.61798 0.511816 0
M  V30 701 H 70.3287 3.61713 1.49264 0
M  V30 702 H 69.9517 2.68515 2.93233 0
M  V30 703 N 70.9488 -0.749086 1.3866 0
M  V30 704 C 72.3598 -1.32664 1.31366 0
M  V30 705 C 72.7108 -1.96179 -0.028484 0
M  V30 706 O 71.8358 -1.9537 -0.93057 0
M  V30 707 C 72.4308 -2.41219 2.37905 0
M  V30 708 C 70.9898 -2.94684 2.34176 0
M  V30 709 C 70.1368 -1.68108 2.20533 0
M  V30 710 H 73.0878 -0.547628 1.48952 0
M  V30 711 H 73.1088 -3.21268 2.0388 0
M  V30 712 H 72.6208 -1.94962 3.35576 0
M  V30 713 H 70.7218 -3.45258 1.401 0
M  V30 714 H 70.8348 -3.48757 3.2849 0
M  V30 715 H 69.1988 -1.91907 1.67463 0
M  V30 716 H 69.9818 -1.23923 3.20153 0
M  V30 717 N 72.4269 -1.23603 -0.977757 0
M  V30 718 C 73.8379 -1.06424 -1.53398 0
M  V30 719 C 74.1889 0.367578 -1.92726 0
M  V30 720 O 73.3139 1.25465 -1.76316 0
M  V30 721 C 73.9089 -1.92568 -2.78753 0
M  V30 722 C 72.4679 -1.79642 -3.30765 0
M  V30 723 C 71.6149 -1.88111 -2.03739 0
M  V30 724 H 74.5659 -1.37227 -0.797152 0
M  V30 725 H 74.5869 -1.45203 -3.51705 0
M  V30 726 H 74.0989 -2.96771 -2.50098 0
M  V30 727 H 72.1999 -0.782325 -3.64294 0
M  V30 728 H 72.3129 -2.63174 -4.00345 0
M  V30 729 H 70.6769 -1.31723 -2.17994 0
M  V30 730 H 71.4599 -2.93875 -1.77461 0
M  V30 731 N 73.905 1.17692 -1.04816 0
M  V30 732 C 75.135 1.91508 -0.775128 0
M  V30 733 C 75.543 1.76844 0.67253 0
M  V30 734 O 74.886 1.10057 1.47082 0
M  V30 735 C 74.948 3.43167 -1.0713 0
M  V30 736 C 74.612 3.81612 -2.51438 0
M  V30 737 C 75.609 3.84772 -3.49638 0
M  V30 738 C 73.294 4.12687 -2.86348 0
M  V30 739 C 75.288 4.18469 -4.80794 0
M  V30 740 C 72.975 4.46053 -4.17708 0
M  V30 741 C 73.973 4.48921 -5.14741 0
M  V30 742 O 73.661 4.81504 -6.43746 0
M  V30 743 H 73.393 0.614575 -0.281555 0
M  V30 744 H 75.947 1.50206 -1.40098 0
M  V30 745 H 74.177 3.84745 -0.388342 0
M  V30 746 H 75.866 3.98239 -0.784883 0
M  V30 747 H 76.632 3.60893 -3.24008 0
M  V30 748 H 72.511 4.09627 -2.11486 0
M  V30 749 H 76.055 4.20623 -5.56527 0
M  V30 750 H 71.952 4.69393 -4.43103 0
M  V30 751 H 72.72 4.99377 -6.4851 0
M  V30 752 N 75.3831 0.828654 1.34056 0
M  V30 753 C 76.3461 0.259927 2.27721 0
M  V30 754 C 77.3461 -0.565478 1.50529 0
M  V30 755 O 78.5361 -0.38075 1.69988 0
M  V30 756 C 75.6681 -0.634944 3.34935 0
M  V30 757 H 76.8611 1.0863 2.79534 0
M  V30 758 H 74.4141 0.600951 1.44285 0
M  V30 759 H 75.1491 -1.48416 2.88346 0
M  V30 760 H 74.9341 -0.0444999 3.92075 0
M  V30 761 H 76.4241 -1.02648 4.04788 0
M  V30 762 N 76.8612 -1.46375 0.584142 0
M  V30 763 C 78.1092 -2.01978 0.0701287 0
M  V30 764 C 78.4302 -1.4579 -1.295 0
M  V30 765 O 77.7002 -0.64314 -1.85042 0
M  V30 766 H 76.2802 -0.746648 0.0229345 0
M  V30 767 H 78.9422 -1.79461 0.760245 0
M  V30 768 H 78.0382 -3.121 0.0022064 0
M  V30 769 N 78.3393 -0.321999 -1.54275 0
M  V30 770 C 79.5643 0.285791 -2.05422 0
M  V30 771 C 79.9893 1.45124 -1.19669 0
M  V30 772 O 79.3473 1.80132 -0.205441 0
M  V30 773 C 79.3953 0.69956 -3.53749 0
M  V30 774 O 78.4993 1.8021 -3.70942 0
M  V30 775 H 77.8403 0.0518962 -0.661969 0
M  V30 776 H 80.3703 -0.469954 -1.9913 0
M  V30 777 H 80.3803 0.982649 -3.9599 0
M  V30 778 H 79.0553 -0.152864 -4.15619 0
M  V30 779 H 77.6323 1.51794 -3.40607 0
M  V30 780 N 79.8174 1.5752 -0.0501392 0
M  V30 781 C 81.0654 1.9227 0.622642 0
M  V30 782 C 81.3864 0.929083 1.71444 0
M  V30 783 O 80.6564 -0.0262186 1.95882 0
M  V30 784 H 79.2364 0.709739 0.232981 0
M  V30 785 H 81.8984 1.94628 -0.102898 0
M  V30 786 H 80.9944 2.93479 1.06191 0
M  V30 787 N 81.2955 -0.223234 1.56011 0
M  V30 788 C 82.2585 -1.26014 1.9145 0
M  V30 789 C 83.2585 -1.3989 0.792937 0
M  V30 790 O 84.4485 -1.38184 1.0607 0
M  V30 791 C 81.5805 -2.63422 2.16383 0
M  V30 792 H 82.7735 -0.95796 2.84189 0
M  V30 793 H 80.3265 -0.463576 1.49267 0
M  V30 794 H 81.0615 -2.98741 1.2619 0
M  V30 795 H 80.8465 -2.54728 2.98088 0
M  V30 796 H 82.3365 -3.38249 2.44903 0
M  V30 797 N 82.7736 -1.49793 -0.48987 0
M  V30 798 C 84.0216 -1.59525 -1.24081 0
M  V30 799 C 84.3426 -0.288953 -1.92847 0
M  V30 800 O 83.6126 0.692436 -1.83254 0
M  V30 801 H 82.1926 -0.587796 -0.460983 0
M  V30 802 H 84.8546 -1.86477 -0.566778 0
M  V30 803 H 83.9506 -2.39696 -1.99881 0
M  V30 804 N 84.2517 0.741722 -1.39055 0
M  V30 805 C 85.4997 1.49818 -1.35643 0
M  V30 806 C 85.8207 1.94938 0.0491642 0
M  V30 807 O 85.0907 1.68505 0.999141 0
M  V30 808 H 83.6707 0.555755 -0.499144 0
M  V30 809 H 86.3327 0.880957 -1.73854 0
M  V30 810 H 85.4287 2.38348 -2.01486 0
M  V30 811 N 85.7298 1.2412 0.971189 0
M  V30 812 C 86.9578 1.10575 1.74874 0
M  V30 813 C 87.3728 -0.342017 1.85676 0
M  V30 814 O 86.7298 -1.23617 1.34258 0
M  V30 815 C 86.7808 1.73579 3.171 0
M  V30 816 O 86.5018 3.12695 3.06844 0
M  V30 817 C 88.0028 1.65598 4.11208 0
M  V30 818 H 85.2228 0.386504 0.548503 0
M  V30 819 H 87.7668 1.64156 1.21955 0
M  V30 820 H 85.9218 1.24009 3.67016 0
M  V30 821 H 86.3358 3.43412 3.96445 0
M  V30 822 H 87.8098 2.1437 5.08674 0
M  V30 823 H 88.2868 0.616532 4.34851 0
M  V30 824 H 88.8928 2.14578 3.67201 0
M  V30 825 N 87.2079 -1.17134 1.05439 0
M  V30 826 C 88.4849 -1.83411 0.679699 0
M  V30 827 C 88.8649 -1.9368 -0.839726 0
M  V30 828 O 88.2129 -1.47325 -1.74664 0
M  V30 829 C 88.4229 -3.20918 1.37159 0
M  V30 830 C 89.7709 -3.96796 1.51123 0
M  V30 831 O 90.7949 -3.30406 1.3308 0
M  V30 832 O 89.6539 -5.15778 1.80651 0
M  V30 833 H 86.7479 -0.79154 0.239569 0
M  V30 834 H 89.2939 -1.24411 1.15413 0
M  V30 835 H 88.0659 -3.08428 2.40807 0
M  V30 836 H 87.6889 -3.87587 0.886674 0
M  V30 837 N 88.686 -0.835752 -1.33615 0
M  V30 838 C 90.097 -0.487099 -1.80234 0
M  V30 839 C 90.448 0.993627 -1.69179 0
M  V30 840 O 89.573 1.77403 -1.23924 0
M  V30 841 C 90.168 -0.877385 -3.27242 0
M  V30 842 C 88.727 -0.580915 -3.7189 0
M  V30 843 C 87.874 -1.0874 -2.5509 0
M  V30 844 H 90.825 -1.02474 -1.2118 0
M  V30 845 H 90.846 -0.186195 -3.80044 0
M  V30 846 H 90.358 -1.95512 -3.35256 0
M  V30 847 H 88.459 0.486881 -3.69405 0
M  V30 848 H 88.572 -1.13396 -4.65487 0
M  V30 849 H 86.936 -0.508392 -2.49575 0
M  V30 850 H 87.719 -2.17184 -2.65868 0
M  V30 851 N 90.1641 1.46063 -0.591896 0
M  V30 852 C 91.1271 2.28854 0.125973 0
M  V30 853 C 92.1271 1.38903 0.810107 0
M  V30 854 O 93.3171 1.61186 0.66066 0
M  V30 855 C 90.4491 3.19526 1.1881 0
M  V30 856 H 91.6421 2.93802 -0.601717 0
M  V30 857 H 89.1951 1.52325 -0.350254 0
M  V30 858 H 89.9301 2.59345 1.94707 0
M  V30 859 H 89.7151 3.85766 0.701936 0
M  V30 860 H 91.2051 3.81817 1.69132 0
M  V30 861 N 91.6422 0.330177 1.54103 0
M  V30 862 C 92.8672 -0.274893 2.0557 0
M  V30 863 C 93.2922 -1.44487 1.20437 0
M  V30 864 O 92.6502 -1.80021 0.214991 0
M  V30 865 C 92.6982 -0.68079 3.54115 0
M  V30 866 O 91.8022 -1.7824 3.71893 0
M  V30 867 H 91.1432 -0.0483849 0.662235 0
M  V30 868 H 93.6732 0.480508 1.98878 0
M  V30 869 H 93.6832 -0.961635 3.96505 0
M  V30 870 H 92.3582 0.174903 4.15532 0
M  V30 871 H 90.9352 -1.49985 3.41407 0
M  V30 872 N 93.1203 -1.57491 0.0584922 0
M  V30 873 C 94.5313 -1.80526 -0.476138 0
M  V30 874 C 94.8823 -0.971334 -1.70469 0
M  V30 875 O 94.0073 -0.190012 -2.15564 0
M  V30 876 C 94.6023 -3.27424 -0.870587 0
M  V30 877 C 93.1613 -3.51351 -1.35015 0
M  V30 878 C 92.3083 -2.75343 -0.32887 0
M  V30 879 H 95.2593 -1.56133 0.284312 0
M  V30 880 H 95.2803 -3.38745 -1.73299 0
M  V30 881 H 94.7923 -3.88093 0.0237627 0
M  V30 882 H 92.8933 -2.95971 -2.26345 0
M  V30 883 H 93.0063 -4.60059 -1.33726 0
M  V30 884 H 91.3703 -2.417 -0.803321 0
M  V30 885 H 92.1533 -3.38743 0.557521 0
M  V30 886 N 94.5984 0.214957 -1.56127 0
M  V30 887 C 95.8754 0.963093 -1.70247 0
M  V30 888 C 96.2554 2.02166 -0.60764 0
M  V30 889 O 95.6034 2.25244 0.384385 0
M  V30 890 C 95.8134 1.56756 -3.11815 0
M  V30 891 C 97.1614 2.0573 -3.7143 0
M  V30 892 O 98.1854 1.66637 -3.14818 0
M  V30 893 O 97.0444 2.77603 -4.70743 0
M  V30 894 H 94.1384 0.450321 -0.693643 0
M  V30 895 H 96.6844 0.206219 -1.68442 0
M  V30 896 H 95.4564 0.803533 -3.82961 0
M  V30 897 H 95.0794 2.3898 -3.17765 0
M  V30 898 N 96.0765 1.50051 0.48192 0
M  V30 899 C 97.3045 1.64237 1.25832 0
M  V30 900 C 97.7195 0.321336 1.86045 0
M  V30 901 O 97.0765 -0.695478 1.68729 0
M  V30 902 C 97.1275 2.72548 2.37487 0
M  V30 903 O 96.8485 3.99529 1.79745 0
M  V30 904 C 98.3495 2.9761 3.28547 0
M  V30 905 H 95.5695 0.55237 0.380957 0
M  V30 906 H 98.1135 1.96207 0.576467 0
M  V30 907 H 96.2685 2.43303 3.01467 0
M  V30 908 H 96.6825 4.59342 2.5319 0
M  V30 909 H 98.1565 3.77084 4.03127 0
M  V30 910 H 98.6335 2.0826 3.86684 0
M  V30 911 H 99.2395 3.28345 2.70314 0
M  V30 912 N 97.5546 -0.734337 1.39446 0
M  V30 913 C 98.7796 -1.52866 1.40167 0
M  V30 914 C 99.2046 -1.881 -0.00171513 0
M  V30 915 O 98.5626 -1.51957 -0.988879 0
M  V30 916 C 98.6106 -2.79235 2.28167 0
M  V30 917 O 97.7146 -3.75185 1.71201 0
M  V30 918 H 97.0556 -0.461618 0.477289 0
M  V30 919 H 99.5856 -0.905949 1.8345 0
M  V30 920 H 99.5956 -3.27963 2.42702 0
M  V30 921 H 98.2706 -2.52923 3.30156 0
M  V30 922 H 96.8476 -3.33958 1.65912 0
M  V30 923 N 99.0327 -1.24633 -0.964593 0
M  V30 924 C 100.258 -1.11596 -1.74818 0
M  V30 925 C 100.683 0.32723 -1.85232 0
M  V30 926 O 100.041 1.23695 -1.32549 0
M  V30 927 C 100.089 -1.76397 -3.1451 0
M  V30 928 O 99.1927 -1.03685 -3.99153 0
M  V30 929 H 98.5337 -0.390196 -0.537255 0
M  V30 930 H 101.064 -1.65002 -1.20977 0
M  V30 931 H 101.074 -1.8228 -3.65018 0
M  V30 932 H 99.7487 -2.81401 -3.06246 0
M  V30 933 H 98.3257 -1.05611 -3.57632 0
M  V30 934 N 100.511 1.16574 -1.06058 0
M  V30 935 C 101.922 1.68662 -0.800632 0
M  V30 936 C 102.273 1.84184 0.67608 0
M  V30 937 O 101.398 1.53568 1.52466 0
M  V30 938 C 101.993 3.06356 -1.44676 0
M  V30 939 C 100.552 3.55575 -1.23465 0
M  V30 940 C 99.6988 2.31616 -1.52477 0
M  V30 941 H 102.65 1.00969 -1.22438 0
M  V30 942 H 102.671 3.70636 -0.860788 0
M  V30 943 H 102.183 2.95027 -2.52152 0
M  V30 944 H 100.284 3.72167 -0.179527 0
M  V30 945 H 100.397 4.37812 -1.94571 0
M  V30 946 H 98.7608 2.36512 -0.945209 0
M  V30 947 H 99.5438 2.22887 -2.61106 0
M  V30 948 N 101.989 0.842826 1.3317 0
M  V30 949 C 103.237 0.439577 1.97262 0
M  V30 950 C 103.558 -1.00548 1.67078 0
M  V30 951 O 102.828 -1.70098 0.971779 0
M  V30 952 H 101.408 0.159558 0.72976 0
M  V30 953 H 104.07 1.07665 1.62463 0
M  V30 954 H 103.166 0.574886 3.0676 0
M  V30 955 N 103.467 -1.45747 0.599634 0
M  V30 956 C 104.692 -2.07178 0.0960198 0
M  V30 957 C 105.117 -1.44268 -1.207 0
M  V30 958 O 104.475 -0.532503 -1.73303 0
M  V30 959 C 104.523 -3.60579 -0.0385348 0
M  V30 960 O 103.627 -3.97713 -1.0908 0
M  V30 961 H 102.968 -0.660251 0.0704593 0
M  V30 962 H 105.498 -1.87124 0.827385 0
M  V30 963 H 105.508 -4.07298 -0.239304 0
M  V30 964 H 104.183 -4.05756 0.912947 0
M  V30 965 H 102.76 -3.62678 -0.867135 0
M  V30 966 N 104.945 -0.338344 -1.53925 0
M  V30 967 C 105.875 0.51328 -2.27789 0
M  V30 968 C 106.856 1.107 -1.29149 0
M  V30 969 O 108.041 1.12937 -1.57984 0
M  V30 970 C 105.171 1.66697 -3.04679 0
M  V30 971 C 104.125 1.20183 -4.1078 0
M  V30 972 C 103.451 2.44363 -4.75595 0
M  V30 973 C 104.751 0.30605 -5.21403 0
M  V30 974 H 106.445 -0.102883 -2.99223 0
M  V30 975 H 103.991 -0.0509219 -1.4391 0
M  V30 976 H 105.944 2.26915 -3.55088 0
M  V30 977 H 104.668 2.30995 -2.30887 0
M  V30 978 H 103.327 0.622499 -3.61276 0
M  V30 979 H 102.975 3.07057 -3.98403 0
M  V30 980 H 102.675 2.13925 -5.47275 0
M  V30 981 H 104.199 3.05317 -5.28786 0
M  V30 982 H 105.613 0.814929 -5.67478 0
M  V30 983 H 104.01 0.0937929 -6.00027 0
M  V30 984 H 105.08 -0.65921 -4.80398 0
M  V30 985 N 106.423 1.57458 -0.0668435 0
M  V30 986 C 107.648 1.9804 0.616027 0
M  V30 987 C 108.073 0.944771 1.62652 0
M  V30 988 O 107.431 -0.0902094 1.81075 0
M  V30 989 C 107.479 3.37665 1.26549 0
M  V30 990 O 106.583 3.36701 2.38131 0
M  V30 991 H 105.924 0.644719 0.158849 0
M  V30 992 H 108.454 2.04121 -0.139891 0
M  V30 993 H 108.464 3.7474 1.6135 0
M  V30 994 H 107.139 4.12573 0.525016 0
M  V30 995 H 105.716 3.1139 2.0516 0
M  V30 996 N 107.901 -0.206675 1.56239 0
M  V30 997 C 109.312 -0.772383 1.69974 0
M  V30 998 C 109.663 -1.84353 0.671436 0
M  V30 999 O 108.788 -2.15695 -0.174491 0
M  V30 1000 C 109.383 -1.40779 3.08167 0
M  V30 1001 C 107.942 -1.92072 3.23706 0
M  V30 1002 C 107.089 -0.786347 2.65917 0
M  V30 1003 H 110.04 0.0182223 1.5869 0
M  V30 1004 H 110.061 -2.27696 3.04852 0
M  V30 1005 H 109.573 -0.627958 3.82986 0
M  V30 1006 H 107.674 -2.7281 2.53782 0
M  V30 1007 H 107.787 -2.09046 4.31087 0
M  V30 1008 H 106.151 -1.1976 2.24788 0
M  V30 1009 H 106.934 -0.0189416 3.43295 0
M  V30 1010 N 109.379 -1.50304 -0.473955 0
M  V30 1011 C 110.79 -1.54042 -1.0549 0
M  V30 1012 C 111.141 -0.342248 -1.93192 0
M  V30 1013 O 110.266 0.545157 -2.09421 0
M  V30 1014 C 110.861 -2.79152 -1.91989 0
M  V30 1015 C 109.42 -2.8558 -2.45196 0
M  V30 1016 C 108.567 -2.48295 -1.2347 0
M  V30 1017 H 111.518 -1.5661 -0.256693 0
M  V30 1018 H 111.539 -2.60845 -2.7702 0
M  V30 1019 H 111.051 -3.66339 -1.28131 0
M  V30 1020 H 109.152 -2.02738 -3.12615 0
M  V30 1021 H 109.265 -3.88403 -2.80499 0
M  V30 1022 H 107.629 -2.00669 -1.56856 0
M  V30 1023 H 108.412 -3.37787 -0.612789 0
M  V30 1024 N 110.857 0.726932 -1.39834 0
M  V30 1025 C 112.268 1.30558 -1.3346 0
M  V30 1026 C 112.619 1.962 -0.00273003 0
M  V30 1027 O 111.744 1.96826 0.899371 0
M  V30 1028 C 112.339 2.37404 -2.41713 0
M  V30 1029 C 110.898 2.90921 -2.38835 0
M  V30 1030 C 110.045 1.64578 -2.2318 0
M  V30 1031 H 112.996 0.523862 -1.49804 0
M  V30 1032 H 113.017 3.17984 -2.08966 0
M  V30 1033 H 112.529 1.89599 -3.38635 0
M  V30 1034 H 110.63 3.42985 -1.45575 0
M  V30 1035 H 110.743 3.43487 -3.33997 0
M  V30 1036 H 109.107 1.89219 -1.70494 0
M  V30 1037 H 109.89 1.18814 -3.22084 0
M  V30 1038 N 112.336 1.25143 0.95797 0
M  V30 1039 C 113.299 1.05321 2.03569 0
M  V30 1040 C 114.299 0.007152 1.60798 0
M  V30 1041 O 115.489 0.24903 1.72411 0
M  V30 1042 C 112.621 0.598394 3.35607 0
M  V30 1043 H 113.814 2.00986 2.22586 0
M  V30 1044 H 111.367 1.07502 1.13459 0
M  V30 1045 H 112.102 -0.361014 3.22284 0
M  V30 1046 H 111.887 1.35351 3.67998 0
M  V30 1047 H 113.377 0.48104 4.1482 0
M  V30 1048 N 113.814 -1.1601 1.06675 0
M  V30 1049 C 115.042 -1.90527 0.806667 0
M  V30 1050 C 115.457 -1.77643 -0.639396 0
M  V30 1051 O 114.814 -1.12369 -1.43803 0
M  V30 1052 C 114.865 -3.41106 1.19705 0
M  V30 1053 O 114.586 -3.53608 2.58636 0
M  V30 1054 C 116.087 -4.32663 0.965266 0
M  V30 1055 H 113.307 -0.604053 0.292166 0
M  V30 1056 H 115.851 -1.47026 1.4214 0
M  V30 1057 H 114.006 -3.82296 0.626774 0
M  V30 1058 H 114.42 -4.47011 2.74375 0
M  V30 1059 H 115.894 -5.36763 1.288 0
M  V30 1060 H 116.371 -4.39089 -0.0987936 0
M  V30 1061 H 116.977 -3.97206 1.52011 0
M  V30 1062 N 115.292 -0.849877 -1.32721 0
M  V30 1063 C 116.222 -0.306308 -2.31482 0
M  V30 1064 C 117.203 0.591952 -1.59468 0
M  V30 1065 O 118.388 0.513199 -1.87296 0
M  V30 1066 C 115.518 0.510204 -3.43532 0
M  V30 1067 C 114.472 -0.293209 -4.26994 0
M  V30 1068 C 113.798 0.647743 -5.30762 0
M  V30 1069 C 115.098 -1.51634 -4.99804 0
M  V30 1070 H 116.792 -1.13153 -2.77195 0
M  V30 1071 H 114.338 -0.545553 -1.33266 0
M  V30 1072 H 116.291 0.900856 -4.11658 0
M  V30 1073 H 115.015 1.36874 -2.96535 0
M  V30 1074 H 113.674 -0.665555 -3.60508 0
M  V30 1075 H 113.322 1.50299 -4.8002 0
M  V30 1076 H 113.022 0.11422 -5.87489 0
M  V30 1077 H 114.546 1.03567 -6.01753 0
M  V30 1078 H 115.96 -1.19824 -5.60638 0
M  V30 1079 H 114.357 -1.98745 -5.66234 0
M  V30 1080 H 115.427 -2.28018 -4.27943 0
M  V30 1081 N 116.77 1.45427 -0.607355 0
M  V30 1082 C 117.995 2.07124 -0.107006 0
M  V30 1083 C 118.42 1.44906 1.19933 0
M  V30 1084 O 117.778 0.541687 1.73019 0
M  V30 1085 C 117.826 3.60595 0.0194119 0
M  V30 1086 O 116.93 3.98285 1.0697 0
M  V30 1087 H 116.271 0.659868 -0.0739597 0
M  V30 1088 H 118.801 1.86683 -0.837297 0
M  V30 1089 H 118.811 4.07419 0.2177 0
M  V30 1090 H 117.486 4.05266 -0.934453 0
M  V30 1091 H 116.063 3.63133 0.847889 0
M  V30 1092 N 118.248 0.346503 1.53744 0
M  V30 1093 C 119.473 -0.253074 2.0585 0
M  V30 1094 C 119.898 -1.43202 1.21962 0
M  V30 1095 O 119.256 -1.79783 0.234073 0
M  V30 1096 C 119.304 -0.643193 3.54817 0
M  V30 1097 O 118.408 -1.74286 3.73762 0
M  V30 1098 H 117.749 -0.0413583 0.662711 0
M  V30 1099 H 120.279 0.501574 1.98357 0
M  V30 1100 H 120.289 -0.919526 3.97503 0
M  V30 1101 H 118.964 0.218966 4.15323 0
M  V30 1102 H 117.541 -1.46356 3.42979 0
M  V30 1103 N 119.726 -1.57421 0.075193 0
M  V30 1104 C 120.951 -1.98364 -0.605515 0
M  V30 1105 C 121.376 -0.953383 -1.62149 0
M  V30 1106 O 120.734 0.0806053 -1.81121 0
M  V30 1107 C 120.782 -3.38332 -1.24756 0
M  V30 1108 O 119.886 -3.37959 -2.36342 0
M  V30 1109 H 119.227 -0.645553 -0.155428 0
M  V30 1110 H 121.757 -2.04044 0.150714 0
M  V30 1111 H 121.767 -3.75591 -1.5936 0
M  V30 1112 H 120.442 -4.12846 -0.503129 0
M  V30 1113 H 119.019 -3.12474 -2.03506 0
M  V30 1114 N 121.204 0.198386 -1.56346 0
M  V30 1115 C 122.134 1.24865 -1.9731 0
M  V30 1116 C 123.115 1.47651 -0.844576 0
M  V30 1117 O 124.3 1.59444 -1.10866 0
M  V30 1118 C 121.43 2.59358 -2.30977 0
M  V30 1119 C 120.384 2.5119 -3.46537 0
M  V30 1120 C 119.71 3.89926 -3.65871 0
M  V30 1121 C 121.01 2.03977 -4.80823 0
M  V30 1122 H 122.704 0.908252 -2.85291 0
M  V30 1123 H 120.25 0.435462 -1.37258 0
M  V30 1124 H 122.203 3.33011 -2.58228 0
M  V30 1125 H 120.927 2.95132 -1.39874 0
M  V30 1126 H 119.586 1.79993 -3.19371 0
M  V30 1127 H 119.234 4.23046 -2.72105 0
M  V30 1128 H 118.934 3.85336 -4.4361 0
M  V30 1129 H 120.458 4.65205 -3.95495 0
M  V30 1130 H 121.872 2.67386 -5.07127 0
M  V30 1131 H 120.269 2.10397 -5.62008 0
M  V30 1132 H 121.339 0.992861 -4.74626 0
M  V30 1133 N 122.682 1.50554 0.465978 0
M  V30 1134 C 123.592 1.72585 1.58907 0
M  V30 1135 C 124.608 0.60911 1.6299 0
M  V30 1136 O 125.784 0.88804 1.80765 0
M  V30 1137 C 122.849 1.81995 2.95091 0
M  V30 1138 C 121.91 3.05751 3.01355 0
M  V30 1139 C 121.143 3.14702 4.31043 0
M  V30 1140 O 121.366 2.30313 5.21835 0
M  V30 1141 O 120.3 4.07468 4.43005 0
M  V30 1142 H 124.126 2.67799 1.43239 0
M  V30 1143 H 121.711 1.34711 0.646013 0
M  V30 1144 H 123.593 1.90335 3.75966 0
M  V30 1145 H 122.268 0.899659 3.10947 0
M  V30 1146 H 121.175 3.02908 2.19539 0
M  V30 1147 H 122.508 3.97375 2.90437 0
M  V30 1148 N 124.16 -0.719506 1.40217 0
M  V30 1149 C 125.123 -1.8153 1.39927 0
M  V30 1150 C 126.123 -1.58095 0.293723 0
M  V30 1151 O 127.313 -1.65209 0.552429 0
M  V30 1152 C 124.445 -3.19561 1.18716 0
M  V30 1153 H 125.638 -1.83186 2.37451 0
M  V30 1154 H 123.191 -0.924746 1.26008 0
M  V30 1155 H 123.926 -3.23557 0.219366 0
M  V30 1156 H 123.711 -3.3797 1.98793 0
M  V30 1157 H 125.201 -3.99598 1.21291 0
M  V30 1158 N 125.638 -1.25649 -0.95132 0
M  V30 1159 C 126.885 -1.10594 -1.69633 0
M  V30 1160 C 127.213 0.352515 -1.91279 0
M  V30 1161 O 126.468 1.27601 -1.4838 0
M  V30 1162 C 126.767 -1.80909 -3.08231 0
M  V30 1163 C 126.433 -3.30825 -3.06375 0
M  V30 1164 C 125.095 -3.71722 -3.05576 0
M  V30 1165 C 127.447 -4.26589 -2.99452 0
M  V30 1166 C 124.775 -5.06788 -2.95606 0
M  V30 1167 C 127.127 -5.61683 -2.91024 0
M  V30 1168 C 125.791 -6.01904 -2.88562 0
M  V30 1169 H 125.061 -0.404691 -0.620731 0
M  V30 1170 H 127.708 -1.55964 -1.11119 0
M  V30 1171 H 126.013 -1.27979 -3.70309 0
M  V30 1172 H 127.71 -1.6671 -3.64704 0
M  V30 1173 H 124.3 -2.98287 -3.07771 0
M  V30 1174 H 128.484 -3.95982 -2.99185 0
M  V30 1175 H 123.74 -5.37126 -2.92071 0
M  V30 1176 H 127.914 -6.35578 -2.84629 0
M  V30 1177 H 125.541 -7.06521 -2.80593 0
M  V30 1178 N 127.117 1.15442 -1.07289 0
M  V30 1179 C 128.047 2.22312 -0.714107 0
M  V30 1180 C 129.028 1.67467 0.298155 0
M  V30 1181 O 130.213 1.93445 0.171048 0
M  V30 1182 C 127.343 3.47124 -0.110448 0
M  V30 1183 C 126.297 4.14926 -1.04979 0
M  V30 1184 C 125.623 5.33807 -0.308924 0
M  V30 1185 C 126.923 4.64762 -2.38314 0
M  V30 1186 H 128.617 2.5258 -1.6076 0
M  V30 1187 H 126.163 1.21404 -0.77441 0
M  V30 1188 H 128.116 4.21124 0.152482 0
M  V30 1189 H 126.84 3.16187 0.81812 0
M  V30 1190 H 125.499 3.42866 -1.29764 0
M  V30 1191 H 125.147 4.99126 0.623084 0
M  V30 1192 H 124.847 5.80113 -0.935036 0
M  V30 1193 H 126.371 6.10576 -0.0537771 0
M  V30 1194 H 127.785 5.30292 -2.1786 0
M  V30 1195 H 126.182 5.21728 -2.96514 0
M  V30 1196 H 127.252 3.80434 -3.00663 0
M  V30 1197 N 128.595 0.856903 1.32268 0
M  V30 1198 C 129.82 0.474569 2.01897 0
M  V30 1199 C 130.245 -0.921766 1.63967 0
M  V30 1200 O 129.603 -1.60589 0.84148 0
M  V30 1201 C 129.651 0.623799 3.55164 0
M  V30 1202 O 128.755 -0.342459 4.10976 0
M  V30 1203 H 128.096 0.190422 0.63611 0
M  V30 1204 H 130.626 1.15672 1.68764 0
M  V30 1205 H 130.636 0.512169 4.04773 0
M  V30 1206 H 129.311 1.64202 3.82113 0
M  V30 1207 H 127.888 -0.18688 3.72431 0
M  V30 1208 N 130.073 -1.45103 0.615059 0
M  V30 1209 C 131.321 -2.01784 0.112955 0
M  V30 1210 C 131.642 -1.48504 -1.26378 0
M  V30 1211 O 130.912 -0.682245 -1.83636 0
M  V30 1212 H 129.492 -0.745993 0.0387668 0
M  V30 1213 H 132.154 -1.77808 0.798141 0
M  V30 1214 H 131.25 -3.12025 0.0684069 0
M  V30 1215 N 131.551 -0.354651 -1.53558 0
M  V30 1216 C 132.962 0.126902 -1.86268 0
M  V30 1217 C 133.313 1.49075 -1.27558 0
M  V30 1218 O 132.438 2.08105 -0.5934 0
M  V30 1219 C 133.033 0.237046 -3.3797 0
M  V30 1220 C 131.592 0.662842 -3.70518 0
M  V30 1221 C 130.739 -0.196652 -2.76602 0
M  V30 1222 H 133.69 -0.573849 -1.47962 0
M  V30 1223 H 133.711 1.06259 -3.65362 0
M  V30 1224 H 133.223 -0.755725 -3.80671 0
M  V30 1225 H 131.324 1.66424 -3.33367 0
M  V30 1226 H 131.437 0.445034 -4.77029 0
M  V30 1227 H 129.801 0.332763 -2.52517 0
M  V30 1228 H 130.584 -1.18676 -3.22135 0
M  V30 1229 N 133.029 1.57378 -0.0835403 0
M  V30 1230 C 133.961 2.10389 0.909338 0
M  V30 1231 C 134.974 1.03858 1.25369 0
M  V30 1232 O 136.163 1.31338 1.20882 0
M  V30 1233 C 133.263 2.55908 2.2218 0
M  V30 1234 C 132.436 3.86145 2.05453 0
M  V30 1235 C 131.495 4.17633 3.20108 0
M  V30 1236 O 130.521 4.87043 2.94581 0
M  V30 1237 N 131.723 3.72113 4.45547 0
M  V30 1238 H 134.488 2.962 0.456657 0
M  V30 1239 H 132.049 1.61579 0.101877 0
M  V30 1240 H 134.041 2.74027 2.97811 0
M  V30 1241 H 132.611 1.75171 2.58909 0
M  V30 1242 H 131.831 3.7729 1.1422 0
M  V30 1243 H 133.119 4.7137 1.91541 0
M  V30 1244 H 132.517 3.16062 4.69171 0
M  V30 1245 H 131.074 3.95409 5.18165 0
M  V30 1246 N 134.507 -0.190092 1.56449 0
M  V30 1247 C 135.47 -1.21925 1.9408 0
M  V30 1248 C 136.47 -1.38176 0.822431 0
M  V30 1249 O 137.66 -1.35903 1.08977 0
M  V30 1250 C 134.792 -2.58773 2.21922 0
M  V30 1251 H 135.985 -0.897464 2.86157 0
M  V30 1252 H 133.538 -0.43181 1.50217 0
M  V30 1253 H 134.273 -2.95998 1.32499 0
M  V30 1254 H 134.058 -2.48348 3.03424 0
M  V30 1255 H 135.548 -3.32978 2.52022 0
M  V30 1256 N 135.985 -1.50799 -0.457987 0
M  V30 1257 C 136.948 -1.7005 -1.53674 0
M  V30 1258 C 137.948 -0.570881 -1.50325 0
M  V30 1259 O 139.138 -0.838126 -1.52712 0
M  V30 1260 C 136.27 -1.73788 -2.93276 0
M  V30 1261 H 137.463 -2.66306 -1.37917 0
M  V30 1262 H 135.016 -1.40477 -0.685271 0
M  V30 1263 H 135.751 -0.792717 -3.14462 0
M  V30 1264 H 135.536 -2.55864 -2.97113 0
M  V30 1265 H 137.026 -1.90591 -3.71571 0
M  V30 1266 N 137.463 0.71206 -1.40597 0
M  V30 1267 C 138.874 1.29135 -1.34837 0
M  V30 1268 C 139.225 1.96186 -0.0235395 0
M  V30 1269 O 138.35 1.97768 0.878444 0
M  V30 1270 C 138.945 2.34827 -2.44217 0
M  V30 1271 C 137.504 2.88371 -2.41907 0
M  V30 1272 C 136.651 1.62202 -2.24913 0
M  V30 1273 H 139.602 0.507944 -1.50352 0
M  V30 1274 H 139.623 3.15749 -2.12327 0
M  V30 1275 H 139.135 1.85996 -3.40627 0
M  V30 1276 H 137.236 3.41422 -1.49204 0
M  V30 1277 H 137.349 3.39925 -3.37621 0
M  V30 1278 H 135.713 1.874 -1.72492 0
M  V30 1279 H 136.496 1.15391 -3.23326 0
M  V30 1280 N 138.941 1.26152 0.944643 0
M  V30 1281 C 140.166 1.14363 1.7302 0
M  V30 1282 C 140.591 -0.29772 1.85729 0
M  V30 1283 O 139.949 -1.2157 1.34501 0
M  V30 1284 C 139.997 1.81378 3.11664 0
M  V30 1285 O 139.101 1.10022 3.97453 0
M  V30 1286 H 138.442 0.398694 0.53098 0
M  V30 1287 H 140.972 1.66906 1.18337 0
M  V30 1288 H 140.982 1.88064 3.62072 0
M  V30 1289 H 139.657 2.86237 3.0173 0
M  V30 1290 H 138.234 1.11287 3.55907 0
M  V30 1291 N 140.419 -1.14872 1.07899 0
M  V30 1292 C 141.83 -1.67367 0.827363 0
M  V30 1293 C 142.181 -1.85236 -0.646693 0
M  V30 1294 O 141.306 -1.55974 -1.50004 0
M  V30 1295 C 141.901 -3.04016 1.49532 0
M  V30 1296 C 140.46 -3.53566 1.29106 0
M  V30 1297 C 139.607 -2.29161 1.56143 0
M  V30 1298 H 142.558 -0.990083 1.24028 0
M  V30 1299 H 142.579 -3.69219 0.919643 0
M  V30 1300 H 142.091 -2.90978 2.56814 0
M  V30 1301 H 140.192 -3.71835 0.238713 0
M  V30 1302 H 140.305 -4.34661 2.01511 0
M  V30 1303 H 138.669 -2.34978 0.982717 0
M  V30 1304 H 139.452 -2.18705 2.64619 0
M  V30 1305 N 141.898 -0.863906 -1.31812 0
M  V30 1306 C 142.828 -0.330843 -2.31144 0
M  V30 1307 C 143.809 0.575005 -1.60087 0
M  V30 1308 O 144.994 0.493304 -1.8783 0
M  V30 1309 C 142.124 0.47374 -3.44054 0
M  V30 1310 C 141.078 -0.338481 -4.26659 0
M  V30 1311 C 140.404 0.591412 -5.31419 0
M  V30 1312 C 141.704 -1.56926 -4.98168 0
M  V30 1313 H 143.398 -1.16086 -2.75979 0
M  V30 1314 H 140.944 -0.559657 -1.32679 0
M  V30 1315 H 142.897 0.857143 -4.12591 0
M  V30 1316 H 141.621 1.33721 -2.9797 0
M  V30 1317 H 140.28 -0.703754 -3.59782 0
M  V30 1318 H 139.928 1.45199 -4.81587 0
M  V30 1319 H 139.628 0.0519022 -5.87577 0
M  V30 1320 H 141.152 0.97179 -6.02817 0
M  V30 1321 H 142.566 -1.25764 -5.59336 0
M  V30 1322 H 140.963 -2.04739 -5.64094 0
M  V30 1323 H 142.033 -2.32544 -4.25501 0
M  V30 1324 N 143.376 1.44774 -0.622745 0
M  V30 1325 C 144.601 2.06999 -0.128968 0
M  V30 1326 C 145.026 1.4617 1.1839 0
M  V30 1327 O 144.384 0.560007 1.72434 0
M  V30 1328 C 144.432 3.60595 -0.0188351 0
M  V30 1329 O 143.536 3.99398 1.02739 0
M  V30 1330 H 142.877 0.659047 -0.0809544 0
M  V30 1331 H 145.407 1.85784 -0.85705 0
M  V30 1332 H 145.417 4.07627 0.174476 0
M  V30 1333 H 144.092 4.04252 -0.977384 0
M  V30 1334 H 142.669 3.64011 0.809326 0
M  V30 1335 N 144.854 0.36279 1.53368 0
M  V30 1336 C 146.265 -0.117022 1.86333 0
M  V30 1337 C 146.616 -1.48397 1.28347 0
M  V30 1338 O 145.741 -2.07787 0.604428 0
M  V30 1339 C 146.336 -0.21912 3.38091 0
M  V30 1340 C 144.895 -0.643184 3.70864 0
M  V30 1341 C 144.042 0.211318 2.76494 0
M  V30 1342 H 146.993 0.581687 1.47655 0
M  V30 1343 H 147.014 -1.04319 3.6592 0
M  V30 1344 H 146.526 0.775902 3.80265 0
M  V30 1345 H 144.627 -1.64654 3.34245 0
M  V30 1346 H 144.74 -0.41973 4.77258 0
M  V30 1347 H 143.104 -0.319367 2.5269 0
M  V30 1348 H 143.887 1.20383 3.21501 0
M  V30 1349 N 146.332 -1.57332 0.0918853 0
M  V30 1350 C 147.743 -1.81496 -0.437739 0
M  V30 1351 C 148.094 -1.00727 -1.6837 0
M  V30 1352 O 147.219 -0.235694 -2.15113 0
M  V30 1353 C 147.814 -3.29197 -0.800939 0
M  V30 1354 C 146.373 -3.54136 -1.27532 0
M  V30 1355 C 145.52 -2.75979 -0.270392 0
M  V30 1356 H 148.471 -1.55494 0.317366 0
M  V30 1357 H 148.492 -3.42344 -1.66074 0
M  V30 1358 H 148.004 -3.87955 0.106078 0
M  V30 1359 H 146.105 -3.00705 -2.20016 0
M  V30 1360 H 146.218 -4.62792 -1.23938 0
M  V30 1361 H 144.582 -2.43349 -0.751872 0
M  V30 1362 H 145.365 -3.37484 0.629248 0
M  V30 1363 N 147.81 0.181792 -1.56548 0
M  V30 1364 C 148.742 1.24956 -1.92142 0
M  V30 1365 C 149.755 1.41022 -0.813422 0
M  V30 1366 O 150.944 1.41212 -1.09186 0
M  V30 1367 C 148.044 2.61981 -2.14987 0
M  V30 1368 C 147.217 2.6735 -3.46183 0
M  V30 1369 C 146.276 3.85664 -3.5798 0
M  V30 1370 O 145.302 3.72148 -4.30691 0
M  V30 1371 N 146.504 5.01683 -2.92053 0
M  V30 1372 H 149.269 0.947329 -2.84334 0
M  V30 1373 H 146.83 0.371629 -1.57577 0
M  V30 1374 H 148.822 3.3958 -2.20154 0
M  V30 1375 H 147.392 2.84637 -1.2923 0
M  V30 1376 H 146.612 1.75925 -3.52766 0
M  V30 1377 H 147.9 2.67939 -4.32534 0
M  V30 1378 H 147.298 5.15564 -2.32832 0
M  V30 1379 H 145.855 5.77181 -3.0283 0
M  V30 1380 N 149.288 1.51039 0.449983 0
M  V30 1381 C 150.699 1.557 1.03026 0
M  V30 1382 C 151.05 0.372939 1.92623 0
M  V30 1383 O 150.175 -0.511771 2.10261 0
M  V30 1384 C 150.77 2.82171 1.87523 0
M  V30 1385 C 149.329 2.89444 2.40622 0
M  V30 1386 C 148.476 2.50228 1.19504 0
M  V30 1387 H 151.427 1.56999 0.231745 0
M  V30 1388 H 151.448 2.65219 2.72835 0
M  V30 1389 H 150.96 3.68331 1.22286 0
M  V30 1390 H 149.061 2.07685 3.0935 0
M  V30 1391 H 149.174 3.92816 2.74285 0
M  V30 1392 H 147.538 2.03139 1.53644 0
M  V30 1393 H 148.321 3.38719 0.558972 0
M  V30 1394 N 150.766 -0.704594 1.40972 0
M  V30 1395 C 151.729 -1.80035 1.41845 0
M  V30 1396 C 152.729 -1.57774 0.310474 0
M  V30 1397 O 153.919 -1.64613 0.56992 0
M  V30 1398 C 151.051 -3.18284 1.22098 0
M  V30 1399 H 152.244 -1.80658 2.3938 0
M  V30 1400 H 149.797 -0.911329 1.26982 0
M  V30 1401 H 150.532 -3.23306 0.253672 0
M  V30 1402 H 150.317 -3.35843 2.02366 0
M  V30 1403 H 151.807 -3.98289 1.25522 0
M  V30 1404 N 152.244 -1.26651 -0.937939 0
M  V30 1405 C 153.655 -1.1125 -1.49934 0
M  V30 1406 C 154.006 0.306077 -1.93798 0
M  V30 1407 O 153.131 1.19792 -1.80219 0
M  V30 1408 C 153.726 -2.01339 -2.72485 0
M  V30 1409 C 152.285 -1.90074 -3.24883 0
M  V30 1410 C 151.432 -1.94498 -1.97651 0
M  V30 1411 H 154.383 -1.39693 -0.753091 0
M  V30 1412 H 154.404 -1.56319 -3.46907 0
M  V30 1413 H 153.916 -3.04577 -2.40529 0
M  V30 1414 H 152.017 -0.897827 -3.61621 0
M  V30 1415 H 152.13 -2.75778 -3.9177 0
M  V30 1416 H 150.494 -1.38591 -2.13693 0
M  V30 1417 H 151.277 -2.99372 -1.68022 0
M  V30 1418 N 153.722 1.14298 -1.08507 0
M  V30 1419 C 154.95 1.89219 -0.836876 0
M  V30 1420 C 155.365 1.78638 0.611054 0
M  V30 1421 O 154.722 1.14643 1.41998 0
M  V30 1422 C 154.773 3.39158 -1.25116 0
M  V30 1423 O 154.494 3.49449 -2.64229 0
M  V30 1424 C 155.995 4.31073 -1.03398 0
M  V30 1425 H 153.215 0.599328 -0.301739 0
M  V30 1426 H 155.759 1.44746 -1.44461 0
M  V30 1427 H 153.914 3.81251 -0.687514 0
M  V30 1428 H 154.328 4.42589 -2.81452 0
M  V30 1429 H 155.802 5.34646 -1.37323 0
M  V30 1430 H 156.279 4.3919 0.0289259 0
M  V30 1431 H 156.885 3.94738 -1.58311 0
M  V30 1432 N 155.201 0.870884 1.31352 0
M  V30 1433 C 156.612 0.534714 1.78879 0
M  V30 1434 C 156.963 -0.948423 1.71754 0
M  V30 1435 O 156.088 -1.74055 1.28584 0
M  V30 1436 C 156.683 0.963839 3.24801 0
M  V30 1437 C 155.242 0.679311 3.70219 0
M  V30 1438 C 154.389 1.15465 2.52117 0
M  V30 1439 H 157.34 1.05651 1.18421 0
M  V30 1440 H 157.361 0.286892 3.79417 0
M  V30 1441 H 156.873 2.04332 3.29955 0
M  V30 1442 H 154.974 -0.388769 3.70566 0
M  V30 1443 H 155.087 1.25698 4.62317 0
M  V30 1444 H 153.451 0.574383 2.48139 0
M  V30 1445 H 154.234 2.24157 2.60016 0
M  V30 1446 N 156.679 -1.44442 0.630414 0
M  V30 1447 C 157.609 -2.33418 -0.0618083 0
M  V30 1448 C 158.59 -1.48165 -0.835541 0
M  V30 1449 O 159.775 -1.76886 -0.801564 0
M  V30 1450 C 156.905 -3.31222 -1.04449 0
M  V30 1451 C 155.859 -4.26288 -0.382436 0
M  V30 1452 C 155.185 -5.13954 -1.47497 0
M  V30 1453 C 156.485 -5.1744 0.710865 0
M  V30 1454 H 158.179 -2.91548 0.681184 0
M  V30 1455 H 155.725 -1.40191 0.329026 0
M  V30 1456 H 157.678 -3.92351 -1.53748 0
M  V30 1457 H 156.402 -2.71299 -1.81836 0
M  V30 1458 H 155.061 -3.6649 0.0899054 0
M  V30 1459 H 154.709 -4.50385 -2.2397 0
M  V30 1460 H 154.409 -5.7837 -1.03737 0
M  V30 1461 H 155.933 -5.77955 -1.96979 0
M  V30 1462 H 157.347 -5.72509 0.300996 0
M  V30 1463 H 155.744 -5.90455 1.07156 0
M  V30 1464 H 156.814 -4.58496 1.57829 0
M  V30 1465 N 158.157 -0.370918 -1.53173 0
M  V30 1466 C 159.104 0.473035 -2.259 0
M  V30 1467 C 160.074 1.07311 -1.26781 0
M  V30 1468 O 161.259 1.1046 -1.55574 0
M  V30 1469 C 158.399 1.60405 -3.05556 0
M  V30 1470 C 157.512 1.02863 -4.19575 0
M  V30 1471 C 156.647 2.12918 -4.86661 0
M  V30 1472 C 155.686 1.52869 -5.92704 0
M  V30 1473 N 154.823 2.56779 -6.53459 0
M  V30 1474 H 159.663 -0.153649 -2.97604 0
M  V30 1475 H 157.2 -0.0875946 -1.46839 0
M  V30 1476 H 159.158 2.27034 -3.50016 0
M  V30 1477 H 157.788 2.20131 -2.36097 0
M  V30 1478 H 156.84 0.252465 -3.79561 0
M  V30 1479 H 158.152 0.549642 -4.95762 0
M  V30 1480 H 157.306 2.87356 -5.34333 0
M  V30 1481 H 156.045 2.6417 -4.09958 0
M  V30 1482 H 155.05 0.769479 -5.44389 0
M  V30 1483 H 156.275 1.02435 -6.7133 0
M  V30 1484 H 154.221 3.07235 -5.79606 0
M  V30 1485 H 154.138 2.13583 -7.25202 0
M  V30 1486 H 155.406 3.30903 -7.05779 0
M  V30 1487 N 159.635 1.57281 -0.100228 0
M  V30 1488 C 160.568 2.09976 0.893612 0
M  V30 1489 C 161.546 1.01155 1.27304 0
M  V30 1490 O 162.73 1.28687 1.37739 0
M  V30 1491 C 159.857 2.58098 2.19324 0
M  V30 1492 C 158.903 3.78626 1.96328 0
M  V30 1493 S 159.736 5.21959 1.19662 0
M  V30 1494 C 160.892 5.73435 2.50844 0
M  V30 1495 H 161.125 2.93946 0.44534 0
M  V30 1496 H 158.658 1.53985 0.113167 0
M  V30 1497 H 160.616 2.8648 2.94005 0
M  V30 1498 H 159.277 1.74344 2.61272 0
M  V30 1499 H 158.47 4.10382 2.92579 0
M  V30 1500 H 158.072 3.50763 1.29775 0
M  V30 1501 H 160.364 5.82015 3.46792 0
M  V30 1502 H 161.307 6.7185 2.23659 0
M  V30 1503 H 161.715 5.01395 2.59352 0
M  V30 1504 N 161.113 -0.173488 1.56642 0
M  V30 1505 C 162.343 -0.904781 1.85734 0
M  V30 1506 C 162.751 -1.76431 0.68328 0
M  V30 1507 O 162.094 -1.802 -0.356865 0
M  V30 1508 C 162.156 -1.83382 3.09211 0
M  V30 1509 C 161.82 -1.15411 4.42187 0
M  V30 1510 C 162.817 -0.520609 5.17287 0
M  V30 1511 C 160.502 -1.15151 4.88923 0
M  V30 1512 C 162.496 0.106412 6.37311 0
M  V30 1513 C 160.183 -0.520664 6.08878 0
M  V30 1514 C 161.181 0.107196 6.82916 0
M  V30 1515 O 160.869 0.728102 8.00596 0
M  V30 1516 H 160.601 -0.268408 0.62043 0
M  V30 1517 H 163.155 -0.179096 2.04618 0
M  V30 1518 H 161.385 -2.59976 2.86268 0
M  V30 1519 H 163.074 -2.43476 3.24768 0
M  V30 1520 H 163.84 -0.514606 4.82262 0
M  V30 1521 H 159.719 -1.62961 4.31236 0
M  V30 1522 H 163.263 0.597081 6.9504 0
M  V30 1523 H 159.16 -0.524242 6.43368 0
M  V30 1524 H 159.928 0.627138 8.16094 0
M  V30 1525 N 162.591 -1.51276 -0.441967 0
M  V30 1526 C 164.002 -1.56244 -1.02199 0
M  V30 1527 C 164.353 -0.383149 -1.92422 0
M  V30 1528 O 163.478 0.500613 -2.1053 0
M  V30 1529 C 164.073 -2.83162 -1.86024 0
M  V30 1530 C 162.632 -2.90716 -2.39084 0
M  V30 1531 C 161.779 -2.50858 -1.18175 0
M  V30 1532 H 164.73 -1.5712 -0.223416 0
M  V30 1533 H 164.751 -2.66663 -2.71425 0
M  V30 1534 H 164.263 -3.68974 -1.20331 0
M  V30 1535 H 162.364 -2.09323 -3.08244 0
M  V30 1536 H 162.477 -3.94266 -2.72198 0
M  V30 1537 H 160.841 -2.03951 -1.52565 0
M  V30 1538 H 161.624 -3.3901 -0.541001 0
M  V30 1539 N 164.069 0.697108 -1.41344 0
M  V30 1540 C 165.294 1.49096 -1.44171 0
M  V30 1541 C 165.719 1.88038 -0.0481568 0
M  V30 1542 O 165.077 1.54525 0.948243 0
M  V30 1543 C 165.125 2.73088 -2.3549 0
M  V30 1544 O 164.229 3.70514 -1.81088 0
M  V30 1545 H 163.57 0.448801 -0.489361 0
M  V30 1546 H 166.1 0.856992 -1.85787 0
M  V30 1547 H 166.11 3.21413 -2.51312 0
M  V30 1548 H 164.785 2.44081 -3.36745 0
M  V30 1549 H 163.362 3.29441 -1.74708 0
M  V30 1550 N 165.547 1.27147 0.931209 0
M  V30 1551 C 166.48 1.0389 2.0318 0
M  V30 1552 C 167.458 -0.0395716 1.62552 0
M  V30 1553 O 168.642 0.104867 1.88208 0
M  V30 1554 C 165.769 0.575227 3.3378 0
M  V30 1555 C 164.815 1.64774 3.93385 0
M  V30 1556 S 165.648 3.23933 4.26413 0
M  V30 1557 C 166.804 2.79358 5.60098 0
M  V30 1558 H 167.037 1.97075 2.22596 0
M  V30 1559 H 164.57 1.10938 1.07387 0
M  V30 1560 H 166.528 0.314385 4.09294 0
M  V30 1561 H 165.189 -0.336505 3.12292 0
M  V30 1562 H 164.382 1.27454 4.87618 0
M  V30 1563 H 163.984 1.86048 3.24441 0
M  V30 1564 H 166.276 2.24443 6.39243 0
M  V30 1565 H 167.219 3.72322 6.02314 0
M  V30 1566 H 167.627 2.1861 5.20452 0
M  V30 1567 N 167.025 -1.13721 1.09112 0
M  V30 1568 C 168.436 -1.6648 0.845068 0
M  V30 1569 C 168.787 -1.85911 -0.62701 0
M  V30 1570 O 167.912 -1.57556 -1.48341 0
M  V30 1571 C 168.507 -3.02413 1.52748 0
M  V30 1572 C 167.066 -3.52176 1.32849 0
M  V30 1573 C 166.213 -2.27492 1.58564 0
M  V30 1574 H 169.164 -0.976872 1.25072 0
M  V30 1575 H 169.185 -3.68223 0.958752 0
M  V30 1576 H 168.697 -2.88238 2.59885 0
M  V30 1577 H 166.798 -3.7156 0.278137 0
M  V30 1578 H 166.911 -4.32499 2.0611 0
M  V30 1579 H 165.275 -2.33923 1.00758 0
M  V30 1580 H 166.058 -2.15886 2.66924 0
M  V30 1581 N 168.503 -0.877838 -1.30888 0
M  V30 1582 C 169.466 -0.344265 -2.266 0
M  V30 1583 C 170.466 0.50922 -1.52524 0
M  V30 1584 O 171.656 0.317398 -1.71284 0
M  V30 1585 C 168.788 0.510198 -3.37061 0
M  V30 1586 H 169.981 -1.1893 -2.7531 0
M  V30 1587 H 167.534 -0.654088 -1.41956 0
M  V30 1588 H 168.269 1.37612 -2.93655 0
M  V30 1589 H 168.054 -0.101047 -3.9197 0
M  V30 1590 H 169.544 0.875537 -4.08319 0
M  V30 1591 N 169.982 1.44106 -0.638065 0
M  V30 1592 C 171.229 2.01978 -0.14533 0
M  V30 1593 C 171.557 1.50234 1.23532 0
M  V30 1594 O 170.812 0.679548 1.83523 0
M  V30 1595 C 171.111 3.5729 -0.0887327 0
M  V30 1596 C 170.777 4.28317 -1.40909 0
M  V30 1597 C 169.439 4.47437 -1.77069 0
M  V30 1598 C 171.791 4.6867 -2.28031 0
M  V30 1599 C 169.119 5.04171 -3.00047 0
M  V30 1600 C 171.471 5.26766 -3.50286 0
M  V30 1601 C 170.135 5.44104 -3.86661 0
M  V30 1602 H 169.405 0.739089 -0.0531801 0
M  V30 1603 H 172.052 1.72781 -0.825761 0
M  V30 1604 H 170.357 3.8594 0.675095 0
M  V30 1605 H 172.054 3.99807 0.309145 0
M  V30 1606 H 168.644 4.1377 -1.1177 0
M  V30 1607 H 172.828 4.53604 -2.01388 0
M  V30 1608 H 168.084 5.15782 -3.28298 0
M  V30 1609 H 172.258 5.56983 -4.18023 0
M  V30 1610 H 169.885 5.87832 -4.82034 0
M  V30 1611 N 171.46 0.379036 1.52974 0
M  V30 1612 C 172.685 -0.209353 2.06341 0
M  V30 1613 C 173.11 -1.40583 1.24972 0
M  V30 1614 O 172.468 -1.79246 0.272155 0
M  V30 1615 C 172.516 -0.567786 3.56102 0
M  V30 1616 O 171.62 -1.66318 3.77375 0
M  V30 1617 H 170.961 -0.0272919 0.663439 0
M  V30 1618 H 173.491 0.543536 1.97248 0
M  V30 1619 H 173.501 -0.835003 3.99364 0
M  V30 1620 H 172.176 0.307013 4.14765 0
M  V30 1621 H 170.753 -1.39048 3.46006 0
M  V30 1622 N 172.938 -1.57226 0.108567 0
M  V30 1623 C 174.349 -1.8195 -0.418464 0
M  V30 1624 C 174.7 -1.02508 -1.67292 0
M  V30 1625 O 173.825 -0.258496 -2.14851 0
M  V30 1626 C 174.42 -3.30028 -0.765979 0
M  V30 1627 C 172.979 -3.55469 -1.23769 0
M  V30 1628 C 172.126 -2.7625 -0.241106 0
M  V30 1629 H 175.077 -1.55149 0.33384 0
M  V30 1630 H 175.098 -3.44086 -1.62434 0
M  V30 1631 H 174.61 -3.87821 0.147219 0
M  V30 1632 H 172.711 -3.03022 -2.16814 0
M  V30 1633 H 172.824 -4.6408 -1.19022 0
M  V30 1634 H 171.188 -2.44133 -0.72602 0
M  V30 1635 H 171.971 -3.36797 0.665007 0
M  V30 1636 N 174.416 0.165178 -1.56732 0
M  V30 1637 C 175.664 0.879068 -1.8198 0
M  V30 1638 C 175.985 1.82514 -0.686561 0
M  V30 1639 O 175.255 1.93694 0.293146 0
M  V30 1640 H 173.835 0.327608 -0.671329 0
M  V30 1641 H 176.497 0.163526 -1.94213 0
M  V30 1642 H 175.593 1.45228 -2.76252 0
M  V30 1643 N 175.894 1.51508 0.433938 0
M  V30 1644 C 177.305 1.56784 1.01369 0
M  V30 1645 C 177.656 0.393349 1.92217 0
M  V30 1646 O 176.781 -0.489441 2.10792 0
M  V30 1647 C 177.376 2.84144 1.8452 0
M  V30 1648 C 175.935 2.9198 2.37539 0
M  V30 1649 C 175.082 2.51482 1.16843 0
M  V30 1650 H 178.033 1.57236 0.215081 0
M  V30 1651 H 178.054 2.68098 2.70007 0
M  V30 1652 H 177.566 3.69607 1.18373 0
M  V30 1653 H 175.667 2.10955 3.0713 0
M  V30 1654 H 175.78 3.95704 2.70103 0
M  V30 1655 H 174.144 2.04758 1.51481 0
M  V30 1656 H 174.927 3.39293 0.523015 0
M  V30 1657 N 177.372 -0.689602 1.41712 0
M  V30 1658 C 178.62 -1.4468 1.4111 0
M  V30 1659 C 178.941 -1.94986 0.0232196 0
M  V30 1660 O 178.211 -1.72097 -0.935913 0
M  V30 1661 H 176.791 -0.536847 0.519427 0
M  V30 1662 H 179.453 -0.815825 1.77004 0
M  V30 1663 H 178.549 -2.30706 2.10193 0
M  V30 1664 N 178.85 -1.27639 -0.924453 0
M  V30 1665 C 180.099 -1.13549 -1.66702 0
M  V30 1666 C 180.412 0.317487 -1.93006 0
M  V30 1667 O 181.618 0.579333 -2.65247 0
M  V30 1668 C 180.074 -1.98426 -3.00259 0
M  V30 1669 C 179.682 -3.484 -2.81641 0
M  V30 1670 C 181.426 -1.92993 -3.78092 0
M  V30 1671 C 179.333 -4.25464 -4.10773 0
M  V30 1672 H 178.263 -0.421351 -0.625283 0
M  V30 1673 H 180.914 -1.52085 -1.02676 0
M  V30 1674 H 179.296 -1.52736 -3.6536 0
M  V30 1675 H 180.47 -4.01973 -2.25287 0
M  V30 1676 H 178.785 -3.55245 -2.17232 0
M  V30 1677 H 181.382 -2.47844 -4.7379 0
M  V30 1678 H 181.725 -0.904281 -4.0636 0
M  V30 1679 H 182.258 -2.36595 -3.19793 0
M  V30 1680 H 178.997 -5.28566 -3.87683 0
M  V30 1681 H 178.517 -3.76667 -4.66779 0
M  V30 1682 H 180.196 -4.34812 -4.79111 0
M  V30 1683 N 180.328 1.1314 -1.09713 0
M  V30 1684 C 181.275 2.18642 -0.739196 0
M  V30 1685 C 182.245 1.63706 0.280978 0
M  V30 1686 O 183.43 1.90111 0.161946 0
M  V30 1687 C 180.57 3.44685 -0.169102 0
M  V30 1688 C 179.683 4.13711 -1.24367 0
M  V30 1689 C 178.818 5.27379 -0.636019 0
M  V30 1690 C 177.857 5.88259 -1.69169 0
M  V30 1691 N 176.994 6.93352 -1.10485 0
M  V30 1692 H 181.834 2.48607 -1.64312 0
M  V30 1693 H 179.371 1.22066 -0.820875 0
M  V30 1694 H 181.329 4.16815 0.179256 0
M  V30 1695 H 179.959 3.15161 0.698079 0
M  V30 1696 H 179.011 3.39835 -1.70927 0
M  V30 1697 H 180.323 4.55037 -2.04311 0
M  V30 1698 H 179.477 6.06238 -0.236677 0
M  V30 1699 H 178.216 4.8731 0.194928 0
M  V30 1700 H 177.221 5.08092 -2.10055 0
M  V30 1701 H 178.446 6.30399 -2.52536 0
M  V30 1702 H 176.392 6.55335 -0.295234 0
M  V30 1703 H 176.309 7.33236 -1.84121 0
M  V30 1704 H 177.577 7.76057 -0.73181 0
M  V30 1705 N 181.806 0.884767 1.30421 0
M  V30 1706 C 182.716 0.355398 2.31892 0
M  V30 1707 C 183.732 -0.542261 1.65335 0
M  V30 1708 O 184.908 -0.435432 1.96637 0
M  V30 1709 C 181.973 -0.421661 3.44126 0
M  V30 1710 C 181.034 0.505727 4.26311 0
M  V30 1711 C 180.267 -0.234343 5.33185 0
M  V30 1712 O 180.49 -1.46045 5.51386 0
M  V30 1713 O 179.424 0.415443 6.00465 0
M  V30 1714 H 183.25 1.19685 2.79122 0
M  V30 1715 H 180.835 0.648596 1.34587 0
M  V30 1716 H 182.717 -0.861641 4.12497 0
M  V30 1717 H 181.392 -1.23942 2.99032 0
M  V30 1718 H 180.299 0.994513 3.60639 0
M  V30 1719 H 181.632 1.28948 4.75009 0
M  V30 1720 N 183.284 -1.43765 0.645699 0
M  V30 1721 C 184.194 -2.34544 -0.0512957 0
M  V30 1722 C 185.21 -1.53455 -0.82022 0
M  V30 1723 O 186.386 -1.86133 -0.769176 0
M  V30 1724 C 183.451 -3.31636 -1.01087 0
M  V30 1725 C 182.512 -4.2863 -0.239712 0
M  V30 1726 C 181.745 -5.21084 -1.15358 0
M  V30 1727 O 181.968 -5.1779 -2.39269 0
M  V30 1728 O 180.902 -5.98593 -0.630038 0
M  V30 1729 H 184.728 -2.95624 0.695718 0
M  V30 1730 H 182.313 -1.43781 0.405882 0
M  V30 1731 H 184.195 -3.9136 -1.56254 0
M  V30 1732 H 182.87 -2.73069 -1.73824 0
M  V30 1733 H 181.777 -3.72408 0.355356 0
M  V30 1734 H 183.11 -4.90157 0.447936 0
M  V30 1735 N 184.763 -0.387143 -1.52771 0
M  V30 1736 C 185.988 0.198407 -2.06449 0
M  V30 1737 C 186.413 1.39918 -1.25716 0
M  V30 1738 O 185.771 1.79099 -0.281657 0
M  V30 1739 C 185.819 0.548893 -3.56398 0
M  V30 1740 O 184.923 1.64315 -3.78252 0
M  V30 1741 H 184.264 0.0237731 -0.663574 0
M  V30 1742 H 186.794 -0.553989 -1.96957 0
M  V30 1743 H 186.804 0.813812 -3.99801 0
M  V30 1744 H 185.479 -0.329005 -4.14597 0
M  V30 1745 H 184.056 1.37211 -3.46738 0
M  V30 1746 N 186.241 1.57166 -0.116904 0
M  V30 1747 C 187.487 1.95412 0.542405 0
M  V30 1748 C 187.82 1.00019 1.66463 0
M  V30 1749 O 187.095 0.0370346 1.94465 0
M  V30 1750 C 187.378 3.43615 1.07708 0
M  V30 1751 C 187.231 4.49781 -0.0415868 0
M  V30 1752 C 188.55 3.93616 1.96861 0
M  V30 1753 H 185.669 0.710543 0.195696 0
M  V30 1754 H 188.311 1.89027 -0.192038 0
M  V30 1755 H 186.461 3.49187 1.70296 0
M  V30 1756 H 188.133 4.56308 -0.676793 0
M  V30 1757 H 186.376 4.28033 -0.705019 0
M  V30 1758 H 187.047 5.50733 0.373717 0
M  V30 1759 H 189.523 3.90335 1.44146 0
M  V30 1760 H 188.399 4.97838 2.3119 0
M  V30 1761 H 188.66 3.34188 2.89432 0
M  V30 1762 N 187.719 -0.156864 1.56817 0
M  V30 1763 C 189.13 -0.717916 1.72345 0
M  V30 1764 C 189.481 -1.82124 0.729747 0
M  V30 1765 O 188.606 -2.16141 -0.105781 0
M  V30 1766 C 189.201 -1.30904 3.12489 0
M  V30 1767 C 187.76 -1.81676 3.29653 0
M  V30 1768 C 186.907 -0.701349 2.68284 0
M  V30 1769 H 189.858 0.0686989 1.58551 0
M  V30 1770 H 189.879 -2.17882 3.11942 0
M  V30 1771 H 189.391 -0.505796 3.8479 0
M  V30 1772 H 187.492 -2.64598 2.62333 0
M  V30 1773 H 187.605 -1.95226 4.3752 0
M  V30 1774 H 185.969 -1.12548 2.28484 0
M  V30 1775 H 186.752 0.0902846 3.43181 0
M  V30 1776 N 189.197 -1.51736 -0.425897 0
M  V30 1777 C 190.127 -1.76827 -1.52494 0
M  V30 1778 C 191.108 -0.618524 -1.58456 0
M  V30 1779 O 192.293 -0.862416 -1.74 0
M  V30 1780 C 189.423 -1.90374 -2.90474 0
M  V30 1781 C 188.377 -3.0588 -2.99369 0
M  V30 1782 C 187.703 -3.04625 -4.3944 0
M  V30 1783 C 189.003 -4.45644 -2.72394 0
M  V30 1784 H 190.697 -2.68855 -1.31748 0
M  V30 1785 H 188.243 -1.29372 -0.632362 0
M  V30 1786 H 190.196 -2.0651 -3.6733 0
M  V30 1787 H 188.92 -0.95004 -3.12477 0
M  V30 1788 H 187.579 -2.89467 -2.24954 0
M  V30 1789 H 187.227 -2.0701 -4.58428 0
M  V30 1790 H 186.927 -3.82195 -4.46319 0
M  V30 1791 H 188.451 -3.22869 -5.18255 0
M  V30 1792 H 189.865 -4.62348 -3.38979 0
M  V30 1793 H 188.262 -5.25006 -2.9067 0
M  V30 1794 H 189.332 -4.54893 -1.67929 0
M  V30 1795 N 190.675 0.682077 -1.42076 0
M  V30 1796 C 191.9 1.47558 -1.45744 0
M  V30 1797 C 192.325 1.87977 -0.0680981 0
M  V30 1798 O 191.683 1.55522 0.9318 0
M  V30 1799 C 191.731 2.70575 -2.38373 0
M  V30 1800 O 190.835 3.68573 -1.85007 0
M  V30 1801 H 190.176 0.443585 -0.494093 0
M  V30 1802 H 192.706 0.837238 -1.86686 0
M  V30 1803 H 192.716 3.18729 -2.54707 0
M  V30 1804 H 191.391 2.40495 -3.39315 0
M  V30 1805 H 189.968 3.2757 -1.78192 0
M  V30 1806 N 192.153 1.28127 0.917671 0
M  V30 1807 C 193.402 1.14432 1.66097 0
M  V30 1808 C 193.715 -0.307247 1.93172 0
M  V30 1809 O 194.921 -0.565259 2.65551 0
M  V30 1810 C 193.377 2.00015 2.99202 0
M  V30 1811 C 192.985 3.49889 2.79789 0
M  V30 1812 C 194.729 1.94996 3.77064 0
M  V30 1813 C 192.636 4.27636 4.08511 0
M  V30 1814 H 191.566 0.424662 0.62304 0
M  V30 1815 H 194.217 1.52628 1.01868 0
M  V30 1816 H 192.599 1.54672 3.64544 0
M  V30 1817 H 193.773 4.03162 2.23152 0
M  V30 1818 H 192.088 3.56392 2.15345 0
M  V30 1819 H 194.685 2.50354 4.72469 0
M  V30 1820 H 195.028 0.925819 4.05875 0
M  V30 1821 H 195.561 2.38287 3.18534 0
M  V30 1822 H 192.3 5.30615 3.84874 0
M  V30 1823 H 191.82 3.79137 4.64774 0
M  V30 1824 H 193.499 4.37346 4.76799 0
M  V30 1825 N 193.631 -1.12557 1.10312 0
M  V30 1826 C 194.561 -2.20341 0.772798 0
M  V30 1827 C 195.542 -1.68198 -0.25365 0
M  V30 1828 O 196.727 -1.93831 -0.119699 0
M  V30 1829 C 193.857 -3.46709 0.202443 0
M  V30 1830 C 192.811 -4.11996 1.15943 0
M  V30 1831 C 192.137 -5.328 0.450345 0
M  V30 1832 C 193.437 -4.5828 2.50552 0
M  V30 1833 H 195.131 -2.48229 1.674 0
M  V30 1834 H 192.677 -1.19308 0.806326 0
M  V30 1835 H 194.63 -4.2138 -0.0407752 0
M  V30 1836 H 193.354 -3.18245 -0.734001 0
M  V30 1837 H 192.013 -3.39305 1.38808 0
M  V30 1838 H 191.661 -5.00602 -0.490531 0
M  V30 1839 H 191.361 -5.7743 1.08851 0
M  V30 1840 H 192.885 -6.10219 0.215642 0
M  V30 1841 H 194.299 -5.2433 2.31843 0
M  V30 1842 H 192.696 -5.13683 3.10242 0
M  V30 1843 H 193.766 -3.72329 3.10643 0
M  V30 1844 N 195.109 -0.891671 -1.2995 0
M  V30 1845 C 196.041 -0.320695 -2.26945 0
M  V30 1846 C 197.054 0.528497 -1.53983 0
M  V30 1847 O 198.243 0.346959 -1.75096 0
M  V30 1848 C 195.343 0.562066 -3.34207 0
M  V30 1849 C 194.516 -0.259576 -4.36629 0
M  V30 1850 C 193.575 0.554739 -5.23268 0
M  V30 1851 O 192.601 -0.0249311 -5.69195 0
M  V30 1852 N 193.803 1.8625 -5.4981 0
M  V30 1853 H 196.568 -1.15432 -2.76578 0
M  V30 1854 H 194.129 -0.755336 -1.432 0
M  V30 1855 H 196.121 1.11304 -3.89093 0
M  V30 1856 H 194.691 1.29637 -2.84452 0
M  V30 1857 H 193.911 -0.991986 -3.81514 0
M  V30 1858 H 195.199 -0.822564 -5.02107 0
M  V30 1859 H 194.597 2.35628 -5.14292 0
M  V30 1860 H 193.154 2.36078 -6.07545 0
M  V30 1861 N 196.587 1.43421 -0.653314 0
M  V30 1862 C 197.815 2.06163 -0.174491 0
M  V30 1863 C 198.23 1.48969 1.1599 0
M  V30 1864 O 197.587 0.621042 1.71608 0
M  V30 1865 C 197.638 3.61417 -0.0774865 0
M  V30 1866 O 197.359 4.16485 -1.35912 0
M  V30 1867 C 198.86 4.41235 0.427402 0
M  V30 1868 H 196.08 0.664946 -0.0899353 0
M  V30 1869 H 198.624 1.83924 -0.893988 0
M  V30 1870 H 196.779 3.82841 0.59257 0
M  V30 1871 H 197.193 5.10153 -1.21839 0
M  V30 1872 H 198.667 5.5021 0.44423 0
M  V30 1873 H 199.144 4.14268 1.45873 0
M  V30 1874 H 199.75 4.2478 -0.210167 0
M  V30 1875 N 198.065 0.39524 1.52563 0
M  V30 1876 C 199.476 -0.0774719 1.86539 0
M  V30 1877 C 199.827 -1.45641 1.31466 0
M  V30 1878 O 198.952 -2.06459 0.648367 0
M  V30 1879 C 199.547 -0.147356 3.38479 0
M  V30 1880 C 198.106 -0.564373 3.72145 0
M  V30 1881 C 197.253 0.269919 2.75983 0
M  V30 1882 H 200.204 0.612876 1.46388 0
M  V30 1883 H 200.225 -0.965343 3.68051 0
M  V30 1884 H 199.737 0.856387 3.78534 0
M  V30 1885 H 197.838 -1.57527 3.37663 0
M  V30 1886 H 197.951 -0.318402 4.78041 0
M  V30 1887 H 196.315 -0.265696 2.5331 0
M  V30 1888 H 197.098 1.27175 3.18875 0
M  V30 1889 N 199.544 -1.57102 0.125237 0
M  V30 1890 C 200.772 -1.99761 -0.538797 0
M  V30 1891 C 201.187 -1.00503 -1.59827 0
M  V30 1892 O 200.544 0.00119474 -1.825 0
M  V30 1893 C 200.595 -3.42408 -1.15927 0
M  V30 1894 O 200.316 -4.37869 -0.142143 0
M  V30 1895 C 201.817 -4.00232 -1.90602 0
M  V30 1896 H 199.037 -0.655772 -0.14214 0
M  V30 1897 H 201.581 -2.03383 0.213413 0
M  V30 1898 H 199.736 -3.39706 -1.86223 0
M  V30 1899 H 200.15 -5.21128 -0.593775 0
M  V30 1900 H 201.624 -5.02105 -2.29335 0
M  V30 1901 H 202.101 -3.39721 -2.78363 0
M  V30 1902 H 202.707 -4.06499 -1.25055 0
M  V30 1903 N 201.022 0.148545 -1.56898 0
M  V30 1904 C 202.433 0.708766 -1.72723 0
M  V30 1905 C 202.784 1.81734 -0.739395 0
M  V30 1906 O 201.909 2.16194 0.0943169 0
M  V30 1907 C 202.504 1.29245 -3.13179 0
M  V30 1908 C 201.063 1.79925 -3.30611 0
M  V30 1909 C 200.21 0.687111 -2.68652 0
M  V30 1910 H 203.161 -0.0771063 -1.58513 0
M  V30 1911 H 203.182 2.16224 -3.13093 0
M  V30 1912 H 202.694 0.485382 -3.85053 0
M  V30 1913 H 200.795 2.63203 -2.63732 0
M  V30 1914 H 200.908 1.92903 -4.38549 0
M  V30 1915 H 199.272 1.11335 -2.29078 0
M  V30 1916 H 200.055 -0.108483 -3.43129 0
M  V30 1917 N 202.5 1.5196 0.417844 0
M  V30 1918 C 203.432 1.70895 1.52733 0
M  V30 1919 C 204.445 0.589405 1.51756 0
M  V30 1920 O 205.634 0.864312 1.56179 0
M  V30 1921 C 202.734 1.72627 2.91639 0
M  V30 1922 C 201.907 3.01479 3.16905 0
M  V30 1923 C 200.966 2.95139 4.35637 0
M  V30 1924 O 199.992 3.69059 4.3334 0
M  V30 1925 N 201.194 2.12328 5.40275 0
M  V30 1926 H 203.959 2.66612 1.36888 0
M  V30 1927 H 201.52 1.50089 0.607037 0
M  V30 1928 H 203.512 1.65928 3.6912 0
M  V30 1929 H 202.082 0.844216 3.00985 0
M  V30 1930 H 201.302 3.21895 2.27546 0
M  V30 1931 H 202.59 3.86736 3.30625 0
M  V30 1932 H 201.988 1.51685 5.44985 0
M  V30 1933 H 200.545 2.11494 6.16534 0
M  V30 1934 N 203.978 -0.674533 1.42435 0
M  V30 1935 C 205.389 -1.25514 1.38214 0
M  V30 1936 C 205.74 -1.96055 0.0755464 0
M  V30 1937 O 204.865 -2.00028 -0.8257 0
M  V30 1938 C 205.46 -2.28269 2.50357 0
M  V30 1939 C 204.019 -2.81856 2.49467 0
M  V30 1940 C 203.166 -1.56182 2.29134 0
M  V30 1941 H 206.117 -0.467902 1.51646 0
M  V30 1942 H 206.138 -3.10009 2.20624 0
M  V30 1943 H 205.65 -1.769 3.45439 0
M  V30 1944 H 203.751 -3.37346 1.58204 0
M  V30 1945 H 203.864 -3.30854 3.46515 0
M  V30 1946 H 202.228 -1.82761 1.774 0
M  V30 1947 H 203.011 -1.06778 3.26272 0
M  V30 1948 N 205.456 -1.28612 -0.910864 0
M  V30 1949 C 206.386 -1.15326 -2.03032 0
M  V30 1950 C 207.367 -0.0502924 -1.70026 0
M  V30 1951 O 208.552 -0.227797 -1.92859 0
M  V30 1952 C 205.682 -0.817343 -3.37545 0
M  V30 1953 C 204.636 -1.8754 -3.84724 0
M  V30 1954 C 203.962 -1.39305 -5.16235 0
M  V30 1955 C 205.262 -3.28244 -4.06267 0
M  V30 1956 H 206.956 -2.08975 -2.14406 0
M  V30 1957 H 204.502 -1.00612 -1.03021 0
M  V30 1958 H 206.455 -0.711151 -4.15356 0
M  V30 1959 H 205.179 0.154846 -3.26233 0
M  V30 1960 H 203.838 -1.97079 -3.09121 0
M  V30 1961 H 203.486 -0.409846 -5.01328 0
M  V30 1962 H 203.186 -2.10057 -5.48771 0
M  V30 1963 H 204.71 -1.30014 -5.96598 0
M  V30 1964 H 206.124 -3.21611 -4.74594 0
M  V30 1965 H 204.521 -3.96855 -4.5014 0
M  V30 1966 H 205.591 -3.72048 -3.10979 0
M  V30 1967 N 206.934 1.1197 -1.10907 0
M  V30 1968 C 208.345 1.65114 -0.871446 0
M  V30 1969 C 208.696 1.86885 0.597353 0
M  V30 1970 O 207.821 1.59896 1.45816 0
M  V30 1971 C 208.416 2.99944 -1.5754 0
M  V30 1972 C 206.975 3.50018 -1.38435 0
M  V30 1973 C 206.122 2.24941 -1.62164 0
M  V30 1974 H 209.073 0.956851 -1.2661 0
M  V30 1975 H 209.094 3.66651 -1.01721 0
M  V30 1976 H 208.606 2.84067 -2.64438 0
M  V30 1977 H 206.707 3.71071 -0.337214 0
M  V30 1978 H 206.82 4.29165 -2.12965 0
M  V30 1979 H 205.184 2.3229 -1.04467 0
M  V30 1980 H 205.967 2.11612 -2.70324 0
M  V30 1981 N 208.412 0.89855 1.29475 0
M  V30 1982 C 209.66 0.522847 1.9522 0
M  V30 1983 C 209.981 -0.93371 1.71192 0
M  V30 1984 O 209.251 -1.65823 1.04305 0
M  V30 1985 H 207.831 0.190366 0.722336 0
M  V30 1986 H 210.493 1.14459 1.5775 0
M  V30 1987 H 209.589 0.704476 3.04045 0
M  V30 1988 N 209.89 -1.43072 0.660911 0
M  V30 1989 C 210.853 -2.29194 -0.0166406 0
M  V30 1990 C 211.853 -1.42609 -0.742912 0
M  V30 1991 O 213.043 -1.64155 -0.583004 0
M  V30 1992 C 210.175 -3.24831 -1.0343 0
M  V30 1993 H 211.368 -2.90596 0.741208 0
M  V30 1994 H 208.921 -1.5048 0.422532 0
M  V30 1995 H 209.656 -2.68339 -1.82111 0
M  V30 1996 H 209.441 -3.88676 -0.517082 0
M  V30 1997 H 210.931 -3.89451 -1.50723 0
M  V30 1998 N 211.368 -0.403325 -1.52352 0
M  V30 1999 C 212.298 0.416205 -2.29761 0
M  V30 2000 C 213.279 1.05123 -1.33728 0
M  V30 2001 O 214.464 1.06134 -1.62632 0
M  V30 2002 C 211.594 1.53624 -3.11475 0
M  V30 2003 C 210.548 1.02653 -4.15507 0
M  V30 2004 C 209.874 2.23971 -4.85532 0
M  V30 2005 C 211.174 0.08463 -5.22231 0
M  V30 2006 H 212.868 -0.229701 -2.98518 0
M  V30 2007 H 210.414 -0.111913 -1.43564 0
M  V30 2008 H 212.367 2.1165 -3.64393 0
M  V30 2009 H 211.091 2.20994 -2.40477 0
M  V30 2010 H 209.75 0.46871 -3.63591 0
M  V30 2011 H 209.398 2.89883 -4.11068 0
M  V30 2012 H 209.098 1.90521 -5.55856 0
M  V30 2013 H 210.622 2.82614 -5.41259 0
M  V30 2014 H 212.036 0.573509 -5.70424 0
M  V30 2015 H 210.433 -0.160783 -5.99885 0
M  V30 2016 H 211.503 -0.86237 -4.7717 0
M  V30 2017 N 212.846 1.57033 -0.133567 0
M  V30 2018 C 213.776 2.1909 0.807567 0
M  V30 2019 C 214.757 1.13517 1.26681 0
M  V30 2020 O 215.942 1.41809 1.32679 0
M  V30 2021 C 213.072 2.80188 2.05212 0
M  V30 2022 C 212.026 3.91471 1.73015 0
M  V30 2023 C 211.352 4.39443 3.04622 0
M  V30 2024 C 212.652 5.12886 0.987168 0
M  V30 2025 H 214.346 2.97988 0.290403 0
M  V30 2026 H 211.892 1.43335 0.138239 0
M  V30 2027 H 213.845 3.22264 2.71521 0
M  V30 2028 H 212.569 1.98601 2.59278 0
M  V30 2029 H 211.228 3.49993 1.0909 0
M  V30 2030 H 210.876 3.54695 3.56651 0
M  V30 2031 H 210.576 5.14495 2.83847 0
M  V30 2032 H 212.1 4.8418 3.72024 0
M  V30 2033 H 213.514 5.51891 1.55208 0
M  V30 2034 H 211.911 5.93615 0.87985 0
M  V30 2035 H 212.981 4.84894 -0.0235286 0
M  V30 2036 N 214.325 -0.140222 1.56975 0
M  V30 2037 C 215.736 -0.699596 1.73097 0
M  V30 2038 C 216.087 -1.8134 0.749022 0
M  V30 2039 O 215.212 -2.16241 -0.0828503 0
M  V30 2040 C 215.807 -1.27582 3.1386 0
M  V30 2041 C 214.366 -1.78169 3.31561 0
M  V30 2042 C 213.513 -0.672855 2.69013 0
M  V30 2043 H 216.464 0.0855115 1.58469 0
M  V30 2044 H 216.485 -2.14561 3.14235 0
M  V30 2045 H 215.997 -0.464955 3.85305 0
M  V30 2046 H 214.098 -2.61801 2.65124 0
M  V30 2047 H 214.211 -1.90574 4.39566 0
M  V30 2048 H 212.575 -1.10118 2.29665 0
M  V30 2049 H 213.358 0.126679 3.43066 0
M  V30 2050 N 215.803 -1.52179 -0.40978 0
M  V30 2051 C 216.735 -1.71703 -1.51825 0
M  V30 2052 C 217.748 -0.597445 -1.51441 0
M  V30 2053 O 218.937 -0.872582 -1.55719 0
M  V30 2054 C 216.037 -1.74171 -2.90719 0
M  V30 2055 C 215.21 -3.03156 -3.15302 0
M  V30 2056 C 214.269 -2.97445 -4.34065 0
M  V30 2057 O 213.295 -3.71352 -4.31377 0
M  V30 2058 N 214.497 -2.15191 -5.39141 0
M  V30 2059 H 217.262 -2.67334 -1.35472 0
M  V30 2060 H 214.823 -1.50409 -0.599069 0
M  V30 2061 H 216.815 -1.67884 -3.68235 0
M  V30 2062 H 215.385 -0.860166 -3.00533 0
M  V30 2063 H 214.605 -3.23097 -2.25836 0
M  V30 2064 H 215.893 -3.88484 -3.28569 0
M  V30 2065 H 215.291 -1.54573 -5.44173 0
M  V30 2066 H 213.848 -2.1476 -6.15403 0
M  V30 2067 N 217.281 0.66697 -1.42791 0
M  V30 2068 C 218.506 1.46004 -1.47301 0
M  V30 2069 C 218.931 1.87894 -0.0880317 0
M  V30 2070 O 218.289 1.56502 0.915253 0
M  V30 2071 C 218.337 2.68031 -2.41229 0
M  V30 2072 O 217.441 3.6659 -1.88906 0
M  V30 2073 H 216.782 0.43832 -0.49877 0
M  V30 2074 H 219.312 0.817391 -1.87563 0
M  V30 2075 H 219.322 3.1601 -2.58073 0
M  V30 2076 H 217.997 2.36883 -3.41847 0
M  V30 2077 H 216.574 3.25661 -1.81656 0
M  V30 2078 N 218.759 1.29093 0.90403 0
M  V30 2079 C 220.006 1.16813 1.65411 0
M  V30 2080 C 220.334 -0.28128 1.92455 0
M  V30 2081 O 219.589 -1.22006 1.53013 0
M  V30 2082 C 219.888 1.92224 3.01305 0
M  V30 2083 C 219.554 3.41968 2.93885 0
M  V30 2084 C 218.216 3.82807 2.91569 0
M  V30 2085 C 220.568 4.37409 2.83413 0
M  V30 2086 C 217.896 5.1741 2.76594 0
M  V30 2087 C 220.248 5.72097 2.69977 0
M  V30 2088 C 218.912 6.12199 2.66024 0
M  V30 2089 H 218.182 0.42745 0.605283 0
M  V30 2090 H 220.829 1.59981 1.05254 0
M  V30 2091 H 219.134 1.41635 3.65304 0
M  V30 2092 H 220.831 1.80131 3.58265 0
M  V30 2093 H 217.421 3.09504 2.96488 0
M  V30 2094 H 221.605 4.06813 2.84283 0
M  V30 2095 H 216.861 5.47596 2.71935 0
M  V30 2096 H 221.035 6.45704 2.60844 0
M  V30 2097 H 218.662 7.16448 2.54178 0
M  V30 2098 N 220.237 -1.11381 1.11499 0
M  V30 2099 C 221.648 -1.6465 0.880191 0
M  V30 2100 C 221.999 -1.87199 -0.587434 0
M  V30 2101 O 221.124 -1.60667 -1.44966 0
M  V30 2102 C 221.719 -2.99105 1.59128 0
M  V30 2103 C 220.278 -3.49279 1.40289 0
M  V30 2104 C 219.425 -2.24077 1.63354 0
M  V30 2105 H 222.376 -0.950123 1.27116 0
M  V30 2106 H 222.397 -3.66107 1.03664 0
M  V30 2107 H 221.909 -2.82661 2.65941 0
M  V30 2108 H 220.01 -3.70887 0.356888 0
M  V30 2109 H 220.123 -4.2803 2.15238 0
M  V30 2110 H 218.487 -2.31733 1.05698 0
M  V30 2111 H 219.27 -2.10175 2.71443 0
M  V30 2112 N 221.715 -0.905404 -1.28997 0
M  V30 2113 C 222.678 -0.392253 -2.25819 0
M  V30 2114 C 223.678 0.476753 -1.5357 0
M  V30 2115 O 224.868 0.280994 -1.71919 0
M  V30 2116 C 222 0.438588 -3.38067 0
M  V30 2117 H 223.193 -1.24743 -2.72725 0
M  V30 2118 H 220.746 -0.684051 -1.40536 0
M  V30 2119 H 221.481 1.31352 -2.96508 0
M  V30 2120 H 221.266 -0.184167 -3.91667 0
M  V30 2121 H 222.756 0.78873 -4.10084 0
M  V30 2122 N 223.193 1.4272 -0.668489 0
M  V30 2123 C 224.604 1.84793 -0.266151 0
M  V30 2124 C 224.955 1.55959 1.19043 0
M  V30 2125 O 224.08 1.01622 1.91055 0
M  V30 2126 C 224.675 3.35436 -0.476271 0
M  V30 2127 C 223.234 3.76182 -0.128113 0
M  V30 2128 C 222.381 2.66344 -0.771777 0
M  V30 2129 H 225.332 1.32656 -0.871098 0
M  V30 2130 H 225.353 3.79515 0.273561 0
M  V30 2131 H 224.865 3.5639 -1.53647 0
M  V30 2132 H 222.966 3.60836 0.928891 0
M  V30 2133 H 223.079 4.75766 -0.564231 0
M  V30 2134 H 221.443 2.53885 -0.203652 0
M  V30 2135 H 222.226 2.90123 -1.83531 0
M  V30 2136 N 224.671 0.411399 1.52136 0
M  V30 2137 C 225.634 -0.401089 2.25663 0
M  V30 2138 C 226.634 -0.971732 1.28117 0
M  V30 2139 O 227.824 -0.850254 1.52041 0
M  V30 2140 C 224.956 -1.56483 3.02863 0
M  V30 2141 H 226.149 0.24295 2.98914 0
M  V30 2142 H 223.702 0.163968 1.55438 0
M  V30 2143 H 224.437 -2.24567 2.33967 0
M  V30 2144 H 224.222 -1.16211 3.74483 0
M  V30 2145 H 225.712 -2.13951 3.58629 0
M  V30 2146 N 226.149 -1.5696 0.141893 0
M  V30 2147 C 227.56 -1.82797 -0.379776 0
M  V30 2148 C 227.911 -1.06033 -1.6508 0
M  V30 2149 O 227.036 -0.304011 -2.14254 0
M  V30 2150 C 227.631 -3.31578 -0.695802 0
M  V30 2151 C 226.19 -3.58014 -1.16201 0
M  V30 2152 C 225.337 -2.76699 -0.182455 0
M  V30 2153 H 228.288 -1.54406 0.366675 0
M  V30 2154 H 228.309 -3.47454 -1.55099 0
M  V30 2155 H 227.821 -3.87421 0.229449 0
M  V30 2156 H 225.922 -3.07553 -2.10338 0
M  V30 2157 H 226.035 -4.66501 -1.09151 0
M  V30 2158 H 224.399 -2.45618 -0.674072 0
M  V30 2159 H 225.182 -3.35311 0.736297 0
M  V30 2160 N 227.627 0.131896 -1.57047 0
M  V30 2161 C 229.038 0.690407 -1.73465 0
M  V30 2162 C 229.389 1.8094 -0.758629 0
M  V30 2163 O 228.514 2.16282 0.0713813 0
M  V30 2164 C 229.109 1.25916 -3.14532 0
M  V30 2165 C 227.668 1.76409 -3.32501 0
M  V30 2166 C 226.815 0.658579 -2.69366 0
M  V30 2167 H 229.766 -0.0939144 -1.58422 0
M  V30 2168 H 229.787 2.12892 -3.15369 0
M  V30 2169 H 229.299 0.444515 -3.85546 0
M  V30 2170 H 227.4 2.60391 -2.66509 0
M  V30 2171 H 227.513 1.88241 -4.4057 0
M  V30 2172 H 225.877 1.08899 -2.30246 0
M  V30 2173 H 226.66 -0.14487 -3.42994 0
M  V30 2174 N 229.106 1.52395 0.401703 0
M  V30 2175 C 230.038 1.72505 1.50912 0
M  V30 2176 C 231.051 0.605468 1.51122 0
M  V30 2177 O 232.24 0.880828 1.55254 0
M  V30 2178 C 229.34 1.75711 2.89791 0
M  V30 2179 C 228.513 3.04824 3.1369 0
M  V30 2180 C 227.572 2.99743 4.32482 0
M  V30 2181 O 226.598 3.73635 4.29402 0
M  V30 2182 N 227.8 2.18047 5.37992 0
M  V30 2183 H 230.565 2.68049 1.34052 0
M  V30 2184 H 228.126 1.50724 0.591084 0
M  V30 2185 H 230.118 1.69834 3.6734 0
M  V30 2186 H 228.688 0.876092 3.00072 0
M  V30 2187 H 227.908 3.2429 2.24119 0
M  V30 2188 H 229.196 3.90221 3.26504 0
M  V30 2189 H 228.594 1.57456 5.43345 0
M  V30 2190 H 227.151 2.18021 6.14256 0
M  V30 2191 N 230.584 -0.659388 1.43143 0
M  V30 2192 C 231.831 -1.41935 1.44433 0
M  V30 2193 C 232.159 -1.94387 0.0663522 0
M  V30 2194 O 231.414 -1.72314 -0.927706 0
M  V30 2195 C 231.713 -2.62206 2.42864 0
M  V30 2196 C 231.379 -2.28208 3.88886 0
M  V30 2197 C 230.041 -2.18647 4.28657 0
M  V30 2198 C 232.393 -2.00887 4.8093 0
M  V30 2199 C 229.721 -1.79914 5.58433 0
M  V30 2200 C 232.073 -1.63653 6.11065 0
M  V30 2201 C 230.737 -1.52614 6.49819 0
M  V30 2202 H 230.007 -0.519376 0.528517 0
M  V30 2203 H 232.654 -0.750453 1.76183 0
M  V30 2204 H 230.959 -3.34199 2.04495 0
M  V30 2205 H 232.656 -3.2041 2.41119 0
M  V30 2206 H 229.246 -2.36557 3.57406 0
M  V30 2207 H 233.43 -2.07198 4.5098 0
M  V30 2208 H 228.686 -1.69948 5.87305 0
M  V30 2209 H 232.86 -1.41543 6.81864 0
M  V30 2210 H 230.487 -1.22371 7.50286 0
M  V30 2211 N 232.062 -1.29571 -0.897171 0
M  V30 2212 C 233.287 -1.20705 -1.68656 0
M  V30 2213 C 233.712 0.228582 -1.86706 0
M  V30 2214 O 233.07 1.16494 -1.3892 0
M  V30 2215 C 233.118 -1.9282 -3.04717 0
M  V30 2216 O 232.222 -1.24697 -3.93096 0
M  V30 2217 H 231.563 -0.418126 -0.515816 0
M  V30 2218 H 234.093 -1.71183 -1.12061 0
M  V30 2219 H 234.103 -2.01372 -3.54843 0
M  V30 2220 H 232.778 -2.97239 -2.90899 0
M  V30 2221 H 231.355 -1.2442 -3.51531 0
M  V30 2222 N 233.54 1.10788 -1.12088 0
M  V30 2223 C 234.765 1.87002 -0.896949 0
M  V30 2224 C 235.19 1.79933 0.548261 0
M  V30 2225 O 234.548 1.16662 1.38779 0
M  V30 2226 C 234.596 3.3349 -1.37174 0
M  V30 2227 O 233.7 4.08745 -0.547831 0
M  V30 2228 H 233.041 0.580397 -0.322545 0
M  V30 2229 H 235.571 1.39996 -1.49206 0
M  V30 2230 H 235.581 3.84339 -1.36922 0
M  V30 2231 H 234.256 3.37951 -2.42408 0
M  V30 2232 H 232.833 3.6776 -0.617034 0
M  V30 2233 N 235.018 0.912232 1.28515 0
M  V30 2234 C 236.246 0.560416 1.99166 0
M  V30 2235 C 236.661 -0.857927 1.68182 0
M  V30 2236 O 236.018 -1.56805 0.933733 0
M  V30 2237 C 236.069 0.758142 3.53461 0
M  V30 2238 O 235.79 2.12067 3.83352 0
M  V30 2239 C 237.291 0.412954 4.41372 0
M  V30 2240 H 234.511 0.213805 0.636026 0
M  V30 2241 H 237.055 1.22502 1.63749 0
M  V30 2242 H 235.21 0.140556 3.87145 0
M  V30 2243 H 235.624 2.15923 4.77993 0
M  V30 2244 H 237.098 0.60208 5.48707 0
M  V30 2245 H 237.575 -0.65073 4.34353 0
M  V30 2246 H 238.181 1.00802 4.13182 0
M  V30 2247 N 236.496 -1.42363 0.676048 0
M  V30 2248 C 237.907 -1.84649 0.275948 0
M  V30 2249 C 238.258 -1.56588 -1.18214 0
M  V30 2250 O 237.383 -1.02634 -1.90513 0
M  V30 2251 C 237.978 -3.35178 0.494053 0
M  V30 2252 C 236.537 -3.76109 0.148061 0
M  V30 2253 C 235.684 -2.65931 0.785891 0
M  V30 2254 H 238.635 -1.32192 0.878121 0
M  V30 2255 H 238.656 -3.79655 -0.25343 0
M  V30 2256 H 238.168 -3.55571 1.55535 0
M  V30 2257 H 236.269 -3.61323 -0.909742 0
M  V30 2258 H 236.382 -4.7546 0.589454 0
M  V30 2259 H 234.746 -2.53773 0.217113 0
M  V30 2260 H 235.529 -2.89146 1.85067 0
M  V30 2261 N 237.974 -0.419461 -1.51915 0
M  V30 2262 C 239.22 0.153166 -2.02221 0
M  V30 2263 C 239.553 1.43907 -1.30401 0
M  V30 2264 O 238.828 1.90055 -0.413438 0
M  V30 2265 C 239.111 0.390291 -3.57979 0
M  V30 2266 C 238.964 -0.913014 -4.40436 0
M  V30 2267 C 240.283 1.16794 -4.2432 0
M  V30 2268 H 237.402 0.0541924 -0.735005 0
M  V30 2269 H 240.044 -0.554955 -1.81715 0
M  V30 2270 H 238.194 0.993491 -3.75582 0
M  V30 2271 H 239.866 -1.54882 -4.34522 0
M  V30 2272 H 238.109 -1.52168 -4.06236 0
M  V30 2273 H 238.78 -0.701361 -5.47526 0
M  V30 2274 H 241.256 0.657161 -4.10878 0
M  V30 2275 H 240.132 1.3026 -5.3322 0
M  V30 2276 H 240.393 2.19132 -3.83971 0
M  V30 2277 N 239.452 1.56882 -0.150215 0
M  V30 2278 C 240.382 2.19935 0.784284 0
M  V30 2279 C 241.363 1.14854 1.25469 0
M  V30 2280 O 242.548 1.43209 1.31168 0
M  V30 2281 C 239.678 2.82349 2.02229 0
M  V30 2282 C 238.632 3.93285 1.68853 0
M  V30 2283 C 237.958 4.42649 2.99944 0
M  V30 2284 C 239.258 5.13904 0.932714 0
M  V30 2285 H 240.952 2.9828 0.258781 0
M  V30 2286 H 238.498 1.43473 0.123029 0
M  V30 2287 H 240.451 3.25126 2.68088 0
M  V30 2288 H 239.175 2.0134 2.57157 0
M  V30 2289 H 237.834 3.5113 1.05371 0
M  V30 2290 H 237.482 3.58458 3.52869 0
M  V30 2291 H 237.182 5.17476 2.78374 0
M  V30 2292 H 238.706 4.88099 3.66868 0
M  V30 2293 H 240.12 5.53506 1.49345 0
M  V30 2294 H 238.517 5.94515 0.81684 0
M  V30 2295 H 239.587 4.84842 -0.0749568 0
M  V30 2296 N 240.93 -0.123565 1.57115 0
M  V30 2297 C 242.178 -0.83051 1.84247 0
M  V30 2298 C 242.499 -1.80629 0.73471 0
M  V30 2299 O 241.769 -1.94403 -0.241688 0
M  V30 2300 H 240.349 -0.309694 0.679778 0
M  V30 2301 H 243.011 -0.111976 1.94578 0
M  V30 2302 H 242.107 -1.37852 2.80006 0
M  V30 2303 N 242.408 -1.52605 -0.393616 0
M  V30 2304 C 243.638 -1.71046 -1.15874 0
M  V30 2305 C 244.046 -0.426483 -1.84331 0
M  V30 2306 O 243.389 0.608513 -1.73329 0
M  V30 2307 C 243.451 -2.80118 -2.25332 0
M  V30 2308 C 243.115 -4.21381 -1.76881 0
M  V30 2309 C 244.112 -5.04697 -1.24808 0
M  V30 2310 C 241.797 -4.67683 -1.83244 0
M  V30 2311 C 243.791 -6.32393 -0.797387 0
M  V30 2312 C 241.478 -5.95364 -1.37787 0
M  V30 2313 C 242.476 -6.77549 -0.861208 0
M  V30 2314 O 242.164 -8.02837 -0.413252 0
M  V30 2315 H 241.896 -0.576155 -0.353583 0
M  V30 2316 H 244.45 -2.00018 -0.467123 0
M  V30 2317 H 242.68 -2.46557 -2.97904 0
M  V30 2318 H 244.369 -2.87006 -2.87023 0
M  V30 2319 H 245.135 -4.70111 -1.19252 0
M  V30 2320 H 241.014 -4.03805 -2.22401 0
M  V30 2321 H 244.558 -6.9649 -0.393437 0
M  V30 2322 H 240.455 -6.29455 -1.43026 0
M  V30 2323 H 241.223 -8.16749 -0.53515 0
M  V30 2324 N 243.887 0.651787 -1.4349 0
M  V30 2325 C 245.298 1.233 -1.40193 0
M  V30 2326 C 245.649 1.9591 -0.106727 0
M  V30 2327 O 244.774 2.01316 0.793773 0
M  V30 2328 C 245.369 2.24257 -2.53957 0
M  V30 2329 C 243.928 2.77852 -2.5392 0
M  V30 2330 C 243.075 1.52517 -2.3159 0
M  V30 2331 H 246.026 0.443717 -1.52371 0
M  V30 2332 H 246.047 3.0646 -2.25528 0
M  V30 2333 H 245.559 1.71382 -3.4821 0
M  V30 2334 H 243.66 3.34786 -1.63551 0
M  V30 2335 H 243.773 3.25299 -3.51735 0
M  V30 2336 H 242.137 1.79915 -1.80285 0
M  V30 2337 H 242.92 1.01574 -3.27929 0
M  V30 2338 N 245.365 1.30045 0.890287 0
M  V30 2339 C 246.59 1.21598 1.68014 0
M  V30 2340 C 247.015 -0.218678 1.86825 0
M  V30 2341 O 246.373 -1.15756 1.39536 0
M  V30 2342 C 246.421 1.94434 3.03691 0
M  V30 2343 O 245.525 1.2678 3.92429 0
M  V30 2344 H 244.866 0.420856 0.513592 0
M  V30 2345 H 247.396 1.71775 1.11151 0
M  V30 2346 H 247.406 2.03251 3.5377 0
M  V30 2347 H 246.081 2.98777 2.89318 0
M  V30 2348 H 244.658 1.26282 3.50866 0
M  V30 2349 N 246.843 -1.10192 1.12674 0
M  V30 2350 C 248.254 -1.63707 0.897604 0
M  V30 2351 C 248.605 -1.87812 -0.567546 0
M  V30 2352 O 247.73 -1.62196 -1.43253 0
M  V30 2353 C 248.325 -2.974 1.62292 0
M  V30 2354 C 246.884 -3.47772 1.43986 0
M  V30 2355 C 246.031 -2.22332 1.65722 0
M  V30 2356 H 248.982 -0.936587 1.28116 0
M  V30 2357 H 249.003 -3.64986 1.07541 0
M  V30 2358 H 248.515 -2.79824 2.68924 0
M  V30 2359 H 246.616 -3.70487 0.396206 0
M  V30 2360 H 246.729 -4.25723 2.19765 0
M  V30 2361 H 245.093 -2.30599 1.08149 0
M  V30 2362 H 245.876 -2.07285 2.73657 0
M  V30 2363 N 248.321 -0.919034 -1.28029 0
M  V30 2364 C 249.732 -0.600735 -1.76771 0
M  V30 2365 C 250.083 0.884024 -1.75156 0
M  V30 2366 O 249.208 1.69163 -1.34956 0
M  V30 2367 C 249.803 -1.08372 -3.21 0
M  V30 2368 C 248.362 -0.816248 -3.67443 0
M  V30 2369 C 247.509 -1.24742 -2.47658 0
M  V30 2370 H 250.46 -1.09974 -1.14418 0
M  V30 2371 H 250.481 -0.427512 -3.78091 0
M  V30 2372 H 249.993 -2.16437 -3.22144 0
M  V30 2373 H 248.094 0.250968 -3.71754 0
M  V30 2374 H 248.207 -1.4277 -4.57333 0
M  V30 2375 H 246.571 -0.666083 -2.45836 0
M  V30 2376 H 247.354 -2.33653 -2.51518 0
M  V30 2377 N 249.799 1.42003 -0.683588 0
M  V30 2378 C 251.047 2.01015 -0.209101 0
M  V30 2379 C 251.368 1.54365 1.19149 0
M  V30 2380 O 250.638 0.769083 1.80172 0
M  V30 2381 H 249.218 0.743294 -0.074315 0
M  V30 2382 H 251.88 1.73798 -0.882066 0
M  V30 2383 H 250.976 3.11343 -0.2172 0
M  V30 2384 N 251.277 0.427512 1.51691 0
M  V30 2385 C 252.525 -0.141948 2.01601 0
M  V30 2386 C 252.846 -1.44067 1.31414 0
M  V30 2387 O 252.116 -1.90763 0.445658 0
M  V30 2388 H 250.696 -0.0554468 0.744939 0
M  V30 2389 H 253.358 0.567968 1.86441 0
M  V30 2390 H 252.454 -0.324913 3.10404 0
M  V30 2391 N 252.755 -1.56801 0.158532 0
M  V30 2392 C 254.002 -1.9649 -0.489679 0
M  V30 2393 C 254.33 -1.04394 -1.6411 0
M  V30 2394 O 253.585 -0.0754401 -1.95555 0
M  V30 2395 C 253.884 -3.4235 -1.02623 0
M  V30 2396 C 253.55 -4.50899 0.00794526 0
M  V30 2397 C 252.212 -4.80312 0.292207 0
M  V30 2398 C 254.564 -5.16333 0.710584 0
M  V30 2399 C 251.892 -5.72461 1.28472 0
M  V30 2400 C 254.244 -6.09553 1.69199 0
M  V30 2401 C 252.908 -6.37339 1.98383 0
M  V30 2402 H 252.178 -0.719009 -0.179186 0
M  V30 2403 H 254.825 -1.8989 0.247798 0
M  V30 2404 H 253.13 -3.45838 -1.84128 0
M  V30 2405 H 254.827 -3.70393 -1.53656 0
M  V30 2406 H 251.417 -4.28015 -0.22379 0
M  V30 2407 H 255.601 -4.93732 0.504174 0
M  V30 2408 H 250.857 -5.92278 1.51714 0
M  V30 2409 H 255.031 -6.59327 2.24189 0
M  V30 2410 H 252.658 -7.08546 2.7544 0
M  V30 2411 N 254.233 0.115231 -1.57178 0
M  V30 2412 C 255.458 0.840354 -1.89612 0
M  V30 2413 C 255.883 1.72464 -0.750845 0
M  V30 2414 O 255.241 1.78826 0.298478 0
M  V30 2415 C 255.289 1.64654 -3.20814 0
M  V30 2416 O 254.393 2.7538 -3.06985 0
M  V30 2417 H 253.734 0.232158 -0.622092 0
M  V30 2418 H 256.264 0.0964977 -2.04372 0
M  V30 2419 H 256.274 2.03499 -3.53627 0
M  V30 2420 H 254.949 0.997416 -4.03763 0
M  V30 2421 H 253.526 2.3971 -2.85646 0
M  V30 2422 N 255.711 1.52812 0.385517 0
M  V30 2423 C 256.939 1.71907 1.15133 0
M  V30 2424 C 257.354 0.439004 1.83625 0
M  V30 2425 O 256.711 -0.586765 1.7281 0
M  V30 2426 C 256.762 2.87099 2.19673 0
M  V30 2427 O 256.483 4.10151 1.53973 0
M  V30 2428 C 257.984 3.17902 3.08955 0
M  V30 2429 H 255.204 0.575479 0.345057 0
M  V30 2430 H 257.748 1.99476 0.45052 0
M  V30 2431 H 255.903 2.61982 2.85384 0
M  V30 2432 H 256.317 4.74514 2.23465 0
M  V30 2433 H 257.791 4.01959 3.7833 0
M  V30 2434 H 258.268 2.3243 3.72657 0
M  V30 2435 H 258.874 3.44871 2.48885 0
M  V30 2436 N 257.189 -0.644168 1.43834 0
M  V30 2437 C 258.437 -1.40117 1.45642 0
M  V30 2438 C 258.758 -1.94814 0.0852413 0
M  V30 2439 O 258.028 -1.74988 -0.880688 0
M  V30 2440 H 256.608 -0.52005 0.536243 0
M  V30 2441 H 259.27 -0.7591 1.7951 0
M  V30 2442 H 258.366 -2.23902 2.17427 0
M  V30 2443 N 258.668 -1.30515 -0.883378 0
M  V30 2444 C 259.893 -1.22487 -1.67367 0
M  V30 2445 C 260.318 0.208767 -1.86938 0
M  V30 2446 O 259.676 1.15015 -1.40148 0
M  V30 2447 C 259.724 -1.96041 -3.02655 0
M  V30 2448 O 258.828 -1.28859 -3.91751 0
M  V30 2449 H 258.169 -0.423573 -0.511353 0
M  V30 2450 H 260.699 -1.72362 -1.10239 0
M  V30 2451 H 260.709 -2.05124 -3.52687 0
M  V30 2452 H 259.384 -3.00307 -2.8773 0
M  V30 2453 H 257.961 -1.28141 -3.50192 0
M  V30 2454 N 260.146 1.09593 -1.13257 0
M  V30 2455 C 261.557 1.63229 -0.906274 0
M  V30 2456 C 261.908 1.8811 0.557578 0
M  V30 2457 O 261.033 1.62953 1.42391 0
M  V30 2458 C 261.628 2.96535 -1.63867 0
M  V30 2459 C 260.187 3.47003 -1.45828 0
M  V30 2460 C 259.334 2.2145 -1.66898 0
M  V30 2461 H 262.285 0.92978 -1.28611 0
M  V30 2462 H 262.306 3.64411 -1.09476 0
M  V30 2463 H 261.818 2.78394 -2.70404 0
M  V30 2464 H 259.919 3.70272 -0.415848 0
M  V30 2465 H 260.032 4.24551 -2.2202 0
M  V30 2466 H 258.396 2.30022 -1.09371 0
M  V30 2467 H 259.179 2.0583 -2.74752 0
M  V30 2468 N 261.624 0.925811 1.2754 0
M  V30 2469 C 263.035 0.610102 1.7645 0
M  V30 2470 C 263.386 -0.874723 1.75622 0
M  V30 2471 O 262.511 -1.68444 1.35851 0
M  V30 2472 C 263.106 1.10073 3.20421 0
M  V30 2473 C 261.665 0.835723 3.67005 0
M  V30 2474 C 260.812 1.26054 2.46993 0
M  V30 2475 H 263.763 1.10579 1.13833 0
M  V30 2476 H 263.784 0.447557 3.77859 0
M  V30 2477 H 263.296 2.18143 3.20991 0
M  V30 2478 H 261.397 -0.231249 3.71882 0
M  V30 2479 H 261.51 1.45193 4.56569 0
M  V30 2480 H 259.874 0.679111 2.45479 0
M  V30 2481 H 260.657 2.34984 2.50275 0
M  V30 2482 N 263.102 -1.41638 0.69111 0
M  V30 2483 C 264.35 -2.00902 0.219758 0
M  V30 2484 C 264.671 -1.54994 -1.18329 0
M  V30 2485 O 263.941 -0.778628 -1.79762 0
M  V30 2486 H 262.521 -0.74289 0.0782558 0
M  V30 2487 H 265.183 -1.73327 0.891271 0
M  V30 2488 H 264.279 -3.11224 0.233708 0
M  V30 2489 N 264.58 -0.43555 -1.51462 0
M  V30 2490 C 265.528 0.391205 -2.29287 0
M  V30 2491 C 266.522 1.02247 -1.35062 0
M  V30 2492 O 267.728 0.957646 -1.52411 0
M  V30 2493 H 264.103 0.144968 -0.737895 0
M  V30 2494 H 266.074 -0.286051 -2.97026 0
M  V30 2495 C 264.823 1.48096 -3.14583 0
M  V30 2496 H 264.146 1.00457 -3.86973 0
M  V30 2497 H 265.586 2.03273 -3.72097 0
M  V30 2498 C 264.045 2.46321 -2.29843 0
M  V30 2499 O 264.575 3.50815 -1.95682 0
M  V30 2500 N 262.781 2.17166 -1.931 0
M  V30 2501 H 262.328 1.32218 -2.21079 0
M  V30 2502 H 262.286 2.83127 -1.36698 0
M  V30 2503 N 266.058 1.56714 -0.166846 0
M  V30 2504 C 267.286 2.0112 0.485644 0
M  V30 2505 C 267.701 1.04705 1.57106 0
M  V30 2506 O 267.058 0.0471923 1.82439 0
M  V30 2507 C 267.109 3.45361 1.06808 0
M  V30 2508 O 266.83 4.38092 0.0259995 0
M  V30 2509 C 268.331 4.05145 1.79924 0
M  V30 2510 H 265.551 0.65931 0.124704 0
M  V30 2511 H 268.095 2.02746 -0.267262 0
M  V30 2512 H 266.25 3.44524 1.7715 0
M  V30 2513 H 266.664 5.22519 0.455398 0
M  V30 2514 H 268.138 5.08009 2.15942 0
M  V30 2515 H 268.615 3.46982 2.69258 0
M  V30 2516 H 269.221 4.09672 1.14234 0
M  V30 2517 N 267.536 -0.106894 1.57237 0
M  V30 2518 C 268.468 -1.15646 1.97885 0
M  V30 2519 C 269.481 -1.36981 0.879779 0
M  V30 2520 O 270.67 -1.35841 1.15799 0
M  V30 2521 C 267.77 -2.51425 2.27241 0
M  V30 2522 C 266.943 -2.50529 3.58545 0
M  V30 2523 C 266.002 -3.68145 3.75973 0
M  V30 2524 O 265.028 -3.51176 4.47956 0
M  V30 2525 N 266.23 -4.87177 3.15656 0
M  V30 2526 H 268.995 -0.81059 2.8853 0
M  V30 2527 H 266.556 -0.296024 1.59171 0
M  V30 2528 H 268.548 -3.28689 2.36105 0
M  V30 2529 H 267.118 -2.78147 1.42663 0
M  V30 2530 H 266.338 -1.58894 3.60758 0
M  V30 2531 H 267.626 -2.46997 4.44826 0
M  V30 2532 H 267.024 -5.03868 2.57165 0
M  V30 2533 H 265.581 -5.62075 3.30023 0
M  V30 2534 N 269.014 -1.53014 -0.377408 0
M  V30 2535 C 269.946 -1.74884 -1.48149 0
M  V30 2536 C 270.959 -0.629433 -1.5014 0
M  V30 2537 O 272.148 -0.905416 -1.53833 0
M  V30 2538 C 269.248 -1.80299 -2.86959 0
M  V30 2539 C 268.421 -3.09776 -3.08801 0
M  V30 2540 C 267.48 -3.06586 -4.27658 0
M  V30 2541 O 266.506 -3.80419 -4.23403 0
M  V30 2542 N 267.708 -2.26578 -5.34455 0
M  V30 2543 H 270.473 -2.70147 -1.29771 0
M  V30 2544 H 268.034 -1.51646 -0.56703 0
M  V30 2545 H 270.026 -1.75657 -3.64591 0
M  V30 2546 H 268.596 -0.92372 -2.98641 0
M  V30 2547 H 267.816 -3.27815 -2.18931 0
M  V30 2548 H 269.104 -3.95366 -3.20255 0
M  V30 2549 H 268.502 -1.66081 -5.40771 0
M  V30 2550 H 267.059 -2.27766 -6.10709 0
M  V30 2551 N 270.492 0.636531 -1.44174 0
M  V30 2552 C 271.903 1.21806 -1.41493 0
M  V30 2553 C 272.254 1.95785 -0.1275 0
M  V30 2554 O 271.379 2.02147 0.772376 0
M  V30 2555 C 271.974 2.21551 -2.56321 0
M  V30 2556 C 270.533 2.75143 -2.56853 0
M  V30 2557 C 269.68 1.50052 -2.33195 0
M  V30 2558 H 272.631 0.427531 -1.52833 0
M  V30 2559 H 272.652 3.0405 -2.28765 0
M  V30 2560 H 272.164 1.67679 -3.50008 0
M  V30 2561 H 270.265 3.33033 -1.67093 0
M  V30 2562 H 270.378 3.2155 -3.55165 0
M  V30 2563 H 268.742 1.77993 -1.82183 0
M  V30 2564 H 269.525 0.980903 -3.28988 0
M  V30 2565 N 271.97 1.30982 0.876444 0
M  V30 2566 C 272.9 1.20668 1.99903 0
M  V30 2567 C 273.881 0.095354 1.69833 0
M  V30 2568 O 275.066 0.27885 1.92188 0
M  V30 2569 C 272.196 0.90655 3.3526 0
M  V30 2570 C 271.15 1.97675 3.79617 0
M  V30 2571 C 270.476 1.52943 5.1236 0
M  V30 2572 C 271.776 3.389 3.97422 0
M  V30 2573 H 273.47 2.14586 2.0879 0
M  V30 2574 H 271.016 1.03308 1.00317 0
M  V30 2575 H 272.969 0.821025 4.13324 0
M  V30 2576 H 271.693 -0.0682969 3.26529 0
M  V30 2577 H 270.352 2.05205 3.03787 0
M  V30 2578 H 270 0.54262 5.00065 0
M  V30 2579 H 269.7 2.24532 5.43009 0
M  V30 2580 H 271.224 1.45786 5.92941 0
M  V30 2581 H 272.638 3.34081 4.659 0
M  V30 2582 H 271.035 4.0865 4.3946 0
M  V30 2583 H 272.105 3.80163 3.01006 0
M  V30 2584 N 273.449 -1.08991 1.13837 0
M  V30 2585 C 274.86 -1.62746 0.914917 0
M  V30 2586 C 275.211 -1.88403 -0.547594 0
M  V30 2587 O 274.336 -1.63706 -1.41525 0
M  V30 2588 C 274.931 -2.95662 1.65437 0
M  V30 2589 C 273.49 -3.46225 1.47666 0
M  V30 2590 C 272.637 -2.20562 1.6807 0
M  V30 2591 H 275.588 -0.922946 1.29102 0
M  V30 2592 H 275.609 -3.63825 1.11407 0
M  V30 2593 H 275.121 -2.76956 2.71877 0
M  V30 2594 H 273.222 -3.70046 0.435478 0
M  V30 2595 H 273.335 -4.23368 2.24268 0
M  V30 2596 H 271.699 -2.29439 1.10589 0
M  V30 2597 H 272.482 -2.0437 2.7584 0
M  V30 2598 N 274.927 -0.932562 -1.27047 0
M  V30 2599 C 276.175 -0.574422 -1.93765 0
M  V30 2600 C 276.496 0.887993 -1.73608 0
M  V30 2601 O 275.766 1.62999 -1.08665 0
M  V30 2602 H 274.346 -0.209451 -0.717035 0
M  V30 2603 H 277.008 -1.18601 -1.5466 0
M  V30 2604 H 276.104 -0.784841 -3.02071 0
M  V30 2605 N 276.405 1.4127 -0.698611 0
M  V30 2606 C 277.335 2.33447 -0.049629 0
M  V30 2607 C 278.316 1.51982 0.763898 0
M  V30 2608 O 279.501 1.80509 0.716257 0
M  V30 2609 C 276.631 3.35828 0.885267 0
M  V30 2610 C 275.585 4.27627 0.178613 0
M  V30 2611 C 274.911 5.20406 1.22807 0
M  V30 2612 C 276.211 5.13459 -0.956933 0
M  V30 2613 H 277.905 2.87966 -0.81951 0
M  V30 2614 H 275.451 1.38461 -0.395538 0
M  V30 2615 H 277.404 3.9924 1.34854 0
M  V30 2616 H 276.128 2.79666 1.68685 0
M  V30 2617 H 274.787 3.65643 -0.26466 0
M  V30 2618 H 274.435 4.60558 2.02226 0
M  V30 2619 H 274.135 5.82661 0.760239 0
M  V30 2620 H 275.659 5.86695 1.69179 0
M  V30 2621 H 277.073 5.70421 -0.573805 0
M  V30 2622 H 275.47 5.8467 -1.35205 0
M  V30 2623 H 276.54 4.50443 -1.79524 0
M  V30 2624 N 277.883 0.443576 1.51229 0
M  V30 2625 C 279.294 -0.0180867 1.86691 0
M  V30 2626 C 279.645 -1.41384 1.36033 0
M  V30 2627 O 278.77 -2.04291 0.713722 0
M  V30 2628 C 279.365 -0.039597 3.38777 0
M  V30 2629 C 277.924 -0.445692 3.73752 0
M  V30 2630 C 277.071 0.357584 2.74985 0
M  V30 2631 H 280.022 0.659138 1.44364 0
M  V30 2632 H 280.043 -0.847761 3.70936 0
M  V30 2633 H 279.555 0.976382 3.75617 0
M  V30 2634 H 277.656 -1.46704 3.42503 0
M  V30 2635 H 277.769 -0.166155 4.78812 0
M  V30 2636 H 276.133 -0.184973 2.54027 0
M  V30 2637 H 276.916 1.37256 3.14668 0
M  V30 2638 N 279.361 -1.56624 0.175154 0
M  V30 2639 C 280.291 -2.21155 -0.749195 0
M  V30 2640 C 281.272 -1.16836 -1.23626 0
M  V30 2641 O 282.457 -1.45277 -1.28873 0
M  V30 2642 C 279.587 -2.8553 -1.97711 0
M  V30 2643 C 278.541 -3.95921 -1.62575 0
M  V30 2644 C 277.867 -4.47365 -2.92864 0
M  V30 2645 C 279.167 -5.15323 -0.850838 0
M  V30 2646 H 280.861 -2.98653 -0.211295 0
M  V30 2647 H 278.407 -1.43651 -0.100188 0
M  V30 2648 H 280.36 -3.2935 -2.62881 0
M  V30 2649 H 279.084 -2.05406 -2.53921 0
M  V30 2650 H 277.743 -3.52762 -0.997719 0
M  V30 2651 H 277.391 -3.64027 -3.47122 0
M  V30 2652 H 277.091 -5.21839 -2.70106 0
M  V30 2653 H 278.615 -4.93873 -3.59056 0
M  V30 2654 H 280.029 -5.55812 -1.40521 0
M  V30 2655 H 278.426 -5.95739 -0.722154 0
M  V30 2656 H 279.496 -4.84661 0.152082 0
M  V30 2657 N 280.839 0.0985539 -1.57292 0
M  V30 2658 C 281.802 1.10402 -2.00858 0
M  V30 2659 C 282.802 1.33146 -0.901593 0
M  V30 2660 O 283.992 1.29318 -1.16716 0
M  V30 2661 C 281.124 2.45394 -2.36632 0
M  V30 2662 H 282.317 0.729099 -2.90902 0
M  V30 2663 H 279.87 0.343495 -1.52479 0
M  V30 2664 H 280.605 2.87769 -1.49531 0
M  V30 2665 H 280.39 2.30235 -3.17387 0
M  V30 2666 H 281.88 3.17718 -2.71007 0
M  V30 2667 N 282.317 1.53212 0.369288 0
M  V30 2668 C 283.542 1.73423 1.1375 0
M  V30 2669 C 283.967 0.460404 1.82378 0
M  V30 2670 O 283.325 -0.585298 1.71592 0
M  V30 2671 C 283.373 2.89769 2.1463 0
M  V30 2672 O 282.477 2.58119 3.21634 0
M  V30 2673 H 281.818 0.576061 0.330227 0
M  V30 2674 H 284.348 2.00083 0.427547 0
M  V30 2675 H 284.358 3.15829 2.58294 0
M  V30 2676 H 283.033 3.8217 1.64071 0
M  V30 2677 H 281.61 2.42864 2.82969 0
M  V30 2678 N 283.795 -0.628877 1.44509 0
M  V30 2679 C 285.206 -1.21054 1.42137 0
M  V30 2680 C 285.557 -1.95715 0.137881 0
M  V30 2681 O 284.682 -2.02554 -0.761645 0
M  V30 2682 C 285.277 -2.20189 2.57493 0
M  V30 2683 C 283.836 -2.73777 2.58308 0
M  V30 2684 C 282.983 -1.48813 2.33987 0
M  V30 2685 H 285.934 -0.41942 1.53057 0
M  V30 2686 H 285.955 -3.02833 2.30375 0
M  V30 2687 H 285.467 -1.6582 3.50892 0
M  V30 2688 H 283.568 -3.32142 1.68856 0
M  V30 2689 H 283.681 -3.19662 3.56865 0
M  V30 2690 H 282.045 -1.77024 1.83124 0
M  V30 2691 H 282.828 -0.963442 3.29504 0
M  V30 2692 N 285.273 -1.31445 -0.869486 0
M  V30 2693 C 286.684 -1.19042 -1.43826 0
M  V30 2694 C 287.035 0.202919 -1.95148 0
M  V30 2695 O 286.16 1.10071 -1.86315 0
M  V30 2696 C 286.755 -2.15499 -2.6143 0
M  V30 2697 C 285.314 -2.07028 -3.14351 0
M  V30 2698 C 284.461 -2.04701 -1.87063 0
M  V30 2699 H 287.412 -1.43489 -0.677984 0
M  V30 2700 H 287.433 -1.74488 -3.38134 0
M  V30 2701 H 286.945 -3.16899 -2.24046 0
M  V30 2702 H 285.046 -1.08825 -3.56354 0
M  V30 2703 H 285.159 -2.96157 -3.766 0
M  V30 2704 H 283.523 -1.49724 -2.06046 0
M  V30 2705 H 284.306 -3.07857 -1.51917 0
M  V30 2706 N 286.751 1.08385 -1.14413 0
M  V30 2707 C 287.999 1.80419 -0.910679 0
M  V30 2708 C 288.32 1.86658 0.564243 0
M  V30 2709 O 287.59 1.35985 1.41014 0
M  V30 2710 H 286.17 0.668204 -0.333934 0
M  V30 2711 H 288.832 1.31037 -1.44275 0
M  V30 2712 H 287.928 2.83238 -1.31082 0
M  V30 2713 N 288.23 0.939286 1.26551 0
M  V30 2714 C 289.476 0.586715 1.94128 0
M  V30 2715 C 289.809 -0.8717 1.73537 0
M  V30 2716 O 289.084 -1.62339 1.07127 0
M  V30 2717 C 289.367 0.927497 3.4795 0
M  V30 2718 C 289.22 2.44052 3.77834 0
M  V30 2719 C 290.539 0.441569 4.37879 0
M  V30 2720 H 287.658 0.21463 0.705055 0
M  V30 2721 H 290.3 1.17316 1.49455 0
M  V30 2722 H 288.45 0.428431 3.8613 0
M  V30 2723 H 290.122 3.01216 3.4938 0
M  V30 2724 H 288.365 2.8848 3.23978 0
M  V30 2725 H 289.036 2.62947 4.85348 0
M  V30 2726 H 291.512 0.869448 4.06915 0
M  V30 2727 H 290.388 0.708856 5.44304 0
M  V30 2728 H 290.649 -0.658467 4.37169 0
M  V30 2729 N 289.708 -1.40897 0.706093 0
M  V30 2730 C 291.119 -1.84023 0.315052 0
M  V30 2731 C 291.47 -1.5906 -1.14866 0
M  V30 2732 O 290.595 -1.06651 -1.88293 0
M  V30 2733 C 291.19 -3.34055 0.565038 0
M  V30 2734 C 289.749 -3.7571 0.227806 0
M  V30 2735 C 288.896 -2.64204 0.842122 0
M  V30 2736 H 291.847 -1.303 0.905963 0
M  V30 2737 H 291.868 -3.80107 -0.172843 0
M  V30 2738 H 291.38 -3.52192 1.63042 0
M  V30 2739 H 289.481 -3.63172 -0.832895 0
M  V30 2740 H 289.594 -4.74103 0.690174 0
M  V30 2741 H 287.958 -2.53255 0.270893 0
M  V30 2742 H 288.741 -2.85155 1.91158 0
M  V30 2743 N 291.186 -0.45159 -1.50991 0
M  V30 2744 C 292.597 0.00818571 -1.86698 0
M  V30 2745 C 292.948 1.40661 -1.3678 0
M  V30 2746 O 292.073 2.0391 -0.724546 0
M  V30 2747 C 292.668 0.0216303 -3.38793 0
M  V30 2748 C 291.227 0.425865 -3.73983 0
M  V30 2749 C 290.374 -0.372163 -2.74791 0
M  V30 2750 H 293.325 -0.666785 -1.44013 0
M  V30 2751 H 293.346 0.828078 -3.7138 0
M  V30 2752 H 292.858 -0.996288 -3.75094 0
M  V30 2753 H 290.959 1.44886 -3.43277 0
M  V30 2754 H 291.072 0.140761 -4.78893 0
M  V30 2755 H 289.436 0.171498 -2.54122 0
M  V30 2756 H 290.219 -1.38922 -3.13935 0
M  V30 2757 N 292.664 1.56529 -0.183458 0
M  V30 2758 C 293.91 1.97537 0.459036 0
M  V30 2759 C 294.243 1.06989 1.62071 0
M  V30 2760 O 293.518 0.11948 1.94133 0
M  V30 2761 C 293.801 3.47874 0.930368 0
M  V30 2762 C 293.654 4.492 -0.232317 0
M  V30 2763 C 294.973 4.01612 1.79989 0
M  V30 2764 H 292.092 0.718204 0.165383 0
M  V30 2765 H 294.734 1.88042 -0.272038 0
M  V30 2766 H 292.884 3.56095 1.55333 0
M  V30 2767 H 294.556 4.53027 -0.86972 0
M  V30 2768 H 292.799 4.24657 -0.885928 0
M  V30 2769 H 293.47 5.51823 0.139796 0
M  V30 2770 H 295.946 3.96097 1.27461 0
M  V30 2771 H 294.822 5.07195 2.09867 0
M  V30 2772 H 295.083 3.46163 2.74998 0
M  V30 2773 N 294.142 -0.090211 1.57342 0
M  V30 2774 C 295.367 -0.810082 1.90925 0
M  V30 2775 C 295.792 -1.71248 0.778187 0
M  V30 2776 O 295.15 -1.79278 -0.269991 0
M  V30 2777 C 295.198 -1.59529 3.23393 0
M  V30 2778 O 294.302 -2.70461 3.11327 0
M  V30 2779 H 293.643 -0.222231 0.625707 0
M  V30 2780 H 296.173 -0.0639716 2.045 0
M  V30 2781 H 296.183 -1.97847 3.5682 0
M  V30 2782 H 294.858 -0.933055 4.05299 0
M  V30 2783 H 293.435 -2.35135 2.89423 0
M  V30 2784 N 295.62 -1.53406 -0.361157 0
M  V30 2785 C 296.55 -1.83136 -1.44857 0
M  V30 2786 C 297.531 -0.685174 -1.5569 0
M  V30 2787 O 298.716 -0.93544 -1.70186 0
M  V30 2788 C 295.846 -2.02522 -2.82138 0
M  V30 2789 C 294.8 -3.18302 -2.86126 0
M  V30 2790 C 294.126 -3.22989 -4.26125 0
M  V30 2791 C 295.426 -4.56796 -2.53248 0
M  V30 2792 H 297.12 -2.74201 -1.20226 0
M  V30 2793 H 294.666 -1.31938 -0.576922 0
M  V30 2794 H 296.619 -2.21904 -3.58241 0
M  V30 2795 H 295.343 -1.08172 -3.08166 0
M  V30 2796 H 294.002 -2.98747 -2.12475 0
M  V30 2797 H 293.65 -2.26267 -4.49235 0
M  V30 2798 H 293.35 -4.00781 -4.29708 0
M  V30 2799 H 294.874 -3.44559 -5.04094 0
M  V30 2800 H 296.288 -4.7631 -3.19064 0
M  V30 2801 H 294.685 -5.36862 -2.68141 0
M  V30 2802 H 295.755 -4.61606 -1.48484 0
M  V30 2803 N 297.098 0.621204 -1.44841 0
M  V30 2804 C 298.048 1.72663 -1.48901 0
M  V30 2805 C 299.032 1.56964 -0.353702 0
M  V30 2806 O 300.224 1.66532 -0.599669 0
M  V30 2807 C 297.353 3.11381 -1.44557 0
M  V30 2808 C 296.439 3.32514 -2.6324 0
M  V30 2809 N 296.83 3.23969 -3.8843 0
M  V30 2810 C 295.128 3.63343 -2.58647 0
M  V30 2811 C 295.829 3.46062 -4.67564 0
M  V30 2812 N 294.805 3.69407 -3.98797 0
M  V30 2813 H 298.607 1.64529 -2.43531 0
M  V30 2814 H 296.121 0.82401 -1.39942 0
M  V30 2815 H 298.118 3.90667 -1.4555 0
M  V30 2816 H 296.778 3.20674 -0.509731 0
M  V30 2817 H 297.789 3.02669 -4.20252 0
M  V30 2818 H 294.466 3.79556 -1.73906 0
M  V30 2819 H 295.856 3.44963 -5.76585 0
M  V30 2820 N 298.576 1.31904 0.862503 0
M  V30 2821 C 299.804 1.24998 1.64873 0
M  V30 2822 C 300.219 -0.183425 1.87907 0
M  V30 2823 O 299.576 -1.11794 1.44251 0
M  V30 2824 C 299.627 1.99829 3.01248 0
M  V30 2825 O 299.348 3.37575 2.79239 0
M  V30 2826 C 300.849 1.99852 3.95694 0
M  V30 2827 H 298.069 0.431599 0.513773 0
M  V30 2828 H 300.613 1.73901 1.07604 0
M  V30 2829 H 298.768 1.54668 3.55185 0
M  V30 2830 H 299.182 3.75776 3.65914 0
M  V30 2831 H 300.656 2.56709 4.88676 0
M  V30 2832 H 301.133 0.982852 4.28062 0
M  V30 2833 H 301.739 2.44926 3.47694 0
M  V30 2834 N 300.054 -1.07777 1.14986 0
M  V30 2835 C 300.986 -2.14769 0.800436 0
M  V30 2836 C 301.999 -1.61739 -0.185595 0
M  V30 2837 O 303.188 -1.78462 0.0370358 0
M  V30 2838 C 300.288 -3.38481 0.168533 0
M  V30 2839 C 299.461 -4.20876 1.1909 0
M  V30 2840 C 298.52 -5.22976 0.581575 0
M  V30 2841 O 297.546 -5.55388 1.24633 0
M  V30 2842 N 298.748 -5.76976 -0.638706 0
M  V30 2843 H 301.513 -2.45348 1.72118 0
M  V30 2844 H 299.074 -1.23645 1.04515 0
M  V30 2845 H 301.066 -4.03916 -0.251764 0
M  V30 2846 H 299.636 -3.05651 -0.655467 0
M  V30 2847 H 298.856 -3.51322 1.78791 0
M  V30 2848 H 300.144 -4.7274 1.88133 0
M  V30 2849 H 299.542 -5.52886 -1.19723 0
M  V30 2850 H 298.099 -6.44061 -1.00142 0
M  V30 2851 N 301.532 -0.945985 -1.26051 0
M  V30 2852 C 302.778 -0.597002 -1.93814 0
M  V30 2853 C 303.111 0.862484 -1.73997 0
M  V30 2854 O 302.386 1.61769 -1.07986 0
M  V30 2855 C 302.669 -0.945937 -3.47454 0
M  V30 2856 C 302.522 -2.46052 -3.76535 0
M  V30 2857 C 303.841 -0.464785 -4.37639 0
M  V30 2858 H 300.96 -0.218366 -0.703907 0
M  V30 2859 H 303.602 -1.18107 -1.48831 0
M  V30 2860 H 301.752 -0.448902 -3.85898 0
M  V30 2861 H 303.424 -3.03065 -3.47778 0
M  V30 2862 H 301.667 -2.90194 -3.22444 0
M  V30 2863 H 302.338 -2.65517 -4.83947 0
M  V30 2864 H 304.814 -0.891016 -4.06448 0
M  V30 2865 H 303.69 -0.737712 -5.4392 0
M  V30 2866 H 303.951 0.635274 -4.37512 0
M  V30 2867 N 303.011 1.40521 -0.713556 0
M  V30 2868 C 303.943 2.29191 -0.0203126 0
M  V30 2869 C 304.956 1.45723 0.725864 0
M  V30 2870 O 306.145 1.69033 0.573581 0
M  V30 2871 C 303.245 3.2395 0.995486 0
M  V30 2872 C 302.418 4.36262 0.315256 0
M  V30 2873 C 301.477 5.11474 1.23616 0
M  V30 2874 O 300.503 5.64606 0.721719 0
M  V30 2875 N 301.705 5.20638 2.56743 0
M  V30 2876 H 304.47 2.89327 -0.781652 0
M  V30 2877 H 302.031 1.51869 -0.561022 0
M  V30 2878 H 304.023 3.71137 1.61368 0
M  V30 2879 H 302.593 2.64995 1.6582 0
M  V30 2880 H 301.813 3.91228 -0.483106 0
M  V30 2881 H 303.101 5.08558 -0.157004 0
M  V30 2882 H 302.499 4.7895 3.01037 0
M  V30 2883 H 301.056 5.71339 3.13712 0
M  V30 2884 N 304.489 0.459591 1.5075 0
M  V30 2885 C 305.714 -0.0996819 2.0716 0
M  V30 2886 C 306.139 -1.33761 1.32249 0
M  V30 2887 O 305.497 -1.77551 0.366786 0
M  V30 2888 C 305.545 -0.378226 3.58611 0
M  V30 2889 O 304.649 -1.46081 3.85661 0
M  V30 2890 H 303.99 0.00791392 0.663953 0
M  V30 2891 H 306.52 0.647329 1.9409 0
M  V30 2892 H 306.53 -0.622135 4.03229 0
M  V30 2893 H 305.205 0.526439 4.12555 0
M  V30 2894 H 303.782 -1.20511 3.5289 0
M  V30 2895 N 305.967 -1.56429 0.191757 0
M  V30 2896 C 307.213 -1.97777 -0.448554 0
M  V30 2897 C 307.546 -1.07847 -1.61501 0
M  V30 2898 O 306.821 -0.129774 -1.94067 0
M  V30 2899 C 307.104 -3.48362 -0.911906 0
M  V30 2900 C 306.957 -4.4907 0.256136 0
M  V30 2901 C 308.276 -4.02561 -1.77857 0
M  V30 2902 H 305.395 -0.719071 -0.161572 0
M  V30 2903 H 308.037 -1.87896 0.282007 0
M  V30 2904 H 306.187 -3.56914 -1.53442 0
M  V30 2905 H 307.859 -4.5256 0.893733 0
M  V30 2906 H 306.102 -4.24181 0.908436 0
M  V30 2907 H 306.773 -5.51889 -0.11053 0
M  V30 2908 H 309.249 -3.96767 -1.25359 0
M  V30 2909 H 308.125 -5.08301 -2.07174 0
M  V30 2910 H 308.386 -3.47616 -2.73158 0
M  V30 2911 N 307.445 0.0818655 -1.57387 0
M  V30 2912 C 308.691 0.784074 -1.8703 0
M  V30 2913 C 309.024 1.77729 -0.782689 0
M  V30 2914 O 308.299 1.93384 0.208051 0
M  V30 2915 C 308.582 1.50105 -3.27323 0
M  V30 2916 C 308.435 0.524925 -4.46727 0
M  V30 2917 C 309.754 2.44843 -3.65705 0
M  V30 2918 H 306.873 0.283582 -0.680257 0
M  V30 2919 H 309.515 0.0474352 -1.89941 0
M  V30 2920 H 307.665 2.12897 -3.24972 0
M  V30 2921 H 309.337 -0.0970111 -4.61198 0
M  V30 2922 H 307.58 -0.160606 -4.33503 0
M  V30 2923 H 308.251 1.064 -5.41648 0
M  V30 2924 H 310.727 1.92135 -3.69085 0
M  V30 2925 H 309.603 2.92018 -4.64776 0
M  V30 2926 H 309.864 3.29197 -2.95096 0
M  V30 2927 N 308.923 1.53595 0.353017 0
M  V30 2928 C 310.334 1.61937 0.929153 0
M  V30 2929 C 310.685 0.494686 1.89861 0
M  V30 2930 O 309.81 -0.377017 2.1309 0
M  V30 2931 C 310.405 2.93526 1.69199 0
M  V30 2932 C 308.964 3.04161 2.21727 0
M  V30 2933 C 308.111 2.57322 1.03348 0
M  V30 2934 H 311.062 1.58155 0.131431 0
M  V30 2935 H 311.083 2.82034 2.55416 0
M  V30 2936 H 310.595 3.75362 0.986144 0
M  V30 2937 H 308.696 2.26938 2.95516 0
M  V30 2938 H 308.809 4.09465 2.48748 0
M  V30 2939 H 307.173 2.12499 1.40414 0
M  V30 2940 H 307.956 3.41588 0.342428 0
M  V30 2941 N 310.401 -0.613514 1.45168 0
M  V30 2942 C 311.333 -1.73825 1.4939 0
M  V30 2943 C 312.346 -1.58175 0.385304 0
M  V30 2944 O 313.535 -1.66165 0.652036 0
M  V30 2945 C 310.635 -3.11758 1.32891 0
M  V30 2946 C 309.808 -3.53704 2.57317 0
M  V30 2947 C 308.867 -4.70579 2.35462 0
M  V30 2948 O 307.893 -4.77996 3.09044 0
M  V30 2949 N 309.095 -5.63454 1.39644 0
M  V30 2950 H 311.86 -1.70669 2.46358 0
M  V30 2951 H 309.421 -0.79862 1.40832 0
M  V30 2952 H 311.413 -3.87692 1.1609 0
M  V30 2953 H 309.983 -3.09456 0.442218 0
M  V30 2954 H 309.203 -2.67794 2.89275 0
M  V30 2955 H 310.491 -3.78486 3.40038 0
M  V30 2956 H 309.889 -5.6017 0.789062 0
M  V30 2957 H 308.446 -6.38944 1.28816 0
M  V30 2958 N 311.879 -1.3236 -0.855495 0
M  V30 2959 C 312.811 -1.17052 -1.97057 0
M  V30 2960 C 313.824 -0.10574 -1.62456 0
M  V30 2961 O 315.013 -0.354619 -1.74942 0
M  V30 2962 C 312.113 -0.769305 -3.30053 0
M  V30 2963 C 311.286 -1.9222 -3.929 0
M  V30 2964 C 310.345 -1.50466 -5.04228 0
M  V30 2965 O 309.371 -2.21655 -5.24269 0
M  V30 2966 N 310.573 -0.400209 -5.79119 0
M  V30 2967 H 313.338 -2.13103 -2.1073 0
M  V30 2968 H 310.899 -1.24885 -1.0303 0
M  V30 2969 H 312.891 -0.472407 -4.01933 0
M  V30 2970 H 311.461 0.100025 -3.1244 0
M  V30 2971 H 310.681 -2.38563 -3.13817 0
M  V30 2972 H 311.969 -2.69403 -4.31624 0
M  V30 2973 H 311.367 0.192319 -5.65373 0
M  V30 2974 H 309.924 -0.162912 -6.51596 0
M  V30 2975 N 313.357 1.07166 -1.15556 0
M  V30 2976 C 314.287 2.16403 -0.877046 0
M  V30 2977 C 315.268 1.69217 0.173111 0
M  V30 2978 O 316.453 1.94181 0.027084 0
M  V30 2979 C 313.583 3.45349 -0.367632 0
M  V30 2980 C 312.537 4.05995 -1.35468 0
M  V30 2981 C 311.863 5.30045 -0.704038 0
M  V30 2982 C 313.163 4.45804 -2.72132 0
M  V30 2983 H 314.857 2.39959 -1.79053 0
M  V30 2984 H 312.403 1.15325 -0.862331 0
M  V30 2985 H 314.356 4.21095 -0.160317 0
M  V30 2986 H 313.08 3.21385 0.581326 0
M  V30 2987 H 311.739 3.32296 -1.54839 0
M  V30 2988 H 311.387 5.02373 0.251128 0
M  V30 2989 H 311.087 5.71579 -1.36277 0
M  V30 2990 H 312.611 6.08495 -0.50654 0
M  V30 2991 H 314.025 5.12671 -2.56595 0
M  V30 2992 H 312.422 4.98296 -3.34397 0
M  V30 2993 H 313.492 3.57083 -3.28054 0
M  V30 2994 N 314.835 0.952656 1.25548 0
M  V30 2995 C 315.765 0.489287 2.28316 0
M  V30 2996 C 316.746 -0.463359 1.63667 0
M  V30 2997 O 317.931 -0.36274 1.90782 0
M  V30 2998 C 315.061 -0.235603 3.465 0
M  V30 2999 C 314.015 0.631593 4.23314 0
M  V30 3000 C 313.341 -0.223923 5.34231 0
M  V30 3001 C 314.641 1.90871 4.86174 0
M  V30 3002 H 316.335 1.34822 2.67326 0
M  V30 3003 H 313.881 0.649728 1.28509 0
M  V30 3004 H 315.834 -0.570882 4.17515 0
M  V30 3005 H 314.558 -1.12877 3.06474 0
M  V30 3006 H 313.217 0.949929 3.54079 0
M  V30 3007 H 312.865 -1.11678 4.90446 0
M  V30 3008 H 312.565 0.35299 5.86539 0
M  V30 3009 H 314.089 -0.554214 6.0808 0
M  V30 3010 H 315.503 1.63997 5.49343 0
M  V30 3011 H 313.9 2.43112 5.4865 0
M  V30 3012 H 314.97 2.61304 4.08471 0
M  V30 3013 N 316.313 -1.40141 0.720998 0
M  V30 3014 C 317.541 -2.05096 0.272656 0
M  V30 3015 C 317.956 -1.54334 -1.0875 0
M  V30 3016 O 317.313 -0.702211 -1.6845 0
M  V30 3017 C 317.364 -3.60636 0.249835 0
M  V30 3018 O 317.085 -4.09526 1.55629 0
M  V30 3019 C 318.586 -4.42772 -0.216396 0
M  V30 3020 H 315.806 -0.659897 0.121558 0
M  V30 3021 H 318.35 -1.79449 0.980723 0
M  V30 3022 H 316.505 -3.85232 -0.409237 0
M  V30 3023 H 316.919 -5.03758 1.4604 0
M  V30 3024 H 318.393 -5.51702 -0.181212 0
M  V30 3025 H 318.87 -4.20756 -1.25941 0
M  V30 3026 H 319.476 -4.23294 0.412596 0
M  V30 3027 N 317.792 -0.46758 -1.50504 0
M  V30 3028 C 319.038 0.0887532 -2.02606 0
M  V30 3029 C 319.371 1.39686 -1.34913 0
M  V30 3030 O 318.646 1.88644 -0.473694 0
M  V30 3031 C 318.929 0.276206 -3.59039 0
M  V30 3032 C 318.782 -1.05267 -4.37309 0
M  V30 3033 C 320.101 1.03235 -4.27821 0
M  V30 3034 H 317.22 0.0307814 -0.736357 0
M  V30 3035 H 319.862 -0.612485 -1.79857 0
M  V30 3036 H 318.012 0.8735 -3.78553 0
M  V30 3037 H 319.684 -1.68628 -4.29374 0
M  V30 3038 H 317.927 -1.65015 -4.01189 0
M  V30 3039 H 318.598 -0.875197 -5.45018 0
M  V30 3040 H 321.074 0.526111 -4.12761 0
M  V30 3041 H 319.95 1.1323 -5.37094 0
M  V30 3042 H 320.211 2.06806 -3.90748 0
M  V30 3043 N 319.27 1.56325 -0.20005 0
M  V30 3044 C 320.498 2.02105 0.442874 0
M  V30 3045 C 320.913 1.08014 1.5485 0
M  V30 3046 O 320.27 0.0858797 1.82298 0
M  V30 3047 C 320.321 3.47549 0.994583 0
M  V30 3048 O 320.042 4.38049 -0.0669322 0
M  V30 3049 C 321.543 4.0887 1.7129 0
M  V30 3050 H 318.763 0.661807 0.110691 0
M  V30 3051 H 321.307 2.02134 -0.310207 0
M  V30 3052 H 319.462 3.48204 1.69803 0
M  V30 3053 H 319.876 5.23368 0.344462 0
M  V30 3054 H 321.35 5.12475 2.05118 0
M  V30 3055 H 321.827 3.52615 2.61838 0
M  V30 3056 H 322.433 4.12002 1.05518 0
M  V30 3057 N 320.748 -0.0735177 1.57428 0
M  V30 3058 C 321.711 -1.07192 2.02589 0
M  V30 3059 C 322.711 -1.31695 0.922661 0
M  V30 3060 O 323.901 -1.27445 1.18758 0
M  V30 3061 C 321.033 -2.41599 2.40506 0
M  V30 3062 H 322.226 -0.682727 2.92025 0
M  V30 3063 H 319.779 -0.319193 1.53006 0
M  V30 3064 H 320.514 -2.85354 1.5409 0
M  V30 3065 H 320.299 -2.25156 3.21009 0
M  V30 3066 H 321.789 -3.13367 2.76027 0
M  V30 3067 N 322.226 -1.5378 -0.344866 0
M  V30 3068 C 323.189 -1.80981 -1.40637 0
M  V30 3069 C 324.189 -0.680816 -1.45676 0
M  V30 3070 O 325.379 -0.949095 -1.46075 0
M  V30 3071 C 322.511 -1.95063 -2.79577 0
M  V30 3072 H 323.704 -2.75803 -1.17783 0
M  V30 3073 H 321.257 -1.45173 -0.579181 0
M  V30 3074 H 321.992 -1.02379 -3.07716 0
M  V30 3075 H 321.777 -2.77198 -2.77315 0
M  V30 3076 H 323.267 -2.17629 -3.56409 0
M  V30 3077 N 323.704 0.605807 -1.45491 0
M  V30 3078 C 325.115 1.18777 -1.44045 0
M  V30 3079 C 325.466 1.95471 -0.169001 0
M  V30 3080 O 324.591 2.0374 0.729324 0
M  V30 3081 C 325.186 2.16064 -2.60963 0
M  V30 3082 C 323.745 2.69633 -2.62631 0
M  V30 3083 C 322.892 1.45072 -2.36325 0
M  V30 3084 H 325.843 0.395017 -1.53705 0
M  V30 3085 H 325.864 2.9913 -2.35163 0
M  V30 3086 H 325.376 1.60217 -3.53486 0
M  V30 3087 H 323.477 3.29414 -1.74119 0
M  V30 3088 H 323.59 3.13944 -3.61906 0
M  V30 3089 H 321.954 1.74089 -1.85917 0
M  V30 3090 H 322.737 0.910899 -3.30995 0
M  V30 3091 N 325.182 1.32811 0.848464 0
M  V30 3092 C 326.41 1.26739 1.63538 0
M  V30 3093 C 326.825 -0.163484 1.88091 0
M  V30 3094 O 326.182 -1.10258 1.45429 0
M  V30 3095 C 326.233 2.03013 2.99112 0
M  V30 3096 O 325.954 3.40518 2.75643 0
M  V30 3097 C 327.455 2.04038 3.93552 0
M  V30 3098 H 324.675 0.437024 0.509167 0
M  V30 3099 H 327.219 1.75033 1.05753 0
M  V30 3100 H 325.374 1.58426 3.53525 0
M  V30 3101 H 325.788 3.79635 3.61908 0
M  V30 3102 H 327.262 2.61877 4.85926 0
M  V30 3103 H 327.739 1.0282 4.26995 0
M  V30 3104 H 328.345 2.486 3.45077 0
M  V30 3105 N 326.66 -1.06551 1.16123 0
M  V30 3106 C 327.623 -2.12132 0.867906 0
M  V30 3107 C 328.623 -1.60224 -0.135944 0
M  V30 3108 O 329.813 -1.73943 0.0946422 0
M  V30 3109 C 326.945 -3.396 0.297419 0
M  V30 3110 H 328.138 -2.39586 1.80385 0
M  V30 3111 H 325.691 -1.22574 0.969812 0
M  V30 3112 H 326.426 -3.17794 -0.64633 0
M  V30 3113 H 326.211 -3.78581 1.02073 0
M  V30 3114 H 327.701 -4.17455 0.110052 0
M  V30 3115 N 328.138 -0.959301 -1.25041 0
M  V30 3116 C 329.101 -0.487677 -2.23952 0
M  V30 3117 C 330.101 0.41119 -1.55454 0
M  V30 3118 O 331.291 0.207825 -1.72956 0
M  V30 3119 C 328.423 0.294807 -3.39623 0
M  V30 3120 H 329.616 -1.36198 -2.67189 0
M  V30 3121 H 327.169 -0.743042 -1.37508 0
M  V30 3122 H 327.904 1.18658 -3.01813 0
M  V30 3123 H 327.689 -0.35012 -3.90534 0
M  V30 3124 H 329.179 0.614089 -4.1306 0
M  V30 3125 N 329.616 1.39756 -0.72842 0
M  V30 3126 C 331.027 1.83498 -0.344289 0
M  V30 3127 C 331.378 1.60868 1.12321 0
M  V30 3128 O 330.503 1.09634 1.86573 0
M  V30 3129 C 331.098 3.33114 -0.618112 0
M  V30 3130 C 329.657 3.753 -0.287549 0
M  V30 3131 C 328.804 2.62831 -0.884048 0
M  V30 3132 H 331.755 1.28842 -0.926578 0
M  V30 3133 H 331.776 3.80334 0.112349 0
M  V30 3134 H 331.288 3.49553 -1.68625 0
M  V30 3135 H 329.389 3.64451 0.775012 0
M  V30 3136 H 329.502 4.72945 -0.765512 0
M  V30 3137 H 327.866 2.52792 -0.311149 0
M  V30 3138 H 328.649 2.82078 -1.95671 0
M  V30 3139 N 331.094 0.475555 1.50254 0
M  V30 3140 C 332.34 -0.0780073 2.0265 0
M  V30 3141 C 332.673 -1.38968 1.35652 0
M  V30 3142 O 331.948 -1.8839 0.483691 0
M  V30 3143 C 332.231 -0.257161 3.59181 0
M  V30 3144 C 332.084 1.07585 4.36744 0
M  V30 3145 C 333.403 -1.00965 4.28362 0
M  V30 3146 H 330.522 -0.0268758 0.73651 0
M  V30 3147 H 333.164 0.622015 1.7953 0
M  V30 3148 H 331.314 -0.853412 3.79011 0
M  V30 3149 H 332.986 1.70902 4.28474 0
M  V30 3150 H 331.229 1.6714 4.00308 0
M  V30 3151 H 331.9 0.904088 5.44546 0
M  V30 3152 H 334.376 -0.504214 4.13034 0
M  V30 3153 H 333.252 -1.10381 5.37687 0
M  V30 3154 H 333.513 -2.04731 3.91839 0
M  V30 3155 N 332.573 -1.56217 0.208337 0
M  V30 3156 C 333.801 -2.02337 -0.43215 0
M  V30 3157 C 334.216 -1.08834 -1.54275 0
M  V30 3158 O 333.573 -0.0955462 -1.8225 0
M  V30 3159 C 333.624 -3.48072 -0.976138 0
M  V30 3160 O 333.345 -4.38007 0.0901621 0
M  V30 3161 C 334.846 -4.09773 -1.69119 0
M  V30 3162 H 332.066 -0.662385 -0.10718 0
M  V30 3163 H 334.61 -2.01966 0.320923 0
M  V30 3164 H 332.765 -3.49099 -1.67954 0
M  V30 3165 H 333.179 -5.23543 -0.316701 0
M  V30 3166 H 334.653 -5.13556 -2.02397 0
M  V30 3167 H 335.13 -3.53999 -2.59964 0
M  V30 3168 H 335.736 -4.12556 -1.03332 0
M  V30 3169 N 334.051 0.0651679 -1.57465 0
M  V30 3170 C 335.279 0.775808 -1.91804 0
M  V30 3171 C 335.694 1.70782 -0.804916 0
M  V30 3172 O 335.051 1.81153 0.221311 0
M  V30 3173 C 335.102 1.56381 -3.25925 0
M  V30 3174 O 334.823 0.669248 -4.32958 0
M  V30 3175 C 336.324 2.37485 -3.7432 0
M  V30 3176 H 333.544 0.2202 -0.63384 0
M  V30 3177 H 336.088 0.0334587 -2.04473 0
M  V30 3178 H 334.243 2.25837 -3.14764 0
M  V30 3179 H 334.657 1.21801 -5.10162 0
M  V30 3180 H 336.131 2.88223 -4.70778 0
M  V30 3181 H 336.608 3.17307 -3.03666 0
M  V30 3182 H 337.214 1.73173 -3.88447 0
M  V30 3183 N 335.529 1.53961 0.336706 0
M  V30 3184 C 336.757 1.75483 1.09605 0
M  V30 3185 C 337.172 0.4972 1.82136 0
M  V30 3186 O 336.529 -0.53149 1.74589 0
M  V30 3187 C 336.58 2.93943 2.10428 0
M  V30 3188 O 336.301 4.14842 1.40846 0
M  V30 3189 C 337.802 3.27571 2.98684 0
M  V30 3190 H 335.022 0.586166 0.326574 0
M  V30 3191 H 337.566 2.00808 0.38683 0
M  V30 3192 H 335.721 2.70929 2.76905 0
M  V30 3193 H 336.135 4.81383 2.08255 0
M  V30 3194 H 337.609 4.13791 3.6535 0
M  V30 3195 H 338.086 2.44168 3.65074 0
M  V30 3196 H 338.692 3.52615 2.37787 0
M  V30 3197 N 337.007 -0.598083 1.45811 0
M  V30 3198 C 338.253 -1.35882 1.50545 0
M  V30 3199 C 338.586 -1.93616 0.150445 0
M  V30 3200 O 337.861 -1.75604 -0.83628 0
M  V30 3201 C 338.144 -2.49966 2.59208 0
M  V30 3202 C 337.997 -1.97367 4.04186 0
M  V30 3203 C 339.316 -3.52068 2.64076 0
M  V30 3204 H 336.435 -0.492717 0.548087 0
M  V30 3205 H 339.077 -0.673319 1.77669 0
M  V30 3206 H 337.227 -3.08443 2.3621 0
M  V30 3207 H 338.899 -1.43466 4.38423 0
M  V30 3208 H 337.142 -1.283 4.14393 0
M  V30 3209 H 337.813 -2.79649 4.75921 0
M  V30 3210 H 340.289 -3.03448 2.84708 0
M  V30 3211 H 339.165 -4.2937 3.41954 0
M  V30 3212 H 339.426 -4.08304 1.69531 0
M  V30 3213 N 338.485 -1.33259 -0.841409 0
M  V30 3214 C 339.713 -1.27605 -1.62864 0
M  V30 3215 C 340.128 0.153507 -1.88175 0
M  V30 3216 O 339.485 1.09485 -1.46011 0
M  V30 3217 C 339.536 -2.04596 -2.98031 0
M  V30 3218 O 339.257 -3.41975 -2.73834 0
M  V30 3219 C 340.758 -2.06122 -3.92465 0
M  V30 3220 H 337.978 -0.439718 -0.506842 0
M  V30 3221 H 340.522 -1.75591 -1.04824 0
M  V30 3222 H 338.677 -1.60299 -3.5268 0
M  V30 3223 H 339.091 -3.81549 -3.59889 0
M  V30 3224 H 340.565 -2.64451 -4.84531 0
M  V30 3225 H 341.042 -1.05083 -4.26444 0
M  V30 3226 H 341.648 -2.50427 -3.43753 0
M  V30 3227 N 339.963 1.05934 -1.16686 0
M  V30 3228 C 341.188 1.83029 -0.975455 0
M  V30 3229 C 341.613 1.82096 0.471452 0
M  V30 3230 O 340.971 1.22443 1.33706 0
M  V30 3231 C 341.019 3.27372 -1.51195 0
M  V30 3232 O 340.123 4.06054 -0.720701 0
M  V30 3233 H 339.464 0.566194 -0.346872 0
M  V30 3234 H 341.994 1.33541 -1.55009 0
M  V30 3235 H 342.004 3.78186 -1.53099 0
M  V30 3236 H 340.679 3.27366 -2.56523 0
M  V30 3237 H 339.256 3.64812 -0.772458 0
M  V30 3238 N 341.441 0.965919 1.2453 0
M  V30 3239 C 342.373 0.452465 2.2469 0
M  V30 3240 C 343.386 -0.437821 1.56802 0
M  V30 3241 O 344.575 -0.244283 1.76821 0
M  V30 3242 C 341.675 -0.366258 3.36915 0
M  V30 3243 C 340.848 0.513701 4.34373 0
M  V30 3244 C 339.907 -0.248716 5.25612 0
M  V30 3245 O 338.933 0.356745 5.68081 0
M  V30 3246 N 340.135 -1.53877 5.59734 0
M  V30 3247 H 342.9 1.31361 2.69378 0
M  V30 3248 H 340.461 0.837541 1.38553 0
M  V30 3249 H 342.453 -0.884297 3.94921 0
M  V30 3250 H 341.023 -1.12832 2.91526 0
M  V30 3251 H 340.243 1.21273 3.75082 0
M  V30 3252 H 341.531 1.11391 4.96457 0
M  V30 3253 H 340.929 -2.05243 5.27154 0
M  V30 3254 H 339.486 -2.00254 6.20275 0
M  V30 3255 N 342.919 -1.39368 0.735821 0
M  V30 3256 C 344.168 -1.99733 0.281004 0
M  V30 3257 C 344.481 -1.59055 -1.13846 0
M  V30 3258 O 345.687 -2.12262 -1.69284 0
M  V30 3259 C 344.143 -3.57057 0.451462 0
M  V30 3260 C 343.751 -4.06697 1.87886 0
M  V30 3261 C 345.495 -4.2446 0.0584616 0
M  V30 3262 C 343.402 -5.56598 1.99883 0
M  V30 3263 H 342.332 -0.747163 0.101311 0
M  V30 3264 H 344.983 -1.59357 0.909819 0
M  V30 3265 H 343.365 -3.95234 -0.246263 0
M  V30 3266 H 344.539 -3.79853 2.60861 0
M  V30 3267 H 342.854 -3.5196 2.22515 0
M  V30 3268 H 345.451 -5.34549 0.127099 0
M  V30 3269 H 345.794 -4.04444 -0.986433 0
M  V30 3270 H 346.327 -3.9146 0.707374 0
M  V30 3271 H 343.066 -5.81494 3.02564 0
M  V30 3272 H 342.586 -5.85242 1.31346 0
M  V30 3273 H 344.265 -6.22022 1.78039 0
M  V30 3274 N 344.397 -0.483516 -1.5 0
M  V30 3275 C 345.329 0.340634 -2.26655 0
M  V30 3276 C 346.342 0.946152 -1.32483 0
M  V30 3277 O 347.531 0.832453 -1.579 0
M  V30 3278 C 344.631 1.4929 -3.04246 0
M  V30 3279 C 343.804 0.997903 -4.25865 0
M  V30 3280 C 342.863 2.02569 -4.85646 0
M  V30 3281 O 341.889 1.60128 -5.46212 0
M  V30 3282 N 343.091 3.3548 -4.73744 0
M  V30 3283 H 345.856 -0.316577 -2.98023 0
M  V30 3284 H 343.417 -0.315024 -1.58806 0
M  V30 3285 H 345.409 2.17766 -3.41116 0
M  V30 3286 H 343.979 2.05458 -2.35597 0
M  V30 3287 H 343.199 0.138617 -3.93956 0
M  V30 3288 H 344.487 0.645305 -5.04691 0
M  V30 3289 H 343.885 3.72661 -4.25605 0
M  V30 3290 H 342.442 3.99718 -5.14848 0
M  V30 3291 N 345.875 1.56104 -0.216619 0
M  V30 3292 C 346.807 2.17339 0.72776 0
M  V30 3293 C 347.82 1.14109 1.16116 0
M  V30 3294 O 349.009 1.4111 1.09317 0
M  V30 3295 C 346.109 2.73818 1.99693 0
M  V30 3296 C 345.282 4.02168 1.71988 0
M  V30 3297 C 344.341 4.43259 2.83562 0
M  V30 3298 O 343.367 5.10257 2.52244 0
M  V30 3299 N 344.569 4.08535 4.12407 0
M  V30 3300 H 347.334 2.99005 0.203983 0
M  V30 3301 H 344.895 1.61861 -0.0354289 0
M  V30 3302 H 346.887 2.9828 2.73516 0
M  V30 3303 H 345.457 1.96483 2.43132 0
M  V30 3304 H 344.677 3.85612 0.818337 0
M  V30 3305 H 345.965 4.85907 1.50903 0
M  V30 3306 H 345.363 3.54687 4.40696 0
M  V30 3307 H 343.92 4.37901 4.8279 0
M  V30 3308 N 347.353 -0.0568162 1.57498 0
M  V30 3309 C 348.599 -0.75422 1.88253 0
M  V30 3310 C 348.932 -1.76461 0.810865 0
M  V30 3311 O 348.207 -1.93691 -0.177259 0
M  V30 3312 C 348.49 -1.44878 3.2967 0
M  V30 3313 C 348.343 -0.453789 4.47505 0
M  V30 3314 C 349.662 -2.38994 3.69554 0
M  V30 3315 H 346.781 -0.272724 0.684683 0
M  V30 3316 H 349.423 -0.0172113 1.89992 0
M  V30 3317 H 347.573 -2.077 3.28318 0
M  V30 3318 H 349.245 0.170371 4.60985 0
M  V30 3319 H 347.488 0.229552 4.33192 0
M  V30 3320 H 348.159 -0.977699 5.43273 0
M  V30 3321 H 350.635 -1.86239 3.72095 0
M  V30 3322 H 349.511 -2.84587 4.69363 0
M  V30 3323 H 349.772 -3.24461 3.00296 0
M  V30 3324 N 348.832 -1.54138 -0.328536 0
M  V30 3325 C 350.243 -1.63395 -0.903272 0
M  V30 3326 C 350.594 -0.524828 -1.8905 0
M  V30 3327 O 349.719 0.343068 -2.13663 0
M  V30 3328 C 350.314 -2.9618 -1.64507 0
M  V30 3329 C 348.873 -3.0765 -2.1686 0
M  V30 3330 C 348.02 -2.58933 -0.992416 0
M  V30 3331 H 350.971 -1.58344 -0.106253 0
M  V30 3332 H 350.992 -2.86061 -2.50897 0
M  V30 3333 H 350.504 -3.76884 -0.926302 0
M  V30 3334 H 348.605 -2.31611 -2.91868 0
M  V30 3335 H 348.718 -4.1337 -2.42202 0
M  V30 3336 H 347.082 -2.14706 -1.37016 0
M  V30 3337 H 347.865 -3.42089 -0.288041 0
M  V30 3338 N 350.31 0.590341 -1.46126 0
M  V30 3339 C 351.556 1.35082 -1.51264 0
M  V30 3340 C 351.889 1.93534 -0.160711 0
M  V30 3341 O 351.164 1.76045 0.826956 0
M  V30 3342 C 351.447 2.48588 -2.6053 0
M  V30 3343 C 351.3 1.95221 -4.05227 0
M  V30 3344 C 352.619 3.50662 -2.6594 0
M  V30 3345 H 349.738 0.489803 -0.550692 0
M  V30 3346 H 352.38 0.663887 -1.78024 0
M  V30 3347 H 350.53 3.07186 -2.37843 0
M  V30 3348 H 352.202 1.41139 -4.39178 0
M  V30 3349 H 350.445 1.26101 -4.15068 0
M  V30 3350 H 351.116 2.77121 -4.77397 0
M  V30 3351 H 353.592 3.01934 -2.86313 0
M  V30 3352 H 352.468 4.27551 -3.44226 0
M  V30 3353 H 352.729 4.07399 -1.71694 0
M  V30 3354 N 351.788 1.33704 0.83433 0
M  V30 3355 C 352.718 1.26967 1.95963 0
M  V30 3356 C 353.699 0.149337 1.69443 0
M  V30 3357 O 354.884 0.339852 1.91203 0
M  V30 3358 C 352.014 1.01275 3.32206 0
M  V30 3359 C 350.968 2.09652 3.73136 0
M  V30 3360 C 350.294 1.69166 5.07235 0
M  V30 3361 C 351.594 3.51372 3.86439 0
M  V30 3362 H 353.288 2.2112 2.01857 0
M  V30 3363 H 350.834 1.06447 0.969793 0
M  V30 3364 H 352.787 0.952106 4.10503 0
M  V30 3365 H 351.511 0.0356203 3.26581 0
M  V30 3366 H 350.17 2.14766 2.97104 0
M  V30 3367 H 349.818 0.701437 4.98085 0
M  V30 3368 H 349.518 2.41694 5.35591 0
M  V30 3369 H 351.042 1.64576 5.88003 0
M  V30 3370 H 352.456 3.48734 4.55036 0
M  V30 3371 H 350.853 4.22425 4.26236 0
M  V30 3372 H 351.923 3.89546 2.88759 0
M  V30 3373 N 353.266 -1.05314 1.17247 0
M  V30 3374 C 354.196 -2.1498 0.911362 0
M  V30 3375 C 355.177 -1.69471 -0.146169 0
M  V30 3376 O 356.362 -1.942 0.003812 0
M  V30 3377 C 353.492 -3.4472 0.422528 0
M  V30 3378 C 352.446 -4.03789 1.4191 0
M  V30 3379 C 351.772 -5.28858 0.788274 0
M  V30 3380 C 353.072 -4.41418 2.7919 0
M  V30 3381 H 354.766 -2.3708 1.82848 0
M  V30 3382 H 352.312 -1.13938 0.880569 0
M  V30 3383 H 354.265 -4.20787 0.227289 0
M  V30 3384 H 352.989 -3.22269 -0.530123 0
M  V30 3385 H 351.648 -3.2979 1.60106 0
M  V30 3386 H 351.296 -5.02709 -0.171173 0
M  V30 3387 H 350.996 -5.69338 1.45353 0
M  V30 3388 H 352.52 -6.07612 0.603282 0
M  V30 3389 H 353.934 -5.08524 2.64719 0
M  V30 3390 H 352.331 -4.92913 3.42282 0
M  V30 3391 H 353.401 -3.51819 3.33693 0
M  V30 3392 N 354.744 -0.972509 -1.24016 0
M  V30 3393 C 355.676 -0.464375 -2.24446 0
M  V30 3394 C 356.689 0.4295 -1.57032 0
M  V30 3395 O 357.878 0.234902 -1.76948 0
M  V30 3396 C 354.978 0.348385 -3.37105 0
M  V30 3397 C 354.151 -0.53673 -4.34094 0
M  V30 3398 C 353.21 0.220838 -5.25736 0
M  V30 3399 O 352.236 -0.386867 -5.67884 0
M  V30 3400 N 353.438 1.50907 -5.60542 0
M  V30 3401 H 356.203 -1.32788 -2.68677 0
M  V30 3402 H 353.764 -0.844877 -1.38107 0
M  V30 3403 H 355.756 0.863341 -3.95384 0
M  V30 3404 H 354.326 1.11285 -2.92121 0
M  V30 3405 H 353.546 -1.23261 -3.74433 0
M  V30 3406 H 354.834 -1.14022 -4.95859 0
M  V30 3407 H 354.232 2.02444 -5.28236 0
M  V30 3408 H 352.789 1.96962 -6.21329 0
M  V30 3409 N 356.222 1.38976 -0.743202 0
M  V30 3410 C 357.633 1.83123 -0.363732 0
M  V30 3411 C 357.984 1.6205 1.10609 0
M  V30 3412 O 357.109 1.11606 1.854 0
M  V30 3413 C 357.704 3.32439 -0.653408 0
M  V30 3414 C 356.263 3.74974 -0.327338 0
M  V30 3415 C 355.41 2.61878 -0.911875 0
M  V30 3416 H 358.361 1.27852 -0.940191 0
M  V30 3417 H 358.382 3.80432 0.0720031 0
M  V30 3418 H 357.894 3.47745 -1.72323 0
M  V30 3419 H 355.995 3.65252 0.736314 0
M  V30 3420 H 356.108 4.72106 -0.815631 0
M  V30 3421 H 354.472 2.52448 -0.337944 0
M  V30 3422 H 355.255 2.79987 -1.98651 0
M  V30 3423 N 357.7 0.491464 1.49741 0
M  V30 3424 C 358.65 -0.311086 2.25868 0
M  V30 3425 C 359.634 -0.943857 1.30308 0
M  V30 3426 O 360.826 -0.853035 1.55088 0
M  V30 3427 C 357.955 -1.38059 3.14316 0
M  V30 3428 C 357.041 -0.754541 4.17334 0
M  V30 3429 N 357.432 0.137216 5.05614 0
M  V30 3430 C 355.73 -1.01621 4.34269 0
M  V30 3431 C 356.431 0.494614 5.79593 0
M  V30 3432 N 355.407 -0.135169 5.43432 0
M  V30 3433 H 359.209 0.37555 2.91491 0
M  V30 3434 H 356.723 0.306917 1.59473 0
M  V30 3435 H 358.72 -1.96891 3.67477 0
M  V30 3436 H 357.38 -2.06901 2.50244 0
M  V30 3437 H 358.391 0.50741 5.15408 0
M  V30 3438 H 355.068 -1.69808 3.81407 0
M  V30 3439 H 356.458 1.2236 6.60665 0
M  V30 3440 N 359.178 -1.55987 0.224894 0
M  V30 3441 C 360.425 -1.9839 -0.4059 0
M  V30 3442 C 360.753 -1.11261 -1.59535 0
M  V30 3443 O 360.008 -0.158314 -1.95059 0
M  V30 3444 C 360.307 -3.46394 -0.880106 0
M  V30 3445 C 359.973 -4.5046 0.19918 0
M  V30 3446 C 358.635 -4.7864 0.495661 0
M  V30 3447 C 360.987 -5.12855 0.928939 0
M  V30 3448 C 358.315 -5.66497 1.52636 0
M  V30 3449 C 360.667 -6.01828 1.949 0
M  V30 3450 C 359.331 -6.28351 2.25236 0
M  V30 3451 H 358.601 -0.725961 -0.148529 0
M  V30 3452 H 361.248 -1.88668 0.328113 0
M  V30 3453 H 359.553 -3.53337 -1.69294 0
M  V30 3454 H 361.25 -3.76577 -1.37808 0
M  V30 3455 H 357.84 -4.28579 -0.0420526 0
M  V30 3456 H 362.024 -4.9115 0.713129 0
M  V30 3457 H 357.28 -5.8531 1.76698 0
M  V30 3458 H 361.454 -6.49225 2.51951 0
M  V30 3459 H 359.081 -6.96226 3.05244 0
M  V30 3460 N 360.656 0.0484629 -1.57525 0
M  V30 3461 C 361.905 0.742065 -1.87553 0
M  V30 3462 C 362.218 1.77545 -0.820802 0
M  V30 3463 O 363.424 2.52027 -1.00967 0
M  V30 3464 C 361.88 1.37081 -3.32771 0
M  V30 3465 C 361.488 0.374786 -4.4643 0
M  V30 3466 C 363.232 2.04542 -3.71972 0
M  V30 3467 C 361.139 1.01077 -5.82698 0
M  V30 3468 H 360.069 0.280903 -0.699721 0
M  V30 3469 H 362.72 -0.00411877 -1.835 0
M  V30 3470 H 361.102 2.16605 -3.31509 0
M  V30 3471 H 362.276 -0.392331 -4.59127 0
M  V30 3472 H 360.591 -0.196653 -4.15935 0
M  V30 3473 H 363.188 2.52943 -4.71088 0
M  V30 3474 H 363.531 2.85515 -3.02964 0
M  V30 3475 H 364.064 1.31819 -3.75325 0
M  V30 3476 H 360.803 0.240878 -6.55057 0
M  V30 3477 H 360.323 1.74819 -5.73758 0
M  V30 3478 H 362.002 1.52383 -6.28799 0
M  V30 3479 N 362.134 1.5431 0.320358 0
M  V30 3480 C 363.081 1.83918 1.39438 0
M  V30 3481 C 364.051 0.686525 1.51248 0
M  V30 3482 O 365.236 0.933269 1.66417 0
M  V30 3483 C 362.376 2.075 2.75749 0
M  V30 3484 C 361.489 3.35177 2.72544 0
M  V30 3485 C 360.624 3.48704 4.00723 0
M  V30 3486 C 359.663 4.70244 3.91838 0
M  V30 3487 N 358.8 4.80679 5.11754 0
M  V30 3488 H 363.64 2.75544 1.13489 0
M  V30 3489 H 361.177 1.36459 0.549309 0
M  V30 3490 H 363.135 2.19166 3.54996 0
M  V30 3491 H 361.765 1.19163 3 0
M  V30 3492 H 360.817 3.32233 1.85271 0
M  V30 3493 H 362.129 4.24534 2.61863 0
M  V30 3494 H 361.283 3.59928 4.88402 0
M  V30 3495 H 360.022 2.57445 4.14214 0
M  V30 3496 H 359.027 4.59072 3.02544 0
M  V30 3497 H 360.252 5.6289 3.7991 0
M  V30 3498 H 358.198 3.92337 5.25745 0
M  V30 3499 H 358.115 5.64007 5.0342 0
M  V30 3500 H 359.383 4.96239 6.01138 0
M  V30 3501 N 363.613 -0.582584 1.46437 0
M  V30 3502 C 364.576 -1.67366 1.56592 0
M  V30 3503 C 365.576 -1.54575 0.443072 0
M  V30 3504 O 366.766 -1.59191 0.707381 0
M  V30 3505 C 363.898 -3.06791 1.48634 0
M  V30 3506 H 365.091 -1.5972 2.5383 0
M  V30 3507 H 362.644 -0.800432 1.34249 0
M  V30 3508 H 363.379 -3.19993 0.526763 0
M  V30 3509 H 363.164 -3.17484 2.30101 0
M  V30 3510 H 364.654 -3.86218 1.58826 0
M  V30 3511 N 365.091 -1.34144 -0.827227 0
M  V30 3512 C 366.368 -1.16844 -1.56865 0
M  V30 3513 C 366.748 0.260654 -2.09485 0
M  V30 3514 O 366.096 1.26138 -1.9053 0
M  V30 3515 C 366.306 -2.21939 -2.6934 0
M  V30 3516 C 367.654 -2.56695 -3.3822 0
M  V30 3517 O 368.678 -2.20695 -2.79593 0
M  V30 3518 O 367.537 -3.18518 -4.44082 0
M  V30 3519 H 364.631 -0.452669 -0.692112 0
M  V30 3520 H 367.177 -1.45763 -0.868973 0
M  V30 3521 H 365.949 -3.17882 -2.28182 0
M  V30 3522 H 365.572 -1.94172 -3.46962 0
M  V30 3523 N 366.569 1.04691 -1.17803 0
M  V30 3524 C 367.794 1.81984 -0.994813 0
M  V30 3525 C 368.219 1.82586 0.452112 0
M  V30 3526 O 367.577 1.23854 1.324 0
M  V30 3527 C 367.625 3.2575 -1.54659 0
M  V30 3528 O 366.729 4.05267 -0.763728 0
M  V30 3529 H 366.07 0.562483 -0.352857 0
M  V30 3530 H 368.6 1.3189 -1.56417 0
M  V30 3531 H 368.61 3.76541 -1.57102 0
M  V30 3532 H 367.285 3.24627 -2.59981 0
M  V30 3533 H 365.862 3.63972 -0.811108 0
M  V30 3534 N 368.047 0.979072 1.23499 0
M  V30 3535 C 368.977 0.537606 2.27227 0
M  V30 3536 C 369.958 -0.428539 1.64613 0
M  V30 3537 O 371.143 -0.322191 1.91509 0
M  V30 3538 C 368.273 -0.162052 3.46922 0
M  V30 3539 C 367.227 0.721242 4.21879 0
M  V30 3540 C 366.553 -0.110555 5.34586 0
M  V30 3541 C 367.853 2.01141 4.82016 0
M  V30 3542 H 369.547 1.40462 2.64406 0
M  V30 3543 H 367.093 0.67684 1.27102 0
M  V30 3544 H 369.046 -0.482192 4.18632 0
M  V30 3545 H 367.77 -1.06351 3.08799 0
M  V30 3546 H 366.429 1.02482 3.51984 0
M  V30 3547 H 366.077 -1.0125 4.92704 0
M  V30 3548 H 365.777 0.477325 5.85658 0
M  V30 3549 H 367.301 -0.425107 6.09118 0
M  V30 3550 H 368.715 1.75612 5.45741 0
M  V30 3551 H 367.112 2.54695 5.43369 0
M  V30 3552 H 368.182 2.69909 4.02836 0
M  V30 3553 N 369.525 -1.3858 0.750561 0
M  V30 3554 C 370.455 -2.33102 0.136237 0
M  V30 3555 C 371.436 -1.54713 -0.706965 0
M  V30 3556 O 372.621 -1.83043 -0.648769 0
M  V30 3557 C 369.751 -3.38882 -0.760017 0
M  V30 3558 C 368.705 -4.27995 -0.0197785 0
M  V30 3559 C 368.031 -5.24605 -1.03408 0
M  V30 3560 C 369.331 -5.09554 1.14684 0
M  V30 3561 H 371.025 -2.84726 0.925822 0
M  V30 3562 H 368.571 -1.36898 0.446654 0
M  V30 3563 H 370.524 -4.0397 -1.19943 0
M  V30 3564 H 369.248 -2.85734 -1.58189 0
M  V30 3565 H 367.907 -3.64409 0.400184 0
M  V30 3566 H 367.555 -4.67746 -1.84994 0
M  V30 3567 H 367.255 -5.85081 -0.543464 0
M  V30 3568 H 368.779 -5.9257 -1.47288 0
M  V30 3569 H 370.193 -5.67899 0.785118 0
M  V30 3570 H 368.59 -5.7925 1.56812 0
M  V30 3571 H 369.66 -4.4347 1.96118 0
M  V30 3572 N 371.003 -0.499398 -1.49478 0
M  V30 3573 C 371.933 0.269244 -2.31943 0
M  V30 3574 C 372.914 0.964054 -1.40143 0
M  V30 3575 O 374.099 0.955767 -1.69052 0
M  V30 3576 C 371.229 1.33504 -3.20615 0
M  V30 3577 C 370.183 0.760202 -4.21195 0
M  V30 3578 C 369.509 1.9264 -4.98792 0
M  V30 3579 C 370.809 -0.247661 -5.21712 0
M  V30 3580 H 372.503 -0.419082 -2.96452 0
M  V30 3581 H 370.049 -0.202988 -1.42562 0
M  V30 3582 H 372.002 1.88048 -3.77115 0
M  V30 3583 H 370.726 2.05253 -2.54045 0
M  V30 3584 H 369.385 0.23653 -3.65836 0
M  V30 3585 H 369.033 2.63154 -4.28671 0
M  V30 3586 H 368.733 1.54785 -5.66847 0
M  V30 3587 H 370.257 2.4762 -5.58137 0
M  V30 3588 H 371.671 0.209579 -5.72917 0
M  V30 3589 H 370.068 -0.541962 -5.97648 0
M  V30 3590 H 371.138 -1.16409 -4.7072 0
M  V30 3591 N 372.481 1.55866 -0.233164 0
M  V30 3592 C 373.709 2.02998 0.399905 0
M  V30 3593 C 374.124 1.11274 1.52524 0
M  V30 3594 O 373.481 0.124528 1.82075 0
M  V30 3595 C 373.532 3.4958 0.920639 0
M  V30 3596 O 373.253 4.37808 -0.159834 0
M  V30 3597 C 374.754 4.12411 1.62578 0
M  V30 3598 H 371.974 0.664006 0.0966281 0
M  V30 3599 H 374.518 2.0143 -0.353013 0
M  V30 3600 H 372.673 3.51727 1.62379 0
M  V30 3601 H 373.087 5.23981 0.23337 0
M  V30 3602 H 374.561 5.16711 1.94201 0
M  V30 3603 H 375.038 3.5809 2.54299 0
M  V30 3604 H 375.644 4.14148 0.967553 0
M  V30 3605 N 373.959 -0.0401083 1.57549 0
M  V30 3606 C 374.922 -1.02871 2.04817 0
M  V30 3607 C 375.922 -1.29708 0.950388 0
M  V30 3608 O 377.112 -1.24897 1.21435 0
M  V30 3609 C 374.244 -2.36443 2.45576 0
M  V30 3610 H 375.437 -0.620631 2.93408 0
M  V30 3611 H 372.99 -0.286667 1.53649 0
M  V30 3612 H 373.725 -2.82021 1.60108 0
M  V30 3613 H 373.51 -2.18296 3.25713 0
M  V30 3614 H 375 -3.07441 2.82612 0
M  V30 3615 N 375.437 -1.54477 -0.31217 0
M  V30 3616 C 376.37 -1.79519 -1.40884 0
M  V30 3617 C 377.348 -0.645753 -1.49227 0
M  V30 3618 O 378.532 -0.884468 -1.66461 0
M  V30 3619 C 375.659 -1.92194 -2.78889 0
M  V30 3620 C 374.705 -3.14555 -2.88023 0
M  V30 3621 S 375.538 -4.72893 -2.51262 0
M  V30 3622 C 376.694 -4.8849 -3.91317 0
M  V30 3623 H 376.927 -2.72256 -1.19432 0
M  V30 3624 H 374.46 -1.45746 -0.509654 0
M  V30 3625 H 376.418 -2.00182 -3.58382 0
M  V30 3626 H 375.079 -1.00414 -2.97617 0
M  V30 3627 H 374.272 -3.20193 -3.89221 0
M  V30 3628 H 373.874 -3.04955 -2.16514 0
M  V30 3629 H 376.166 -4.71826 -4.86196 0
M  V30 3630 H 377.109 -5.90588 -3.90656 0
M  V30 3631 H 377.517 -4.16715 -3.80801 0
M  V30 3632 N 376.915 0.57481 -1.46744 0
M  V30 3633 C 377.862 1.68329 -1.57905 0
M  V30 3634 C 378.832 1.60625 -0.422927 0
M  V30 3635 O 380.017 1.79721 -0.640711 0
M  V30 3636 C 377.157 3.06665 -1.58274 0
M  V30 3637 C 376.27 3.24935 -2.84678 0
M  V30 3638 C 375.405 4.53566 -2.76499 0
M  V30 3639 C 374.444 4.65207 -3.97806 0
M  V30 3640 N 373.581 5.85172 -3.87967 0
M  V30 3641 H 378.421 1.58127 -2.52587 0
M  V30 3642 H 375.958 0.770552 -1.25303 0
M  V30 3643 H 377.916 3.86745 -1.56473 0
M  V30 3644 H 376.546 3.15745 -0.671194 0
M  V30 3645 H 375.598 2.38405 -2.96424 0
M  V30 3646 H 376.91 3.29403 -3.7456 0
M  V30 3647 H 376.064 5.41885 -2.72848 0
M  V30 3648 H 374.803 4.51548 -1.8427 0
M  V30 3649 H 373.808 3.75304 -4.0178 0
M  V30 3650 H 375.033 4.68997 -4.9114 0
M  V30 3651 H 372.979 5.84137 -2.98529 0
M  V30 3652 H 372.896 5.90943 -4.71511 0
M  V30 3653 H 374.164 6.759 -3.88303 0
M  V30 3654 N 378.394 1.34581 0.820102 0
M  V30 3655 C 379.622 1.3018 1.60813 0
M  V30 3656 C 380.037 -0.123551 1.88395 0
M  V30 3657 O 379.394 -1.07148 1.47735 0
M  V30 3658 C 379.445 2.09312 2.94739 0
M  V30 3659 O 379.166 3.46288 2.68358 0
M  V30 3660 C 380.667 2.1234 3.89136 0
M  V30 3661 H 377.887 0.447726 0.499782 0
M  V30 3662 H 380.431 1.77237 1.02017 0
M  V30 3663 H 378.586 1.65889 3.50085 0
M  V30 3664 H 379 3.87227 3.53774 0
M  V30 3665 H 380.474 2.72126 4.80262 0
M  V30 3666 H 380.951 1.11854 4.24718 0
M  V30 3667 H 381.557 2.55864 3.39726 0
M  V30 3668 N 379.872 -1.04064 1.18357 0
M  V30 3669 C 381.149 -1.74252 0.888581 0
M  V30 3670 C 381.529 -2.02138 -0.60856 0
M  V30 3671 O 380.877 -1.66656 -1.56327 0
M  V30 3672 C 381.087 -3.0277 1.73584 0
M  V30 3673 C 382.435 -3.76506 1.96286 0
M  V30 3674 O 383.459 -3.12668 1.70637 0
M  V30 3675 O 382.318 -4.91243 2.39464 0
M  V30 3676 H 379.412 -0.758271 0.330082 0
M  V30 3677 H 381.958 -1.1013 1.2911 0
M  V30 3678 H 380.73 -2.78299 2.75073 0
M  V30 3679 H 380.353 -3.74631 1.33183 0
M  V30 3680 N 381.35 -0.985608 -1.22978 0
M  V30 3681 C 382.598 -0.656087 -1.91154 0
M  V30 3682 C 382.919 0.813561 -1.77218 0
M  V30 3683 O 382.189 1.58244 -1.1548 0
M  V30 3684 H 380.769 -0.239674 -0.707506 0
M  V30 3685 H 383.431 -1.25054 -1.49491 0
M  V30 3686 H 382.527 -0.912253 -2.9847 0
M  V30 3687 N 382.828 1.3818 -0.7579 0
M  V30 3688 C 383.791 2.28764 -0.141286 0
M  V30 3689 C 384.791 1.47388 0.642907 0
M  V30 3690 O 385.981 1.67781 0.468536 0
M  V30 3691 C 383.113 3.31184 0.808069 0
M  V30 3692 H 384.306 2.848 -0.939633 0
M  V30 3693 H 381.859 1.47212 -0.525191 0
M  V30 3694 H 382.594 2.80247 1.63193 0
M  V30 3695 H 382.379 3.91314 0.248104 0
M  V30 3696 H 383.869 3.98909 1.23536 0
M  V30 3697 N 384.306 0.507319 1.49211 0
M  V30 3698 C 385.534 -0.0315749 2.06876 0
M  V30 3699 C 385.949 -1.30241 1.36685 0
M  V30 3700 O 385.306 -1.76937 0.447152 0
M  V30 3701 C 385.357 -0.282627 3.60393 0
M  V30 3702 O 385.078 0.937835 4.27944 0
M  V30 3703 C 386.579 -0.864453 4.3479 0
M  V30 3704 H 383.799 0.0233048 0.670595 0
M  V30 3705 H 386.343 0.706484 1.91909 0
M  V30 3706 H 384.498 -0.97068 3.75042 0
M  V30 3707 H 384.912 0.704567 5.19746 0
M  V30 3708 H 386.386 -0.989664 5.43056 0
M  V30 3709 H 386.863 -1.86382 3.97692 0
M  V30 3710 H 387.469 -0.213672 4.24763 0
M  V30 3711 N 385.784 -1.5574 0.241426 0
M  V30 3712 C 387.03 -1.99104 -0.385406 0
M  V30 3713 C 387.363 -1.1293 -1.57988 0
M  V30 3714 O 386.638 -0.191449 -1.93555 0
M  V30 3715 C 386.921 -3.51087 -0.800616 0
M  V30 3716 C 386.774 -4.48028 0.398874 0
M  V30 3717 C 388.093 -4.08015 -1.64959 0
M  V30 3718 H 385.212 -0.723848 -0.138614 0
M  V30 3719 H 387.854 -1.86903 0.341642 0
M  V30 3720 H 386.004 -3.61615 -1.4201 0
M  V30 3721 H 387.676 -4.49487 1.03726 0
M  V30 3722 H 385.919 -4.21077 1.04293 0
M  V30 3723 H 386.59 -5.51962 0.0651056 0
M  V30 3724 H 389.066 -4.00555 -1.12672 0
M  V30 3725 H 387.942 -5.14635 -1.90898 0
M  V30 3726 H 388.203 -3.56131 -2.61961 0
M  V30 3727 N 387.262 0.0317525 -1.57568 0
M  V30 3728 C 388.209 1.0332 -2.06382 0
M  V30 3729 C 389.179 1.36082 -0.952414 0
M  V30 3730 O 390.364 1.46466 -1.2228 0
M  V30 3731 C 387.504 2.32989 -2.54578 0
M  V30 3732 C 386.617 2.0641 -3.79498 0
M  V30 3733 C 385.752 3.2993 -4.16317 0
M  V30 3734 C 384.791 2.98893 -5.34162 0
M  V30 3735 N 383.928 4.14857 -5.66426 0
M  V30 3736 H 388.768 0.609982 -2.9169 0
M  V30 3737 H 386.305 0.289573 -1.44222 0
M  V30 3738 H 388.263 3.0875 -2.80587 0
M  V30 3739 H 386.893 2.73039 -1.7219 0
M  V30 3740 H 385.945 1.21158 -3.6059 0
M  V30 3741 H 387.257 1.79513 -4.65378 0
M  V30 3742 H 386.411 4.1406 -4.4344 0
M  V30 3743 H 385.15 3.59938 -3.29083 0
M  V30 3744 H 384.155 2.13164 -5.06795 0
M  V30 3745 H 385.38 2.70165 -6.23047 0
M  V30 3746 H 383.326 4.44821 -4.82151 0
M  V30 3747 H 383.243 3.91374 -6.4681 0
M  V30 3748 H 384.511 4.99868 -5.98124 0
M  V30 3749 N 388.74 1.54641 0.303973 0
M  V30 3750 C 389.703 1.84646 1.35789 0
M  V30 3751 C 390.703 0.7192 1.4382 0
M  V30 3752 O 391.893 0.987491 1.43507 0
M  V30 3753 C 389.025 2.02407 2.74307 0
M  V30 3754 H 390.218 2.78829 1.10429 0
M  V30 3755 H 387.771 1.46658 0.540487 0
M  V30 3756 H 388.506 1.10502 3.04893 0
M  V30 3757 H 388.291 2.84453 2.69868 0
M  V30 3758 H 389.781 2.27002 3.50514 0
M  V30 3759 N 390.218 -0.567019 1.47046 0
M  V30 3760 C 391.181 -1.65696 1.58359 0
M  V30 3761 C 392.181 -1.54097 0.459441 0
M  V30 3762 O 393.371 -1.58432 0.724225 0
M  V30 3763 C 390.503 -3.05197 1.51879 0
M  V30 3764 H 391.696 -1.57019 2.5551 0
M  V30 3765 H 389.249 -0.786148 1.3509 0
M  V30 3766 H 389.984 -3.19417 0.560673 0
M  V30 3767 H 389.769 -3.15025 2.33455 0
M  V30 3768 H 391.259 -3.84511 1.62913 0
M  V30 3769 N 391.696 -1.35014 -0.812953 0
M  V30 3770 C 392.944 -1.27678 -1.56661 0
M  V30 3771 C 393.265 0.150359 -1.94419 0
M  V30 3772 O 392.535 1.08532 -1.63088 0
M  V30 3773 H 391.115 -0.469602 -0.580933 0
M  V30 3774 H 393.777 -1.69043 -0.970076 0
M  V30 3775 H 392.873 -1.88833 -2.48492 0
M  V30 3776 N 393.175 1.03435 -1.18907 0
M  V30 3777 C 394.105 2.13503 -0.945448 0
M  V30 3778 C 395.086 1.69682 0.119189 0
M  V30 3779 O 396.271 1.94169 -0.034707 0
M  V30 3780 C 393.401 3.44004 -0.477316 0
M  V30 3781 C 392.355 4.0148 -1.48316 0
M  V30 3782 C 391.681 5.27537 -0.872311 0
M  V30 3783 C 392.981 4.36921 -2.86177 0
M  V30 3784 H 394.675 2.34141 -1.86597 0
M  V30 3785 H 392.221 1.12523 -0.898584 0
M  V30 3786 H 394.174 4.20372 -0.294204 0
M  V30 3787 H 392.898 3.23072 0.478786 0
M  V30 3788 H 391.557 3.27201 -1.65332 0
M  V30 3789 H 391.205 5.02917 0.0911752 0
M  V30 3790 H 390.905 5.66954 -1.54393 0
M  V30 3791 H 392.429 6.06576 -0.699871 0
M  V30 3792 H 393.843 5.04248 -2.72776 0
M  V30 3793 H 392.24 4.87405 -3.50081 0
M  V30 3794 H 393.31 3.46466 -3.39248 0
M  V30 3795 N 394.653 0.992116 1.22453 0
M  V30 3796 C 395.878 0.685644 1.95739 0
M  V30 3797 C 396.303 -0.743 1.72804 0
M  V30 3798 O 395.661 -1.50778 1.00676 0
M  V30 3799 C 395.709 0.996293 3.46564 0
M  V30 3800 O 394.813 0.0945512 4.12292 0
M  V30 3801 H 394.154 0.256694 0.612376 0
M  V30 3802 H 396.684 1.32888 1.5557 0
M  V30 3803 H 396.694 0.93781 3.97076 0
M  V30 3804 H 395.369 2.03733 3.62582 0
M  V30 3805 H 393.946 0.208451 3.72317 0
M  V30 3806 N 396.131 -1.37776 0.765217 0
M  V30 3807 C 397.542 -1.82521 0.392819 0
M  V30 3808 C 397.893 -1.63789 -1.08017 0
M  V30 3809 O 397.018 -1.14542 -1.83601 0
M  V30 3810 C 397.613 -3.31358 0.706214 0
M  V30 3811 C 396.172 -3.74406 0.386952 0
M  V30 3812 C 395.319 -2.60394 0.953422 0
M  V30 3813 H 398.27 -1.2634 0.960412 0
M  V30 3814 H 398.291 -3.80498 -0.0114706 0
M  V30 3815 H 397.803 -3.44959 1.77833 0
M  V30 3816 H 395.904 -3.66377 -0.678112 0
M  V30 3817 H 396.017 -4.70749 0.890636 0
M  V30 3818 H 394.381 -2.51878 0.378064 0
M  V30 3819 H 395.164 -2.76791 2.03081 0
M  V30 3820 N 397.609 -0.515225 -1.4894 0
M  V30 3821 C 398.539 0.244628 -2.32215 0
M  V30 3822 C 399.52 0.949136 -1.41157 0
M  V30 3823 O 400.705 0.937783 -1.70057 0
M  V30 3824 C 397.835 1.30096 -3.22013 0
M  V30 3825 C 396.789 0.715486 -4.21977 0
M  V30 3826 C 396.115 1.87339 -5.00808 0
M  V30 3827 C 397.415 -0.302982 -5.2142 0
M  V30 3828 H 399.109 -0.450501 -2.95991 0
M  V30 3829 H 396.655 -0.218098 -1.42339 0
M  V30 3830 H 398.608 1.84037 -3.79089 0
M  V30 3831 H 397.332 2.02547 -2.56207 0
M  V30 3832 H 395.991 0.197715 -3.66066 0
M  V30 3833 H 395.639 2.58592 -4.31438 0
M  V30 3834 H 395.339 1.48764 -5.68457 0
M  V30 3835 H 396.863 2.41686 -5.60732 0
M  V30 3836 H 398.277 0.148802 -5.73107 0
M  V30 3837 H 396.674 -0.60532 -5.97039 0
M  V30 3838 H 397.744 -1.21395 -4.69459 0
M  V30 3839 N 399.087 1.5561 -0.249682 0
M  V30 3840 C 400.333 1.99306 0.374841 0
M  V30 3841 C 400.666 1.13767 1.57387 0
M  V30 3842 O 399.941 0.201711 1.93451 0
M  V30 3843 C 400.224 3.51507 0.781986 0
M  V30 3844 C 400.077 4.4781 -0.422629 0
M  V30 3845 C 401.396 4.08884 1.62793 0
M  V30 3846 H 398.515 0.724572 0.134773 0
M  V30 3847 H 401.157 1.86719 -0.351549 0
M  V30 3848 H 399.307 3.62363 1.4009 0
M  V30 3849 H 400.979 4.48931 -1.06108 0
M  V30 3850 H 399.222 4.20518 -1.06524 0
M  V30 3851 H 399.893 5.51919 -0.0943766 0
M  V30 3852 H 402.369 4.01147 1.10547 0
M  V30 3853 H 401.245 5.1564 1.88166 0
M  V30 3854 H 401.506 3.57515 2.60068 0
M  V30 3855 N 400.565 -0.0233959 1.57583 0
M  V30 3856 C 401.79 -0.728376 1.94189 0
M  V30 3857 C 402.215 -1.67793 0.850119 0
M  V30 3858 O 401.573 -1.80262 -0.19371 0
M  V30 3859 C 401.621 -1.45669 3.29868 0
M  V30 3860 O 400.725 -2.57013 3.22518 0
M  V30 3861 H 400.066 -0.195493 0.63457 0
M  V30 3862 H 402.596 0.0228214 2.04587 0
M  V30 3863 H 402.606 -1.82535 3.6489 0
M  V30 3864 H 401.281 -0.760314 4.08891 0
M  V30 3865 H 399.858 -2.22648 2.99136 0
M  V30 3866 N 402.043 -1.548 -0.295768 0
M  V30 3867 C 403.291 -1.73985 -1.02828 0
M  V30 3868 C 403.612 -0.531406 -1.87619 0
M  V30 3869 O 402.882 0.454221 -1.90561 0
M  V30 3870 H 401.462 -0.641556 -0.382642 0
M  V30 3871 H 404.124 -1.92163 -0.325489 0
M  V30 3872 H 403.22 -2.63129 -1.67838 0
M  V30 3873 N 403.521 0.559213 -1.47345 0
M  V30 3874 C 404.749 1.34194 -1.57479 0
M  V30 3875 C 405.164 1.87463 -0.224261 0
M  V30 3876 O 404.521 1.64888 0.782185 0
M  V30 3877 C 404.572 2.51324 -2.59843 0
M  V30 3878 O 404.293 2.00256 -3.89653 0
M  V30 3879 C 405.794 3.43563 -2.80142 0
M  V30 3880 H 403.014 0.409136 -0.531835 0
M  V30 3881 H 405.558 0.677609 -1.92947 0
M  V30 3882 H 403.713 3.13699 -2.27314 0
M  V30 3883 H 404.127 2.76708 -4.4557 0
M  V30 3884 H 405.601 4.2217 -3.55635 0
M  V30 3885 H 406.078 3.9698 -1.87892 0
M  V30 3886 H 406.684 2.87005 -3.1386 0
M  V30 3887 N 404.999 1.35443 0.805782 0
M  V30 3888 C 406.227 1.31878 1.59423 0
M  V30 3889 C 406.642 -0.103562 1.88516 0
M  V30 3890 O 405.999 -1.05575 1.48863 0
M  V30 3891 C 406.05 2.12426 2.92502 0
M  V30 3892 O 405.771 3.49115 2.6467 0
M  V30 3893 C 407.272 2.16455 3.86862 0
M  V30 3894 H 404.492 0.453002 0.495005 0
M  V30 3895 H 407.036 1.78309 1.00131 0
M  V30 3896 H 405.191 1.69593 3.48306 0
M  V30 3897 H 405.605 3.90957 3.49647 0
M  V30 3898 H 407.079 2.77204 4.77349 0
M  V30 3899 H 407.556 1.16352 4.23508 0
M  V30 3900 H 408.162 2.59453 3.36993 0
M  V30 3901 N 406.477 -1.02803 1.19454 0
M  V30 3902 C 407.723 -1.76478 0.999171 0
M  V30 3903 C 408.056 -1.88456 -0.468828 0
M  V30 3904 O 407.331 -1.40198 -1.34814 0
M  V30 3905 C 407.614 -3.19044 1.66981 0
M  V30 3906 C 407.467 -3.14932 3.21151 0
M  V30 3907 C 408.786 -4.17456 1.39349 0
M  V30 3908 H 405.905 -0.640614 0.364393 0
M  V30 3909 H 408.547 -1.20005 1.47305 0
M  V30 3910 H 406.697 -3.67263 1.2669 0
M  V30 3911 H 408.369 -2.74605 3.70661 0
M  V30 3912 H 406.612 -2.52625 3.52652 0
M  V30 3913 H 407.283 -4.1566 3.63223 0
M  V30 3914 H 409.759 -3.77842 1.74283 0
M  V30 3915 H 408.635 -5.154 1.88823 0
M  V30 3916 H 408.896 -4.40949 0.318813 0
M  V30 3917 N 407.956 -0.998596 -1.21925 0
M  V30 3918 C 408.888 -0.511879 -2.23411 0
M  V30 3919 C 409.901 0.396094 -1.57908 0
M  V30 3920 O 411.09 0.197316 -1.77406 0
M  V30 3921 C 408.19 0.276802 -3.37768 0
M  V30 3922 C 407.363 -0.628687 -4.32858 0
M  V30 3923 C 406.422 0.109272 -5.26087 0
M  V30 3924 O 405.448 -0.507237 -5.66935 0
M  V30 3925 N 406.65 1.38983 -5.63617 0
M  V30 3926 H 409.415 -1.38457 -2.658 0
M  V30 3927 H 406.976 -0.873981 -1.36283 0
M  V30 3928 H 408.968 0.77928 -3.97126 0
M  V30 3929 H 407.538 1.05063 -2.94415 0
M  V30 3930 H 406.758 -1.31175 -3.71735 0
M  V30 3931 H 408.046 -1.24514 -4.93329 0
M  V30 3932 H 407.444 1.91194 -5.32411 0
M  V30 3933 H 406.001 1.83739 -6.25367 0
M  V30 3934 N 409.434 1.37368 -0.772513 0
M  V30 3935 C 410.662 2.03942 -0.348588 0
M  V30 3936 C 411.077 1.58264 1.02947 0
M  V30 3937 O 410.434 0.764246 1.65727 0
M  V30 3938 C 410.485 3.5946 -0.38351 0
M  V30 3939 O 410.206 4.03468 -1.70721 0
M  V30 3940 C 411.707 4.4327 0.0519152 0
M  V30 3941 H 408.927 0.654931 -0.145966 0
M  V30 3942 H 411.471 1.75686 -1.04665 0
M  V30 3943 H 409.626 3.86486 0.265978 0
M  V30 3944 H 410.04 4.97991 -1.64636 0
M  V30 3945 H 411.514 5.51995 -0.0236733 0
M  V30 3946 H 411.991 4.2514 1.10238 0
M  V30 3947 H 412.597 4.21471 -0.569415 0
M  V30 3948 N 410.912 0.523116 1.48665 0
M  V30 3949 C 412.16 -0.0134497 2.02096 0
M  V30 3950 C 412.481 -1.35418 1.40311 0
M  V30 3951 O 411.751 -1.87543 0.566074 0
M  V30 3952 H 410.331 -0.00795915 0.746958 0
M  V30 3953 H 412.993 0.685388 1.82451 0
M  V30 3954 H 412.089 -0.126849 3.11842 0
M  V30 3955 N 412.39 -1.55475 0.257931 0
M  V30 3956 C 413.801 -1.8511 -0.243135 0
M  V30 3957 C 414.152 -1.17986 -1.5676 0
M  V30 3958 O 413.277 -0.462102 -2.11409 0
M  V30 3959 C 413.872 -3.35826 -0.447929 0
M  V30 3960 C 412.431 -3.65647 -0.893245 0
M  V30 3961 C 411.578 -2.7729 0.0232965 0
M  V30 3962 H 414.529 -1.51261 0.480199 0
M  V30 3963 H 414.55 -3.58002 -1.28898 0
M  V30 3964 H 414.062 -3.84652 0.516196 0
M  V30 3965 H 412.163 -3.22308 -1.86945 0
M  V30 3966 H 412.276 -4.73312 -0.742469 0
M  V30 3967 H 410.64 -2.49942 -0.490021 0
M  V30 3968 H 411.423 -3.28926 0.982994 0
M  V30 3969 N 413.868 0.0150385 -1.57593 0
M  V30 3970 C 414.798 1.01047 -2.10503 0
M  V30 3971 C 415.779 1.36816 -1.01071 0
M  V30 3972 O 416.964 1.45455 -1.28672 0
M  V30 3973 C 414.094 2.30708 -2.59598 0
M  V30 3974 C 413.048 2.09142 -3.73421 0
M  V30 3975 C 412.374 3.44685 -4.08774 0
M  V30 3976 C 413.674 1.46619 -5.01298 0
M  V30 3977 H 415.368 0.569978 -2.93925 0
M  V30 3978 H 412.914 0.272724 -1.41394 0
M  V30 3979 H 414.867 3.00687 -2.95238 0
M  V30 3980 H 413.591 2.76843 -1.73279 0
M  V30 3981 H 412.25 1.41592 -3.38153 0
M  V30 3982 H 411.898 3.88495 -3.195 0
M  V30 3983 H 411.598 3.31077 -4.8545 0
M  V30 3984 H 413.122 4.16004 -4.4696 0
M  V30 3985 H 414.536 2.06535 -5.34805 0
M  V30 3986 H 412.933 1.43544 -5.82679 0
M  V30 3987 H 414.003 0.433611 -4.82957 0
M  V30 3988 N 415.346 1.54954 0.287554 0
M  V30 3989 C 416.757 1.65732 0.859634 0
M  V30 3990 C 417.108 0.574767 1.87592 0
M  V30 3991 O 416.233 -0.286299 2.14498 0
M  V30 3992 C 416.828 3.00438 1.56597 0
M  V30 3993 C 415.387 3.13292 2.08627 0
M  V30 3994 C 414.534 2.61473 0.923416 0
M  V30 3995 H 417.485 1.5857 0.0642338 0
M  V30 3996 H 417.506 2.92613 2.43224 0
M  V30 3997 H 417.018 3.79207 0.826053 0
M  V30 3998 H 415.119 2.39268 2.85625 0
M  V30 3999 H 415.232 4.19647 2.31157 0
M  V30 4000 H 413.596 2.18264 1.31275 0
M  V30 4001 H 414.379 3.42733 0.197241 0
M  V30 4002 N 416.824 -0.551391 1.4764 0
M  V30 4003 C 418.052 -1.33357 1.58189 0
M  V30 4004 C 418.467 -1.87342 0.234199 0
M  V30 4005 O 417.824 -1.65301 -0.77343 0
M  V30 4006 C 417.875 -2.49942 2.61173 0
M  V30 4007 O 417.596 -1.98187 3.90709 0
M  V30 4008 C 419.097 -3.42072 2.8196 0
M  V30 4009 H 416.317 -0.40631 0.533998 0
M  V30 4010 H 418.861 -0.667367 1.93304 0
M  V30 4011 H 417.016 -3.12489 2.28975 0
M  V30 4012 H 417.43 -2.74342 4.47031 0
M  V30 4013 H 418.904 -4.20278 3.57869 0
M  V30 4014 H 419.381 -3.95978 1.89995 0
M  V30 4015 H 419.987 -2.85336 3.15378 0
M  V30 4016 N 418.302 -1.35869 -0.798587 0
M  V30 4017 C 419.232 -1.32118 -1.92528 0
M  V30 4018 C 420.213 -0.194209 -1.68988 0
M  V30 4019 O 421.398 -0.390426 -1.90235 0
M  V30 4020 C 418.528 -1.10047 -3.29404 0
M  V30 4021 C 417.482 -2.19471 -3.67446 0
M  V30 4022 C 416.808 -1.82555 -5.02571 0
M  V30 4023 C 418.108 -3.61495 -3.76987 0
M  V30 4024 H 419.802 -2.26394 -1.95924 0
M  V30 4025 H 417.348 -1.08981 -0.94123 0
M  V30 4026 H 419.301 -1.06061 -4.07835 0
M  V30 4027 H 418.025 -0.122195 -3.26371 0
M  V30 4028 H 416.684 -2.22568 -2.91306 0
M  V30 4029 H 416.332 -0.833249 -4.9605 0
M  V30 4030 H 416.032 -2.5581 -5.28995 0
M  V30 4031 H 417.556 -1.80108 -5.83432 0
M  V30 4032 H 418.97 -3.60676 -4.4563 0
M  V30 4033 H 417.367 -4.33577 -4.14887 0
M  V30 4034 H 418.437 -3.97065 -2.78329 0
M  V30 4035 N 419.78 1.02168 -1.19998 0
M  V30 4036 C 421.026 1.75945 -1.00852 0
M  V30 4037 C 421.359 1.88702 0.458828 0
M  V30 4038 O 420.634 1.40911 1.34069 0
M  V30 4039 C 420.917 3.18154 -1.68671 0
M  V30 4040 C 420.77 3.13224 -3.22817 0
M  V30 4041 C 422.089 4.16711 -1.41561 0
M  V30 4042 H 419.208 0.638673 -0.367785 0
M  V30 4043 H 421.85 1.19222 -1.4794 0
M  V30 4044 H 420 3.66586 -1.28636 0
M  V30 4045 H 421.672 2.72635 -3.72112 0
M  V30 4046 H 419.915 2.50751 -3.53986 0
M  V30 4047 H 420.586 4.13728 -3.65422 0
M  V30 4048 H 423.062 3.76913 -1.76284 0
M  V30 4049 H 421.938 5.14391 -1.91553 0
M  V30 4050 H 422.199 4.40774 -0.342193 0
M  V30 4051 N 421.258 1.00505 1.21394 0
M  V30 4052 C 422.483 0.706367 1.95001 0
M  V30 4053 C 422.908 -0.72463 1.73582 0
M  V30 4054 O 422.266 -1.49702 1.0227 0
M  V30 4055 C 422.314 1.03299 3.45487 0
M  V30 4056 O 421.418 0.138275 4.12168 0
M  V30 4057 H 420.759 0.263175 0.609619 0
M  V30 4058 H 423.289 1.34531 1.54151 0
M  V30 4059 H 423.299 0.979872 3.96059 0
M  V30 4060 H 421.974 2.07567 3.60401 0
M  V30 4061 H 420.551 0.247928 3.72075 0
M  V30 4062 N 422.737 -1.36956 0.779787 0
M  V30 4063 C 423.985 -1.99097 0.347079 0
M  V30 4064 C 424.306 -1.62206 -1.08232 0
M  V30 4065 O 423.576 -0.891373 -1.74446 0
M  V30 4066 H 422.156 -0.736409 0.125342 0
M  V30 4067 H 424.818 -1.67308 0.999696 0
M  V30 4068 H 423.914 -3.09107 0.431162 0
M  V30 4069 N 424.215 -0.530993 -1.48385 0
M  V30 4070 C 425.463 0.00273189 -2.021 0
M  V30 4071 C 425.784 1.34672 -1.41027 0
M  V30 4072 O 425.054 1.8724 -0.576012 0
M  V30 4073 H 423.634 0.00399774 -0.746989 0
M  V30 4074 H 426.296 -0.695054 -1.82085 0
M  V30 4075 H 425.392 0.11031 -3.11905 0
M  V30 4076 N 425.693 1.55336 -0.266172 0
M  V30 4077 C 426.921 2.03801 0.356756 0
M  V30 4078 C 427.336 1.14485 1.50129 0
M  V30 4079 O 426.693 0.163121 1.8177 0
M  V30 4080 C 426.744 3.51455 0.846281 0
M  V30 4081 O 426.465 4.37371 -0.252663 0
M  V30 4082 C 427.966 4.15767 1.53794 0
M  V30 4083 H 425.186 0.665906 0.0825218 0
M  V30 4084 H 427.73 2.00636 -0.39566 0
M  V30 4085 H 425.885 3.55092 1.54881 0
M  V30 4086 H 426.299 5.24358 0.122173 0
M  V30 4087 H 427.773 5.20714 1.83198 0
M  V30 4088 H 428.25 3.63404 2.46646 0
M  V30 4089 H 428.856 4.16107 0.879488 0
M  V30 4090 N 427.171 -0.0066808 1.57599 0
M  V30 4091 C 428.42 -0.692078 1.89455 0
M  V30 4092 C 428.733 -1.75306 0.867586 0
M  V30 4093 O 429.939 -2.49262 1.07614 0
M  V30 4094 C 428.395 -1.2821 3.36289 0
M  V30 4095 C 428.003 -0.256291 4.47266 0
M  V30 4096 C 429.747 -1.94608 3.77264 0
M  V30 4097 C 427.654 -0.855927 5.85173 0
M  V30 4098 H 426.584 -0.262252 0.706923 0
M  V30 4099 H 429.235 0.052769 1.83424 0
M  V30 4100 H 427.617 -2.0774 3.37135 0
M  V30 4101 H 428.791 0.513923 4.57925 0
M  V30 4102 H 427.106 0.306862 4.15268 0
M  V30 4103 H 429.703 -2.40364 4.77629 0
M  V30 4104 H 430.046 -2.77382 3.10427 0
M  V30 4105 H 430.579 -1.21822 3.78688 0
M  V30 4106 H 427.318 -0.0671161 6.55466 0
M  V30 4107 H 426.838 -1.59546 5.78191 0
M  V30 4108 H 428.517 -1.35658 6.32618 0
M  V30 4109 N 428.649 -1.55105 -0.279332 0
M  V30 4110 C 429.579 -1.90557 -1.34945 0
M  V30 4111 C 430.56 -0.766738 -1.51839 0
M  V30 4112 O 431.745 -1.02434 -1.64988 0
M  V30 4113 C 428.875 -2.17193 -2.71006 0
M  V30 4114 C 427.829 -3.33021 -2.68851 0
M  V30 4115 C 427.155 -3.45123 -4.08405 0
M  V30 4116 C 428.455 -4.69578 -2.28678 0
M  V30 4117 H 430.149 -2.80188 -1.05522 0
M  V30 4118 H 427.695 -1.34811 -0.506173 0
M  V30 4119 H 429.648 -2.40581 -3.45975 0
M  V30 4120 H 428.372 -1.24355 -3.01999 0
M  V30 4121 H 427.031 -3.0959 -1.9634 0
M  V30 4122 H 426.679 -2.49762 -4.3661 0
M  V30 4123 H 426.379 -4.22995 -4.07859 0
M  V30 4124 H 427.903 -3.70796 -4.85121 0
M  V30 4125 H 429.317 -4.92553 -2.93368 0
M  V30 4126 H 427.714 -5.5032 -2.39306 0
M  V30 4127 H 428.784 -4.68828 -1.23807 0
M  V30 4128 N 430.127 0.543554 -1.4793 0
M  V30 4129 C 431.09 1.63156 -1.60975 0
M  V30 4130 C 432.09 1.53346 -0.483899 0
M  V30 4131 O 433.28 1.5726 -0.749339 0
M  V30 4132 C 430.412 3.02743 -1.56716 0
M  V30 4133 H 431.605 1.52934 -2.57975 0
M  V30 4134 H 429.158 0.764557 -1.36324 0
M  V30 4135 H 429.893 3.18484 -0.611418 0
M  V30 4136 H 429.678 3.11272 -2.38438 0
M  V30 4137 H 431.168 3.81871 -1.6901 0
M  V30 4138 N 431.605 1.3629 0.791371 0
M  V30 4139 C 432.833 1.33562 1.58016 0
M  V30 4140 C 433.248 -0.0835616 1.88615 0
M  V30 4141 O 432.605 -1.0399 1.49974 0
M  V30 4142 C 432.656 2.15517 2.90232 0
M  V30 4143 O 432.377 3.51902 2.60953 0
M  V30 4144 C 433.878 2.20546 3.84544 0
M  V30 4145 H 431.098 0.458226 0.490173 0
M  V30 4146 H 433.642 1.79361 0.982345 0
M  V30 4147 H 431.797 1.73278 3.46487 0
M  V30 4148 H 432.211 3.94644 3.4548 0
M  V30 4149 H 433.685 2.82252 4.74382 0
M  V30 4150 H 434.162 1.20838 4.2225 0
M  V30 4151 H 434.768 2.63013 3.34222 0
M  V30 4152 N 433.083 -1.0153 1.20538 0
M  V30 4153 C 434.329 -1.75408 1.01783 0
M  V30 4154 C 434.662 -1.88943 -0.448814 0
M  V30 4155 O 433.937 -1.4162 -1.33319 0
M  V30 4156 C 434.22 -3.17255 1.70356 0
M  V30 4157 C 434.073 -3.11508 3.24473 0
M  V30 4158 C 435.392 -4.15955 1.43769 0
M  V30 4159 H 432.511 -0.636713 0.371167 0
M  V30 4160 H 435.153 -1.18436 1.4857 0
M  V30 4161 H 433.303 -3.65898 1.30578 0
M  V30 4162 H 434.975 -2.70658 3.73553 0
M  V30 4163 H 433.218 -2.4887 3.55311 0
M  V30 4164 H 433.889 -4.11784 3.67611 0
M  V30 4165 H 436.365 -3.75973 1.7828 0
M  V30 4166 H 435.241 -5.13368 1.94279 0
M  V30 4167 H 435.502 -4.40586 0.365564 0
M  V30 4168 N 434.561 -1.01147 -1.20859 0
M  V30 4169 C 435.972 -0.730205 -1.71828 0
M  V30 4170 C 436.323 0.751662 -1.8123 0
M  V30 4171 O 435.448 1.58686 -1.47132 0
M  V30 4172 C 436.043 -1.31885 -3.12077 0
M  V30 4173 C 434.602 -1.08656 -3.60376 0
M  V30 4174 C 433.749 -1.42769 -2.37723 0
M  V30 4175 H 436.7 -1.18158 -1.05945 0
M  V30 4176 H 436.721 -0.706793 -3.73878 0
M  V30 4177 H 436.233 -2.39737 -3.05201 0
M  V30 4178 H 434.334 -0.0254814 -3.72591 0
M  V30 4179 H 434.447 -1.76301 -4.45483 0
M  V30 4180 H 432.811 -0.846603 -2.40218 0
M  V30 4181 H 433.594 -2.51666 -2.33493 0
M  V30 4182 N 436.039 1.36541 -0.78704 0
M  V30 4183 C 436.969 2.32659 -0.197992 0
M  V30 4184 C 437.95 1.56533 0.665697 0
M  V30 4185 O 439.135 1.84698 0.60001 0
M  V30 4186 C 436.265 3.40778 0.669901 0
M  V30 4187 C 435.219 4.27897 -0.0937039 0
M  V30 4188 C 434.545 5.27163 0.894629 0
M  V30 4189 C 435.845 5.06334 -1.28154 0
M  V30 4190 H 437.539 2.82171 -1.00099 0
M  V30 4191 H 435.085 1.35665 -0.482793 0
M  V30 4192 H 437.038 4.07008 1.09191 0
M  V30 4193 H 435.762 2.89827 1.50558 0
M  V30 4194 H 434.421 3.6322 -0.49666 0
M  V30 4195 H 434.069 4.72486 1.72527 0
M  V30 4196 H 433.769 5.86317 0.388149 0
M  V30 4197 H 435.293 5.96266 1.31525 0
M  V30 4198 H 436.707 5.65617 -0.93541 0
M  V30 4199 H 435.104 5.74888 -1.72115 0
M  V30 4200 H 436.174 4.38114 -2.07807 0
M  V30 4201 N 437.518 0.538854 1.48102 0
M  V30 4202 C 438.764 0.00801365 2.02798 0
M  V30 4203 C 439.097 -1.3309 1.41424 0
M  V30 4204 O 438.372 -1.86169 0.563158 0
M  V30 4205 C 438.655 -0.104589 3.59948 0
M  V30 4206 C 438.508 1.26012 4.31788 0
M  V30 4207 C 439.827 -0.827055 4.32259 0
M  V30 4208 H 436.946 0.00438624 0.736987 0
M  V30 4209 H 439.588 0.6976 1.7673 0
M  V30 4210 H 437.738 -0.691893 3.82289 0
M  V30 4211 H 439.41 1.88922 4.2084 0
M  V30 4212 H 437.653 1.83968 3.92859 0
M  V30 4213 H 438.324 1.13424 5.40221 0
M  V30 4214 H 440.8 -0.328578 4.14801 0
M  V30 4215 H 439.676 -0.87476 5.41885 0
M  V30 4216 H 439.937 -1.87927 4.0017 0
M  V30 4217 N 438.996 -1.55193 0.274407 0
M  V30 4218 C 440.242 -1.99877 -0.343086 0
M  V30 4219 C 440.575 -1.16256 -1.55558 0
M  V30 4220 O 439.85 -0.232462 -1.93106 0
M  V30 4221 C 440.133 -3.52706 -0.725965 0
M  V30 4222 C 439.986 -4.47081 0.493818 0
M  V30 4223 C 441.305 -4.11422 -1.56268 0
M  V30 4224 H 438.424 -0.726625 -0.123229 0
M  V30 4225 H 441.066 -1.86136 0.38121 0
M  V30 4226 H 439.216 -3.64546 -1.34307 0
M  V30 4227 H 440.888 -4.47186 1.13237 0
M  V30 4228 H 439.131 -4.1877 1.13201 0
M  V30 4229 H 439.802 -5.51699 0.18217 0
M  V30 4230 H 442.278 -4.02855 -1.04151 0
M  V30 4231 H 441.154 -5.18568 -1.79939 0
M  V30 4232 H 441.415 -3.61607 -2.54348 0
M  V30 4233 N 440.474 -0.00167713 -1.576 0
M  V30 4234 C 441.751 0.719951 -1.81868 0
M  V30 4235 C 442.131 1.91895 -0.879747 0
M  V30 4236 O 441.479 2.28389 0.0711423 0
M  V30 4237 C 441.689 1.12409 -3.30402 0
M  V30 4238 C 443.037 1.52724 -3.96182 0
M  V30 4239 O 444.061 1.21784 -3.34734 0
M  V30 4240 O 442.92 2.10265 -5.04431 0
M  V30 4241 H 440.014 0.350707 -0.748955 0
M  V30 4242 H 442.56 -0.0272597 -1.69678 0
M  V30 4243 H 441.332 0.269532 -3.90371 0
M  V30 4244 H 440.955 1.93035 -3.47596 0
M  V30 4245 N 441.952 1.55251 0.271103 0
M  V30 4246 C 442.915 1.87484 1.31842 0
M  V30 4247 C 443.915 0.749545 1.42262 0
M  V30 4248 O 445.105 1.01771 1.4138 0
M  V30 4249 C 442.237 2.0818 2.69951 0
M  V30 4250 H 443.43 2.81108 1.0449 0
M  V30 4251 H 440.983 1.47771 0.509258 0
M  V30 4252 H 441.718 1.16944 3.02481 0
M  V30 4253 H 441.503 2.90114 2.63774 0
M  V30 4254 H 442.993 2.34385 3.4562 0
M  V30 4255 N 443.43 -0.535701 1.48216 0
M  V30 4256 C 444.34 -1.66785 1.64985 0
M  V30 4257 C 445.356 -1.65654 0.532414 0
M  V30 4258 O 446.532 -1.8471 0.80275 0
M  V30 4259 C 443.597 -3.0326 1.68031 0
M  V30 4260 C 442.658 -3.1529 2.9136 0
M  V30 4261 C 441.891 -4.45255 2.94252 0
M  V30 4262 O 442.114 -5.32011 2.05719 0
M  V30 4263 O 441.048 -4.6153 3.86359 0
M  V30 4264 H 444.874 -1.55576 2.60825 0
M  V30 4265 H 442.459 -0.70815 1.31551 0
M  V30 4266 H 444.341 -3.84436 1.72589 0
M  V30 4267 H 443.016 -3.14805 0.753628 0
M  V30 4268 H 441.923 -2.3343 2.92337 0
M  V30 4269 H 443.256 -3.08658 3.83394 0
M  V30 4270 N 444.908 -1.36708 -0.784132 0
M  V30 4271 C 445.855 -1.31466 -1.89698 0
M  V30 4272 C 446.825 -0.18239 -1.65096 0
M  V30 4273 O 448.01 -0.369762 -1.87183 0
M  V30 4274 C 445.15 -1.1151 -3.26588 0
M  V30 4275 C 444.263 -2.33859 -3.63227 0
M  V30 4276 C 443.398 -2.06873 -4.89262 0
M  V30 4277 C 442.437 -3.25154 -5.18595 0
M  V30 4278 N 441.574 -2.978 -6.35814 0
M  V30 4279 H 446.414 -2.26619 -1.93515 0
M  V30 4280 H 443.951 -1.12625 -0.946256 0
M  V30 4281 H 445.909 -0.979653 -4.05535 0
M  V30 4282 H 444.539 -0.200103 -3.22179 0
M  V30 4283 H 443.591 -2.58188 -2.79362 0
M  V30 4284 H 444.903 -3.22109 -3.8085 0
M  V30 4285 H 444.057 -1.90289 -5.76086 0
M  V30 4286 H 442.796 -1.15942 -4.73718 0
M  V30 4287 H 441.801 -3.42292 -4.30251 0
M  V30 4288 H 443.026 -4.1692 -5.36055 0
M  V30 4289 H 440.972 -2.09485 -6.21653 0
M  V30 4290 H 440.889 -3.7959 -6.53794 0
M  V30 4291 H 442.157 -2.84805 -7.25607 0
M  V30 4292 N 446.386 1.0089 -1.21074 0
M  V30 4293 C 447.316 2.1145 -0.990523 0
M  V30 4294 C 448.297 1.69897 0.0831699 0
M  V30 4295 O 449.482 1.94052 -0.0758853 0
M  V30 4296 C 446.612 3.42914 -0.550177 0
M  V30 4297 C 445.566 3.98244 -1.56799 0
M  V30 4298 C 444.892 5.25568 -0.984013 0
M  V30 4299 C 446.192 4.30752 -2.95381 0
M  V30 4300 H 447.886 2.3013 -1.91521 0
M  V30 4301 H 445.432 1.10592 -0.92225 0
M  V30 4302 H 447.385 4.19653 -0.383305 0
M  V30 4303 H 446.109 3.24014 0.41015 0
M  V30 4304 H 444.768 3.23621 -1.72236 0
M  V30 4305 H 444.416 5.02998 -0.0155216 0
M  V30 4306 H 444.116 5.63551 -1.66384 0
M  V30 4307 H 445.64 6.04955 -0.828378 0
M  V30 4308 H 447.054 4.98349 -2.8341 0
M  V30 4309 H 445.451 4.79869 -3.60341 0
M  V30 4310 H 446.521 3.39192 -3.46521 0
M  V30 4311 N 447.864 1.01787 1.20321 0
M  V30 4312 C 449.275 0.739307 1.71438 0
M  V30 4313 C 449.626 -0.742041 1.81627 0
M  V30 4314 O 448.751 -1.57903 1.47971 0
M  V30 4315 C 449.346 1.33538 3.11373 0
M  V30 4316 C 447.905 1.10566 3.59795 0
M  V30 4317 C 447.052 1.44028 2.36962 0
M  V30 4318 H 450.003 1.18718 1.05317 0
M  V30 4319 H 450.024 0.726611 3.73498 0
M  V30 4320 H 449.536 2.41352 3.03926 0
M  V30 4321 H 447.637 0.0452405 3.72573 0
M  V30 4322 H 447.75 1.78661 4.44542 0
M  V30 4323 H 446.114 0.85933 2.39766 0
M  V30 4324 H 446.897 2.52901 2.32155 0
M  V30 4325 N 449.342 -1.36122 0.79427 0
M  V30 4326 C 450.591 -1.98361 0.365464 0
M  V30 4327 C 450.904 -1.6374 -1.06997 0
M  V30 4328 O 452.11 -2.19251 -1.60129 0
M  V30 4329 C 450.566 -3.54821 0.602496 0
M  V30 4330 C 450.174 -3.98362 2.04967 0
M  V30 4331 C 451.918 -4.2383 0.238437 0
M  V30 4332 C 449.825 -5.47619 2.2331 0
M  V30 4333 H 448.755 -0.742193 0.13291 0
M  V30 4334 H 451.406 -1.55354 0.976589 0
M  V30 4335 H 449.788 -3.95922 -0.078409 0
M  V30 4336 H 450.962 -3.68447 2.76737 0
M  V30 4337 H 449.277 -3.42206 2.37243 0
M  V30 4338 H 451.874 -5.33529 0.353705 0
M  V30 4339 H 452.217 -4.08264 -0.814006 0
M  V30 4340 H 452.75 -3.88108 0.872769 0
M  V30 4341 H 449.489 -5.68138 3.26955 0
M  V30 4342 H 449.009 -5.79145 1.5605 0
M  V30 4343 H 450.688 -6.13911 2.0426 0
M  V30 4344 N 450.82 -0.546701 -1.47814 0
M  V30 4345 C 451.768 0.220048 -2.31557 0
M  V30 4346 C 452.762 0.919472 -1.42275 0
M  V30 4347 O 453.968 0.841953 -1.59095 0
M  V30 4348 H 450.343 0.0898334 -0.746615 0
M  V30 4349 H 452.314 -0.505589 -2.94086 0
M  V30 4350 C 451.063 1.24353 -3.24702 0
M  V30 4351 H 450.386 0.714758 -3.93359 0
M  V30 4352 H 451.826 1.75112 -3.8615 0
M  V30 4353 C 450.285 2.28593 -2.47481 0
M  V30 4354 O 450.815 3.35334 -2.21165 0
M  V30 4355 N 449.021 2.02244 -2.08676 0
M  V30 4356 H 448.568 1.15455 -2.30278 0
M  V30 4357 H 448.526 2.72207 -1.57323 0
M  V30 4358 N 452.299 1.55045 -0.282633 0
M  V30 4359 C 453.715 1.59441 0.0712997 0
M  V30 4360 C 453.915 1.2998 1.53972 0
M  V30 4361 O 452.971 1.06431 2.28973 0
M  V30 4362 C 454.284 2.99097 -0.310104 0
M  V30 4363 C 455.832 3.1194 -0.257343 0
M  V30 4364 C 456.307 4.53875 -0.613297 0
M  V30 4365 N 457.798 4.5974 -0.565134 0
M  V30 4366 C 458.533 5.67603 -0.81326 0
M  V30 4367 N 458.029 6.83582 -1.1264 0
M  V30 4368 N 459.822 5.57187 -0.741553 0
M  V30 4369 H 451.973 1.72458 -1.23984 0
M  V30 4370 H 454.236 0.804549 -0.501403 0
M  V30 4371 H 453.942 3.25516 -1.33163 0
M  V30 4372 H 453.816 3.75616 0.345366 0
M  V30 4373 H 456.203 2.85281 0.754905 0
M  V30 4374 H 456.284 2.37618 -0.947178 0
M  V30 4375 H 455.928 4.81261 -1.62327 0
M  V30 4376 H 455.858 5.26508 0.09841 0
M  V30 4377 H 458.349 3.76427 -0.333294 0
M  V30 4378 H 458.662 7.6175 -1.30219 0
M  V30 4379 H 457.007 6.85179 -1.16425 0
M  V30 4380 H 460.198 4.65457 -0.496705 0
M  V30 4381 H 460.371 6.41171 -0.938306 0
M  V30 4382 N 453.777 0.010035 1.57597 0
M  V30 4383 C 454.707 -0.976857 2.12084 0
M  V30 4384 C 455.688 -1.35191 1.03235 0
M  V30 4385 O 456.873 -1.43389 1.3097 0
M  V30 4386 C 454.003 -2.26548 2.63236 0
M  V30 4387 C 452.957 -2.03175 3.76701 0
M  V30 4388 C 452.283 -3.38138 4.14206 0
M  V30 4389 C 453.583 -1.38625 5.03568 0
M  V30 4390 H 455.277 -0.523145 2.94794 0
M  V30 4391 H 452.823 -0.250195 1.4181 0
M  V30 4392 H 454.776 -2.95952 2.99984 0
M  V30 4393 H 453.5 -2.74051 1.77661 0
M  V30 4394 H 452.159 -1.36195 3.40362 0
M  V30 4395 H 451.807 -3.83363 3.25641 0
M  V30 4396 H 451.507 -3.23312 4.90656 0
M  V30 4397 H 453.031 -4.08841 4.53521 0
M  V30 4398 H 454.445 -1.98 5.38023 0
M  V30 4399 H 452.842 -1.34256 5.84889 0
M  V30 4400 H 453.912 -0.356722 4.83586 0
M  V30 4401 N 455.255 -1.55392 -0.262866 0
M  V30 4402 C 456.218 -1.88181 -1.30846 0
M  V30 4403 C 457.218 -0.757079 -1.41862 0
M  V30 4404 O 458.408 -1.02519 -1.40838 0
M  V30 4405 C 455.54 -2.09609 -2.68844 0
M  V30 4406 H 456.733 -2.81659 -1.02997 0
M  V30 4407 H 454.286 -1.48039 -0.501414 0
M  V30 4408 H 455.021 -1.18547 -3.01856 0
M  V30 4409 H 454.806 -2.91508 -2.62231 0
M  V30 4410 H 456.296 -2.36215 -3.44372 0
M  V30 4411 N 456.733 0.527833 -1.48498 0
M  V30 4412 C 457.696 1.61439 -1.62696 0
M  V30 4413 C 458.696 1.52824 -0.500136 0
M  V30 4414 O 459.886 1.56456 -0.765976 0
M  V30 4415 C 457.018 3.01063 -1.59918 0
M  V30 4416 H 458.211 1.50189 -2.59583 0
M  V30 4417 H 455.764 0.750055 -1.37127 0
M  V30 4418 H 456.499 3.17818 -0.645163 0
M  V30 4419 H 456.284 3.08725 -2.41726 0
M  V30 4420 H 457.774 3.80057 -1.73051 0
M  V30 4421 N 458.211 1.37122 0.776871 0
M  V30 4422 C 459.459 1.31787 1.53221 0
M  V30 4423 C 459.78 -0.0987589 1.9475 0
M  V30 4424 O 459.05 -1.0417 1.65908 0
M  V30 4425 H 457.63 0.484839 0.568278 0
M  V30 4426 H 460.292 1.71556 0.924917 0
M  V30 4427 H 459.388 1.95355 2.43398 0
M  V30 4428 N 459.689 -1.00246 1.21608 0
M  V30 4429 C 460.914 -1.78167 1.06167 0
M  V30 4430 C 461.339 -1.84138 -0.384035 0
M  V30 4431 O 460.697 -1.28683 -1.27712 0
M  V30 4432 C 460.745 -3.19786 1.66642 0
M  V30 4433 O 459.849 -4.02153 0.913613 0
M  V30 4434 H 459.19 -0.549 0.37349 0
M  V30 4435 H 461.72 -1.25994 1.61204 0
M  V30 4436 H 461.73 -3.70451 1.70969 0
M  V30 4437 H 460.405 -3.14754 2.7185 0
M  V30 4438 H 458.982 -3.60711 0.945635 0
M  V30 4439 N 461.167 -1.02423 -1.1978 0
M  V30 4440 C 462.114 -0.601023 -2.22837 0
M  V30 4441 C 463.084 0.382801 -1.61629 0
M  V30 4442 O 464.269 0.280514 -1.88727 0
M  V30 4443 C 461.409 0.0467755 -3.45068 0
M  V30 4444 C 460.522 -0.98253 -4.20678 0
M  V30 4445 C 459.657 -0.304982 -5.30324 0
M  V30 4446 C 458.696 -1.32052 -5.97686 0
M  V30 4447 N 457.833 -0.669105 -6.98904 0
M  V30 4448 H 462.673 -1.48444 -2.58396 0
M  V30 4449 H 460.21 -0.742936 -1.2696 0
M  V30 4450 H 462.168 0.439556 -4.14878 0
M  V30 4451 H 460.798 0.893796 -3.10179 0
M  V30 4452 H 459.85 -1.49341 -3.49859 0
M  V30 4453 H 461.162 -1.75455 -4.66923 0
M  V30 4454 H 460.316 0.142893 -6.06532 0
M  V30 4455 H 459.055 0.499283 -4.85138 0
M  V30 4456 H 458.06 -1.7787 -5.20233 0
M  V30 4457 H 459.285 -2.1262 -6.44957 0
M  V30 4458 H 457.231 0.115152 -6.55899 0
M  V30 4459 H 457.148 -1.37908 -7.43315 0
M  V30 4460 H 458.416 -0.245076 -7.79115 0
M  V30 4461 N 462.645 1.35699 -0.801477 0
M  V30 4462 C 463.608 2.28199 -0.213994 0
M  V30 4463 C 464.608 1.49359 0.595691 0
M  V30 4464 O 465.798 1.69186 0.414921 0
M  V30 4465 C 462.93 3.33587 0.702297 0
M  V30 4466 H 464.123 2.81666 -1.02976 0
M  V30 4467 H 461.676 1.45467 -0.571759 0
M  V30 4468 H 462.411 2.85297 1.54195 0
M  V30 4469 H 462.196 3.91906 0.123484 0
M  V30 4470 H 463.686 4.02638 1.10783 0
M  V30 4471 N 464.123 0.554532 1.47522 0
M  V30 4472 C 465.534 0.120446 1.86311 0
M  V30 4473 C 465.885 -1.30904 1.46145 0
M  V30 4474 O 465.01 -1.98434 0.863294 0
M  V30 4475 C 465.605 0.211808 3.38137 0
M  V30 4476 C 464.164 -0.167224 3.76028 0
M  V30 4477 C 463.311 0.560576 2.71575 0
M  V30 4478 H 466.262 0.764408 1.39077 0
M  V30 4479 H 466.283 -0.570275 3.76202 0
M  V30 4480 H 465.795 1.25232 3.6734 0
M  V30 4481 H 463.896 -1.20894 3.52442 0
M  V30 4482 H 464.009 0.189473 4.78725 0
M  V30 4483 H 462.373 0.00396836 2.547 0
M  V30 4484 H 463.156 1.60219 3.0362 0
M  V30 4485 N 465.601 -1.54893 0.290851 0
M  V30 4486 C 466.564 -2.21824 -0.576784 0
M  V30 4487 C 467.564 -1.20104 -1.06919 0
M  V30 4488 O 468.754 -1.44906 -0.966843 0
M  V30 4489 C 465.886 -2.89662 -1.79747 0
M  V30 4490 H 467.079 -2.99899 0.00784051 0
M  V30 4491 H 464.632 -1.56245 0.0415934 0
M  V30 4492 H 465.367 -2.15639 -2.42219 0
M  V30 4493 H 465.152 -3.64219 -1.45214 0
M  V30 4494 H 466.642 -3.4075 -2.4141 0
M  V30 4495 N 467.08 -0.0183926 -1.57589 0
M  V30 4496 C 468.305 0.676634 -1.96052 0
M  V30 4497 C 468.73 1.6548 -0.894307 0
M  V30 4498 O 468.088 1.80712 0.145849 0
M  V30 4499 C 468.136 1.36872 -3.33614 0
M  V30 4500 O 467.24 2.48372 -3.29219 0
M  V30 4501 H 466.581 0.1786 -0.63953 0
M  V30 4502 H 469.111 -0.077056 -2.04455 0
M  V30 4503 H 469.121 1.72797 -3.69601 0
M  V30 4504 H 467.796 0.651636 -4.10763 0
M  V30 4505 H 466.373 2.14639 -3.04934 0
M  V30 4506 N 468.558 1.5553 0.254621 0
M  V30 4507 C 469.521 1.88872 1.29846 0
M  V30 4508 C 470.521 0.764591 1.41459 0
M  V30 4509 O 471.711 1.03265 1.40293 0
M  V30 4510 C 468.843 2.11032 2.67728 0
M  V30 4511 H 470.036 2.82201 1.01502 0
M  V30 4512 H 467.589 1.48303 0.493556 0
M  V30 4513 H 468.324 1.20146 3.01223 0
M  V30 4514 H 468.109 2.92895 2.60682 0
M  V30 4515 H 469.599 2.38038 3.43115 0
M  V30 4516 N 470.036 -0.519951 1.48776 0
M  V30 4517 C 470.968 -1.63973 1.60142 0
M  V30 4518 C 471.981 -1.55404 0.485117 0
M  V30 4519 O 473.17 -1.61682 0.756391 0
M  V30 4520 C 470.27 -3.02676 1.52449 0
M  V30 4521 C 469.443 -3.36624 2.79291 0
M  V30 4522 C 468.502 -4.54652 2.64912 0
M  V30 4523 O 467.528 -4.57374 3.38818 0
M  V30 4524 N 468.73 -5.53432 1.75195 0
M  V30 4525 H 471.495 -1.54656 2.56713 0
M  V30 4526 H 469.056 -0.707439 1.45626 0
M  V30 4527 H 471.048 -3.79525 1.4051 0
M  V30 4528 H 469.618 -3.06018 0.638125 0
M  V30 4529 H 468.838 -2.48855 3.0572 0
M  V30 4530 H 470.126 -3.56094 3.6342 0
M  V30 4531 H 469.524 -5.54018 1.14371 0
M  V30 4532 H 468.081 -6.29459 1.69189 0
M  V30 4533 N 471.514 -1.37532 -0.769588 0
M  V30 4534 C 472.739 -1.36231 -1.56384 0
M  V30 4535 C 473.164 0.0495849 -1.88035 0
M  V30 4536 O 472.522 1.02723 -1.49391 0
M  V30 4537 C 472.57 -2.20986 -2.84952 0
M  V30 4538 O 471.674 -1.61597 -3.79421 0
M  V30 4539 H 471.015 -0.465387 -0.473615 0
M  V30 4540 H 473.545 -1.81085 -0.952342 0
M  V30 4541 H 473.555 -2.34277 -3.34034 0
M  V30 4542 H 472.23 -3.23612 -2.61243 0
M  V30 4543 H 470.807 -1.57359 -3.38072 0
M  V30 4544 N 472.992 0.995999 -1.22138 0
M  V30 4545 C 474.408 1.25917 -0.980667 0
M  V30 4546 C 474.608 1.98819 0.327604 0
M  V30 4547 O 473.664 2.29587 1.05101 0
M  V30 4548 C 474.977 2.07399 -2.17729 0
M  V30 4549 C 476.525 2.20594 -2.22052 0
M  V30 4550 C 477 3.05462 -3.41258 0
M  V30 4551 N 478.491 3.13049 -3.41401 0
M  V30 4552 C 479.226 3.78997 -4.30289 0
M  V30 4553 N 478.722 4.46899 -5.2939 0
M  V30 4554 N 480.515 3.75728 -4.18073 0
M  V30 4555 H 472.666 0.507158 -2.06256 0
M  V30 4556 H 474.929 0.28658 -0.903646 0
M  V30 4557 H 474.635 1.61191 -3.12586 0
M  V30 4558 H 474.509 3.08154 -2.17534 0
M  V30 4559 H 476.896 2.66017 -1.27745 0
M  V30 4560 H 476.977 1.1928 -2.26287 0
M  V30 4561 H 476.621 2.60739 -4.35864 0
M  V30 4562 H 476.551 4.06911 -3.34262 0
M  V30 4563 H 479.042 2.64721 -2.69688 0
M  V30 4564 H 479.355 4.94952 -5.935 0
M  V30 4565 H 477.7 4.45657 -5.33306 0
M  V30 4566 H 480.891 3.2184 -3.39907 0
M  V30 4567 H 481.064 4.26845 -4.87553 0
M  V30 4568 N 474.47 1.03057 1.19235 0
M  V30 4569 C 475.718 0.726581 1.88587 0
M  V30 4570 C 476.039 -0.747227 1.80115 0
M  V30 4571 O 475.309 -1.53849 1.21274 0
M  V30 4572 H 473.889 0.265768 0.698124 0
M  V30 4573 H 476.551 1.30516 1.44746 0
M  V30 4574 H 475.647 1.0224 2.94879 0
M  V30 4575 N 475.948 -1.35272 0.808662 0
M  V30 4576 C 476.858 -2.33546 0.222079 0
M  V30 4577 C 477.874 -1.6196 -0.636011 0
M  V30 4578 O 479.05 -1.93822 -0.547274 0
M  V30 4579 C 476.115 -3.41148 -0.61795 0
M  V30 4580 C 475.176 -4.28507 0.260875 0
M  V30 4581 C 474.409 -5.3097 -0.539156 0
M  V30 4582 O 474.632 -5.42123 -1.77367 0
M  V30 4583 O 473.566 -6.01858 0.0710526 0
M  V30 4584 H 477.392 -2.85515 1.03512 0
M  V30 4585 H 474.977 -1.38079 0.570495 0
M  V30 4586 H 476.859 -4.06889 -1.09634 0
M  V30 4587 H 475.534 -2.91447 -1.40855 0
M  V30 4588 H 474.441 -3.6574 0.786451 0
M  V30 4589 H 475.774 -4.81611 1.01547 0
M  V30 4590 N 477.426 -0.562348 -1.47226 0
M  V30 4591 C 478.373 0.182461 -2.30078 0
M  V30 4592 C 479.343 0.903503 -1.39377 0
M  V30 4593 O 480.528 0.898188 -1.68337 0
M  V30 4594 C 477.668 1.20322 -3.23445 0
M  V30 4595 C 476.781 0.487717 -4.29238 0
M  V30 4596 C 475.916 1.49422 -5.09752 0
M  V30 4597 C 474.955 0.763976 -6.07314 0
M  V30 4598 N 474.092 1.71755 -6.80768 0
M  V30 4599 H 478.932 -0.530169 -2.93246 0
M  V30 4600 H 476.469 -0.273276 -1.44539 0
M  V30 4601 H 478.427 1.80768 -3.76004 0
M  V30 4602 H 477.057 1.88382 -2.6213 0
M  V30 4603 H 476.109 -0.231374 -3.79696 0
M  V30 4604 H 477.421 -0.0841003 -4.98729 0
M  V30 4605 H 476.575 2.17206 -5.66486 0
M  V30 4606 H 475.314 2.09995 -4.40174 0
M  V30 4607 H 474.319 0.0722344 -5.49753 0
M  V30 4608 H 475.544 0.16391 -6.78902 0
M  V30 4609 H 473.49 2.31177 -6.13916 0
M  V30 4610 H 473.407 1.19802 -7.46447 0
M  V30 4611 H 474.675 2.38638 -7.42073 0
M  V30 4612 N 478.904 1.54736 -0.299062 0
M  V30 4613 C 480.32 1.59507 0.0543849 0
M  V30 4614 C 480.52 1.31606 1.52585 0
M  V30 4615 O 479.576 1.08853 2.27832 0
M  V30 4616 C 480.889 2.98751 -0.34181 0
M  V30 4617 C 482.437 3.1165 -0.290414 0
M  V30 4618 C 482.912 4.53199 -0.661402 0
M  V30 4619 N 484.403 4.59114 -0.613863 0
M  V30 4620 C 485.138 5.66709 -0.873417 0
M  V30 4621 N 484.634 6.82349 -1.19884 0
M  V30 4622 N 486.427 5.56369 -0.800608 0
M  V30 4623 H 478.578 1.71133 -1.25806 0
M  V30 4624 H 480.841 0.799186 -0.509908 0
M  V30 4625 H 480.547 3.24085 -1.36608 0
M  V30 4626 H 480.421 3.75961 0.305508 0
M  V30 4627 H 482.808 2.86066 0.724605 0
M  V30 4628 H 482.889 2.366 -0.972327 0
M  V30 4629 H 482.533 4.79513 -1.67422 0
M  V30 4630 H 482.463 5.26583 0.0425612 0
M  V30 4631 H 484.954 3.76053 -0.3732 0
M  V30 4632 H 485.267 7.60326 -1.38291 0
M  V30 4633 H 483.612 6.83906 -1.23685 0
M  V30 4634 H 486.803 4.64904 -0.546045 0
M  V30 4635 H 486.976 6.40139 -1.00626 0
M  V30 4636 N 480.382 0.0267497 1.57577 0
M  V30 4637 C 481.61 -0.662661 1.96001 0
M  V30 4638 C 482.025 -1.65799 0.903117 0
M  V30 4639 O 481.382 -1.82135 -0.115317 0
M  V30 4640 C 481.433 -1.37112 3.34488 0
M  V30 4641 O 481.154 -0.415683 4.36123 0
M  V30 4642 C 482.655 -2.15257 3.8753 0
M  V30 4643 H 479.875 -0.18287 0.6456 0
M  V30 4644 H 482.419 0.0858116 2.0432 0
M  V30 4645 H 480.574 -2.07101 3.27395 0
M  V30 4646 H 480.988 -0.918496 5.16395 0
M  V30 4647 H 482.462 -2.60285 4.86781 0
M  V30 4648 H 482.939 -2.99063 3.21649 0
M  V30 4649 H 483.545 -1.50231 3.97883 0
M  V30 4650 N 481.861 -1.55662 -0.24637 0
M  V30 4651 C 482.824 -1.89558 -1.28842 0
M  V30 4652 C 483.824 -0.772082 -1.41052 0
M  V30 4653 O 485.014 -1.04007 -1.39743 0
M  V30 4654 C 482.146 -2.12449 -2.66605 0
M  V30 4655 H 483.339 -2.82735 -1.00004 0
M  V30 4656 H 480.892 -1.48562 -0.485684 0
M  V30 4657 H 481.627 -1.21742 -3.00582 0
M  V30 4658 H 481.412 -2.94273 -2.59125 0
M  V30 4659 H 482.902 -2.39854 -3.41847 0
M  V30 4660 N 483.339 0.512053 -1.4905 0
M  V30 4661 C 484.289 1.61142 -1.61298 0
M  V30 4662 C 485.273 1.53908 -0.46916 0
M  V30 4663 O 486.465 1.61625 -0.721547 0
M  V30 4664 C 483.594 2.998 -1.67256 0
M  V30 4665 C 482.68 3.12072 -2.87179 0
M  V30 4666 N 483.071 2.94263 -4.11391 0
M  V30 4667 C 481.369 3.43156 -2.84886 0
M  V30 4668 C 482.07 3.10426 -4.91946 0
M  V30 4669 N 481.046 3.38808 -4.251 0
M  V30 4670 H 484.848 1.46011 -2.55065 0
M  V30 4671 H 482.362 0.717934 -1.45669 0
M  V30 4672 H 484.359 3.78794 -1.74128 0
M  V30 4673 H 483.019 3.1601 -0.746195 0
M  V30 4674 H 484.03 2.70661 -4.41546 0
M  V30 4675 H 480.707 3.65611 -2.01581 0
M  V30 4676 H 482.097 3.01243 -6.00585 0
M  V30 4677 N 484.817 1.37938 0.762283 0
M  V30 4678 C 485.765 1.34569 1.89721 0
M  V30 4679 C 486.759 0.232929 1.67791 0
M  V30 4680 O 487.965 0.401485 1.75465 0
M  V30 4681 H 484.34 0.419594 0.624055 0
M  V30 4682 H 486.311 2.30357 1.8968 0
M  V30 4683 C 485.06 1.17898 3.27101 0
M  V30 4684 H 484.383 2.02781 3.44558 0
M  V30 4685 H 485.823 1.19593 4.06784 0
M  V30 4686 C 484.282 -0.114728 3.36705 0
M  V30 4687 O 484.812 -1.0949 3.8649 0
M  V30 4688 N 483.018 -0.16863 2.9011 0
M  V30 4689 H 482.565 0.62967 2.49786 0
M  V30 4690 H 482.523 -1.03383 2.96916 0
M  V30 4691 N 486.295 -0.989507 1.22664 0
M  V30 4692 C 487.258 -2.06183 1.00106 0
M  V30 4693 C 488.258 -1.60765 -0.0337726 0
M  V30 4694 O 489.448 -1.72989 0.205072 0
M  V30 4695 C 486.58 -3.37021 0.51279 0
M  V30 4696 H 487.773 -2.27629 1.95256 0
M  V30 4697 H 485.326 -1.16158 1.0458 0
M  V30 4698 H 486.061 -3.21261 -0.442917 0
M  V30 4699 H 485.846 -3.71323 1.25942 0
M  V30 4700 H 487.336 -4.1591 0.375315 0
M  V30 4701 N 487.773 -1.03688 -1.18687 0
M  V30 4702 C 489.022 -0.733235 -1.879 0
M  V30 4703 C 489.335 0.741745 -1.8099 0
M  V30 4704 O 490.541 1.15875 -2.4553 0
M  V30 4705 C 488.997 -1.26127 -3.37076 0
M  V30 4706 C 488.605 -2.76461 -3.52524 0
M  V30 4707 C 490.349 -1.03398 -4.11715 0
M  V30 4708 C 488.256 -3.22642 -4.95637 0
M  V30 4709 H 487.186 -0.270584 -0.703776 0
M  V30 4710 H 489.837 -1.25222 -1.34133 0
M  V30 4711 H 488.219 -0.670165 -3.90288 0
M  V30 4712 H 489.393 -3.41296 -3.09602 0
M  V30 4713 H 487.708 -2.97559 -2.91286 0
M  V30 4714 H 490.305 -1.3542 -5.17267 0
M  V30 4715 H 490.648 0.0289246 -4.1629 0
M  V30 4716 H 491.181 -1.5895 -3.64664 0
M  V30 4717 H 487.92 -4.28296 -4.96228 0
M  V30 4718 H 487.44 -2.62539 -5.39289 0
M  V30 4719 H 489.119 -3.16444 -5.64333 0
M  V30 4720 N 489.251 1.34841 -0.815825 0
M  V30 4721 C 490.161 2.33425 -0.234462 0
M  V30 4722 C 491.177 1.62295 0.627413 0
M  V30 4723 O 492.353 1.94109 0.536987 0
M  V30 4724 C 489.418 3.41471 0.599849 0
M  V30 4725 C 488.479 4.28362 -0.283596 0
M  V30 4726 C 487.712 5.31248 0.51099 0
M  V30 4727 O 487.935 5.43056 1.7449 0
M  V30 4728 O 486.869 6.01812 -0.10297 0
M  V30 4729 H 490.695 2.84962 -1.05024 0
M  V30 4730 H 488.28 1.37774 -0.577809 0
M  V30 4731 H 490.162 4.07464 1.07475 0
M  V30 4732 H 488.837 2.9219 1.39308 0
M  V30 4733 H 487.744 3.65318 -0.805836 0
M  V30 4734 H 489.077 4.81066 -1.041 0
M  V30 4735 N 490.729 0.570148 1.46925 0
M  V30 4736 C 491.676 -0.170257 2.30171 0
M  V30 4737 C 492.646 -0.896099 1.39855 0
M  V30 4738 O 493.831 -0.889248 1.68811 0
M  V30 4739 C 490.971 -1.18605 3.24079 0
M  V30 4740 C 490.084 -0.464947 4.29491 0
M  V30 4741 C 489.219 -1.46716 5.10537 0
M  V30 4742 C 488.258 -0.731758 6.0771 0
M  V30 4743 N 487.395 -1.68142 6.81669 0
M  V30 4744 H 492.235 0.545713 2.92961 0
M  V30 4745 H 489.772 0.280938 1.44392 0
M  V30 4746 H 491.73 -1.78771 3.76957 0
M  V30 4747 H 490.36 -1.86989 2.63125 0
M  V30 4748 H 489.412 0.251506 3.79568 0
M  V30 4749 H 490.724 0.110548 4.98677 0
M  V30 4750 H 489.878 -2.14199 5.6763 0
M  V30 4751 H 488.617 -2.07658 4.41282 0
M  V30 4752 H 487.622 -0.0430787 5.49783 0
M  V30 4753 H 488.847 -0.127904 6.7898 0
M  V30 4754 H 486.793 -2.27918 6.15134 0
M  V30 4755 H 486.71 -1.15841 7.47072 0
M  V30 4756 H 487.978 -2.347 7.43328 0
M  V30 4757 N 492.207 -1.54576 0.307264 0
M  V30 4758 C 493.623 -1.59534 -0.0459251 0
M  V30 4759 C 493.823 -1.32414 -1.51884 0
M  V30 4760 O 492.879 -1.1006 -2.27251 0
M  V30 4761 C 494.192 -2.98566 0.357649 0
M  V30 4762 C 495.74 -3.11491 0.306937 0
M  V30 4763 C 496.215 -4.52842 0.685427 0
M  V30 4764 N 497.706 -4.58782 0.638203 0
M  V30 4765 C 498.441 -5.66238 0.903458 0
M  V30 4766 N 497.937 -6.81703 1.23501 0
M  V30 4767 N 499.73 -5.55937 0.830102 0
M  V30 4768 H 491.881 -1.70464 1.26712 0
M  V30 4769 H 494.144 -0.79647 0.514139 0
M  V30 4770 H 493.85 -3.23356 1.38325 0
M  V30 4771 H 493.724 -3.76117 -0.285565 0
M  V30 4772 H 496.111 -2.86446 -0.709424 0
M  V30 4773 H 496.192 -2.36081 0.984861 0
M  V30 4774 H 495.836 -4.78618 1.69963 0
M  V30 4775 H 495.766 -5.26598 -0.0146346 0
M  V30 4776 H 498.257 -3.75849 0.393138 0
M  V30 4777 H 498.57 -7.59582 1.42322 0
M  V30 4778 H 496.915 -6.8324 1.27311 0
M  V30 4779 H 500.106 -4.64608 0.570693 0
M  V30 4780 H 500.279 -6.39597 1.04019 0
M  V30 4781 N 493.685 -0.035106 -1.57561 0
M  V30 4782 C 494.915 0.651312 -1.96065 0
M  V30 4783 C 495.323 1.6585 -0.910514 0
M  V30 4784 O 494.666 1.83336 0.11552 0
M  V30 4785 C 494.728 1.40897 -3.30739 0
M  V30 4786 C 494.392 0.559436 -4.53563 0
M  V30 4787 C 495.389 -0.16778 -5.19629 0
M  V30 4788 C 493.074 0.495079 -4.99854 0
M  V30 4789 C 495.068 -0.947963 -6.30311 0
M  V30 4790 C 492.755 -0.288804 -6.10417 0
M  V30 4791 C 493.753 -1.00903 -6.75505 0
M  V30 4792 O 493.441 -1.78005 -7.83945 0
M  V30 4793 H 493.173 0.184036 -0.650467 0
M  V30 4794 H 495.727 -0.0929677 -2.05189 0
M  V30 4795 H 493.957 2.19852 -3.18123 0
M  V30 4796 H 495.646 1.98407 -3.54104 0
M  V30 4797 H 496.412 -0.12743 -4.84833 0
M  V30 4798 H 492.291 1.04524 -4.48994 0
M  V30 4799 H 495.835 -1.51064 -6.81047 0
M  V30 4800 H 491.732 -0.33085 -6.44652 0
M  V30 4801 H 492.5 -1.70046 -8.00641 0
M  V30 4802 N 495.163 1.55791 0.238111 0
M  V30 4803 C 496.579 1.48411 0.587045 0
M  V30 4804 C 496.779 0.72702 1.87927 0
M  V30 4805 O 495.835 0.259942 2.51158 0
M  V30 4806 C 497.148 2.92873 0.681623 0
M  V30 4807 C 498.696 3.03295 0.773363 0
M  V30 4808 C 499.171 4.49082 0.899428 0
M  V30 4809 N 500.662 4.53056 0.964075 0
M  V30 4810 C 501.397 5.63117 1.08104 0
M  V30 4811 N 500.893 6.82969 1.16299 0
M  V30 4812 N 502.686 5.50933 1.11488 0
M  V30 4813 H 494.837 2.0345 -0.610076 0
M  V30 4814 H 497.1 0.924034 -0.211813 0
M  V30 4815 H 496.806 3.51142 -0.19802 0
M  V30 4816 H 496.68 3.43851 1.55069 0
M  V30 4817 H 499.067 2.45101 1.64346 0
M  V30 4818 H 499.148 2.55513 -0.121034 0
M  V30 4819 H 498.792 5.07889 0.0338586 0
M  V30 4820 H 498.722 4.94553 1.809 0
M  V30 4821 H 501.213 3.66737 0.91173 0
M  V30 4822 H 501.526 7.62598 1.25155 0
M  V30 4823 H 499.871 6.85712 1.13241 0
M  V30 4824 H 503.062 4.56231 1.0474 0
M  V30 4825 H 503.235 6.36743 1.20259 0
M  V30 4826 N 496.642 -0.504142 1.49319 0
M  V30 4827 C 497.867 -1.28729 1.62615 0
M  V30 4828 C 498.292 -1.85752 0.296309 0
M  V30 4829 O 497.65 -1.65704 -0.735649 0
M  V30 4830 C 497.698 -2.39561 2.69524 0
M  V30 4831 O 496.802 -3.43324 2.28478 0
M  V30 4832 H 496.143 -0.380172 0.544395 0
M  V30 4833 H 498.673 -0.603872 1.95485 0
M  V30 4834 H 498.683 -2.8537 2.91595 0
M  V30 4835 H 497.358 -1.97423 3.66056 0
M  V30 4836 H 495.935 -3.03455 2.16725 0
M  V30 4837 N 498.12 -1.38341 -0.754957 0
M  V30 4838 C 499.345 -1.37882 -1.5493 0
M  V30 4839 C 499.77 0.0296385 -1.88077 0
M  V30 4840 O 499.128 1.01133 -1.50472 0
M  V30 4841 C 499.176 -2.23996 -2.82592 0
M  V30 4842 O 498.28 -1.65612 -3.77686 0
M  V30 4843 H 497.621 -0.470384 -0.468652 0
M  V30 4844 H 500.151 -1.82084 -0.933082 0
M  V30 4845 H 500.161 -2.37806 -3.3153 0
M  V30 4846 H 498.836 -3.26365 -2.57796 0
M  V30 4847 H 497.413 -1.60936 -3.36384 0
M  V30 4848 N 499.598 0.982988 -1.23187 0
M  V30 4849 C 500.847 1.71817 -1.05649 0
M  V30 4850 C 501.16 1.91315 0.407176 0
M  V30 4851 O 502.366 2.62256 0.702436 0
M  V30 4852 C 500.822 3.09188 -1.84203 0
M  V30 4853 C 500.43 2.97586 -3.34882 0
M  V30 4854 C 502.174 3.86684 -1.75146 0
M  V30 4855 C 500.081 4.30173 -4.05839 0
M  V30 4856 H 499.011 0.644258 -0.391724 0
M  V30 4857 H 501.662 1.09659 -1.4713 0
M  V30 4858 H 500.044 3.72087 -1.35527 0
M  V30 4859 H 501.218 2.43793 -3.91026 0
M  V30 4860 H 499.533 2.33567 -3.44725 0
M  V30 4861 H 502.13 4.84836 -2.25473 0
M  V30 4862 H 502.473 4.10136 -0.713737 0
M  V30 4863 H 503.006 3.30482 -2.21419 0
M  V30 4864 H 499.745 4.11918 -5.09906 0
M  V30 4865 H 499.265 4.83841 -3.54482 0
M  V30 4866 H 500.944 4.98873 -4.11989 0
M  V30 4867 N 501.076 1.04316 1.18135 0
M  V30 4868 C 502.024 0.630175 2.23901 0
M  V30 4869 C 503.018 -0.344254 1.65865 0
M  V30 4870 O 504.224 -0.211273 1.78756 0
M  V30 4871 H 500.599 0.185578 0.728742 0
M  V30 4872 H 502.57 1.53253 2.56039 0
M  V30 4873 C 501.319 0.011666 3.47698 0
M  V30 4874 H 500.642 0.752526 3.92654 0
M  V30 4875 H 502.082 -0.240046 4.2332 0
M  V30 4876 C 500.541 -1.23913 3.13285 0
M  V30 4877 O 501.071 -2.32959 3.27251 0
M  V30 4878 N 499.277 -1.13338 2.67587 0
M  V30 4879 H 498.824 -0.246006 2.56423 0
M  V30 4880 H 498.782 -1.97116 2.44934 0
M  V30 4881 N 502.554 -1.34406 0.822964 0
M  V30 4882 C 503.831 -1.92733 0.333641 0
M  V30 4883 C 504.211 -1.75107 -1.17901 0
M  V30 4884 O 503.559 -1.12983 -1.98613 0
M  V30 4885 C 503.769 -3.40557 0.763023 0
M  V30 4886 C 505.117 -4.17709 0.761879 0
M  V30 4887 O 506.141 -3.49141 0.705606 0
M  V30 4888 O 505 -5.40082 0.835109 0
M  V30 4889 H 502.094 -0.821964 0.0911249 0
M  V30 4890 H 504.64 -1.4338 0.907757 0
M  V30 4891 H 503.412 -3.47187 1.8049 0
M  V30 4892 H 503.035 -3.97259 0.164605 0
M  V30 4893 N 504.032 -0.577932 -1.46621 0
M  V30 4894 C 504.979 0.158048 -2.30258 0
M  V30 4895 C 505.949 0.888669 -1.40328 0
M  V30 4896 O 507.134 0.880283 -1.6928 0
M  V30 4897 C 504.274 1.16884 -3.24703 0
M  V30 4898 C 503.387 0.442163 -4.29731 0
M  V30 4899 C 502.522 1.44007 -5.11308 0
M  V30 4900 C 501.561 0.69952 -6.0809 0
M  V30 4901 N 500.698 1.64525 -6.82551 0
M  V30 4902 H 505.538 -0.561242 -2.92667 0
M  V30 4903 H 503.075 -0.288591 -1.44241 0
M  V30 4904 H 505.033 1.7677 -3.779 0
M  V30 4905 H 503.663 1.85591 -2.64113 0
M  V30 4906 H 502.715 -0.271632 -3.79429 0
M  V30 4907 H 504.027 -0.136992 -4.98612 0
M  V30 4908 H 503.181 2.11186 -5.68758 0
M  V30 4909 H 501.92 2.05315 -4.42377 0
M  V30 4910 H 500.925 0.0139217 -5.49798 0
M  V30 4911 H 502.15 0.091894 -6.79038 0
M  V30 4912 H 500.096 2.24653 -6.16334 0
M  V30 4913 H 500.013 1.11878 -7.47676 0
M  V30 4914 H 501.281 2.30754 -7.44562 0
M  V30 4915 N 505.51 1.54411 -0.315457 0
M  V30 4916 C 506.759 1.99599 0.290395 0
M  V30 4917 C 507.072 1.20746 1.53882 0
M  V30 4918 O 508.278 1.56272 2.22017 0
M  V30 4919 C 506.734 3.5539 0.56797 0
M  V30 4920 C 506.342 4.43068 -0.662945 0
M  V30 4921 C 508.086 4.09067 1.13422 0
M  V30 4922 C 505.993 5.90317 -0.357722 0
M  V30 4923 H 504.923 0.745592 0.112286 0
M  V30 4924 H 507.574 1.78477 -0.426418 0
M  V30 4925 H 505.956 3.72468 1.34476 0
M  V30 4926 H 507.13 4.37765 -1.43869 0
M  V30 4927 H 505.445 4.00238 -1.14884 0
M  V30 4928 H 508.042 5.16663 1.37707 0
M  V30 4929 H 508.385 3.60552 2.08106 0
M  V30 4930 H 508.918 3.95589 0.418805 0
M  V30 4931 H 505.657 6.4301 -1.27351 0
M  V30 4932 H 505.177 5.98592 0.380472 0
M  V30 4933 H 506.856 6.4699 0.0354284 0
M  V30 4934 N 506.988 0.0434614 1.5754 0
M  V30 4935 C 508.237 -0.631454 1.91561 0
M  V30 4936 C 508.55 -1.72457 0.92292 0
M  V30 4937 O 509.756 -2.45712 1.15489 0
M  V30 4938 C 508.212 -1.17447 3.40197 0
M  V30 4939 C 507.82 -0.113867 4.47855 0
M  V30 4940 C 509.564 -1.82507 3.83264 0
M  V30 4941 C 507.471 -0.669326 5.876 0
M  V30 4942 H 506.401 -0.239629 0.714908 0
M  V30 4943 H 509.052 0.111097 1.83163 0
M  V30 4944 H 507.434 -1.96909 3.43574 0
M  V30 4945 H 508.608 0.659348 4.56058 0
M  V30 4946 H 506.923 0.438821 4.14081 0
M  V30 4947 H 509.52 -2.25047 4.85034 0
M  V30 4948 H 509.863 -2.67365 3.19095 0
M  V30 4949 H 510.396 -1.09712 3.82372 0
M  V30 4950 H 507.135 0.141449 6.55347 0
M  V30 4951 H 506.655 -1.4107 5.82974 0
M  V30 4952 H 508.334 -1.15463 6.36614 0
M  V30 4953 N 508.466 -1.55915 -0.229846 0
M  V30 4954 C 509.376 -1.94891 -1.30593 0
M  V30 4955 C 510.392 -0.851604 -1.51736 0
M  V30 4956 O 511.568 -1.15447 -1.65027 0
M  V30 4957 C 508.633 -2.25052 -2.63728 0
M  V30 4958 C 507.694 -3.48306 -2.5096 0
M  V30 4959 C 506.927 -3.77019 -3.77747 0
M  V30 4960 O 507.15 -3.07534 -4.80395 0
M  V30 4961 O 506.084 -4.70523 -3.75356 0
M  V30 4962 H 509.91 -2.86581 -1.00525 0
M  V30 4963 H 507.495 -1.43017 -0.432025 0
M  V30 4964 H 509.377 -2.45682 -3.42372 0
M  V30 4965 H 508.052 -1.36538 -2.93495 0
M  V30 4966 H 506.959 -3.32964 -1.70546 0
M  V30 4967 H 508.292 -4.37177 -2.26136 0
M  V30 4968 N 509.944 0.496216 -1.49584 0
M  V30 4969 C 510.874 1.60576 -1.69521 0
M  V30 4970 C 511.855 1.61169 -0.543933 0
M  V30 4971 O 513.04 1.77834 -0.78031 0
M  V30 4972 C 510.17 2.99038 -1.76616 0
M  V30 4973 C 509.124 3.13312 -2.91581 0
M  V30 4974 C 508.45 4.53172 -2.83794 0
M  V30 4975 C 509.75 2.92886 -4.32452 0
M  V30 4976 H 511.444 1.44146 -2.62416 0
M  V30 4977 H 508.99 0.692024 -1.26282 0
M  V30 4978 H 510.943 3.76564 -1.8915 0
M  V30 4979 H 509.667 3.16568 -0.80324 0
M  V30 4980 H 508.326 2.38213 -2.78658 0
M  V30 4981 H 507.974 4.67585 -1.854 0
M  V30 4982 H 507.674 4.63662 -3.60958 0
M  V30 4983 H 509.198 5.32752 -2.98342 0
M  V30 4984 H 510.612 3.60178 -4.46032 0
M  V30 4985 H 509.009 3.14844 -5.10875 0
M  V30 4986 H 510.079 1.88966 -4.46565 0
M  V30 4987 N 511.423 1.38739 0.74761 0
M  V30 4988 C 512.37 1.36449 1.86146 0
M  V30 4989 C 513.34 0.226098 1.64554 0
M  V30 4990 O 514.525 0.41926 1.86137 0
M  V30 4991 C 511.665 1.2013 3.23516 0
M  V30 4992 C 510.778 2.43407 3.56899 0
M  V30 4993 C 509.913 2.19773 4.83605 0
M  V30 4994 C 508.952 3.3879 5.09792 0
M  V30 4995 N 508.089 3.14553 6.27695 0
M  V30 4996 H 512.929 2.3167 1.87438 0
M  V30 4997 H 510.466 1.15094 0.916063 0
M  V30 4998 H 512.424 1.08683 4.02795 0
M  V30 4999 H 511.054 0.285453 3.21535 0
M  V30 5000 H 510.106 2.65504 2.72418 0
M  V30 5001 H 511.418 3.32094 3.72176 0
M  V30 5002 H 510.572 2.05496 5.70838 0
M  V30 5003 H 509.311 1.28461 4.70478 0
M  V30 5004 H 508.316 3.53579 4.21025 0
M  V30 5005 H 509.541 4.30986 5.24812 0
M  V30 5006 H 507.487 2.25893 6.1588 0
M  V30 5007 H 507.404 3.96791 6.435 0
M  V30 5008 H 508.672 3.03943 7.17801 0
M  V30 5009 N 512.901 -0.976442 1.23707 0
M  V30 5010 C 514.178 -1.69296 0.979699 0
M  V30 5011 C 514.558 -2.0508 -0.500555 0
M  V30 5012 O 513.906 -1.74708 -1.47273 0
M  V30 5013 C 514.116 -2.93143 1.89389 0
M  V30 5014 C 515.464 -3.65572 2.15968 0
M  V30 5015 O 516.488 -3.03184 1.86971 0
M  V30 5016 O 515.347 -4.77859 2.65167 0
M  V30 5017 H 512.441 -0.739708 0.369812 0
M  V30 5018 H 514.987 -1.03131 1.34767 0
M  V30 5019 H 513.759 -2.63327 2.89439 0
M  V30 5020 H 513.382 -3.67044 1.52854 0
M  V30 5021 N 514.379 -1.04941 -1.1758 0
M  V30 5022 C 515.309 -0.669172 -2.23706 0
M  V30 5023 C 516.29 0.331835 -1.66832 0
M  V30 5024 O 517.475 0.209988 -1.93061 0
M  V30 5025 C 514.605 -0.0404889 -3.47276 0
M  V30 5026 C 513.559 -0.965983 -4.16957 0
M  V30 5027 C 512.885 -0.201312 -5.34321 0
M  V30 5028 C 514.185 -2.28902 -4.69469 0
M  V30 5029 H 515.879 -1.55639 -2.55767 0
M  V30 5030 H 513.425 -0.749793 -1.22939 0
M  V30 5031 H 515.378 0.237298 -4.20731 0
M  V30 5032 H 514.102 0.881658 -3.14475 0
M  V30 5033 H 512.761 -1.22829 -3.45411 0
M  V30 5034 H 512.409 0.723519 -4.97769 0
M  V30 5035 H 512.109 -0.817968 -5.81879 0
M  V30 5036 H 513.633 0.0692499 -6.10561 0
M  V30 5037 H 515.047 -2.07132 -5.34574 0
M  V30 5038 H 513.444 -2.85942 -5.27596 0
M  V30 5039 H 514.514 -2.92937 -3.86414 0
M  V30 5040 N 515.857 1.33968 -0.830081 0
M  V30 5041 C 517.103 1.98357 -0.422191 0
M  V30 5042 C 517.436 1.65633 1.01387 0
M  V30 5043 O 516.711 0.931648 1.70735 0
M  V30 5044 C 516.994 3.54492 -0.633043 0
M  V30 5045 C 516.847 3.96934 -2.11574 0
M  V30 5046 C 518.166 4.40039 -0.0735584 0
M  V30 5047 H 515.285 0.720544 -0.154871 0
M  V30 5048 H 517.927 1.58749 -1.04397 0
M  V30 5049 H 516.077 3.88361 -0.103775 0
M  V30 5050 H 517.749 3.73363 -2.7092 0
M  V30 5051 H 515.992 3.46984 -2.60354 0
M  V30 5052 H 516.663 5.05651 -2.21406 0
M  V30 5053 H 519.139 4.12764 -0.52585 0
M  V30 5054 H 518.015 5.48327 -0.250841 0
M  V30 5055 H 518.276 4.30124 1.02202 0
M  V30 5056 N 517.335 0.585699 1.46312 0
M  V30 5057 C 518.581 0.0725284 2.0267 0
M  V30 5058 C 518.914 -1.28523 1.45586 0
M  V30 5059 O 518.189 -1.84283 0.622101 0
M  V30 5060 C 518.472 0.0099788 3.60099 0
M  V30 5061 C 518.325 1.39685 4.27561 0
M  V30 5062 C 519.644 -0.689117 4.34671 0
M  V30 5063 H 516.763 0.0278307 0.736474 0
M  V30 5064 H 519.405 0.753472 1.74421 0
M  V30 5065 H 517.555 -0.56992 3.84297 0
M  V30 5066 H 519.227 2.02215 4.14617 0
M  V30 5067 H 517.47 1.96374 3.86807 0
M  V30 5068 H 518.141 1.30553 5.36339 0
M  V30 5069 H 520.617 -0.196446 4.15636 0
M  V30 5070 H 519.493 -0.701921 5.44393 0
M  V30 5071 H 519.754 -1.75101 4.05946 0
M  V30 5072 N 518.813 -1.54241 0.323641 0
M  V30 5073 C 520.061 -2.00174 -0.278359 0
M  V30 5074 C 520.382 -1.2134 -1.52648 0
M  V30 5075 O 519.652 -0.315244 -1.93347 0
M  V30 5076 H 518.232 -0.739463 -0.105845 0
M  V30 5077 H 520.894 -1.89864 0.440204 0
M  V30 5078 H 519.99 -3.07486 -0.5347 0
M  V30 5079 N 520.291 -0.0518155 -1.57515 0
M  V30 5080 C 521.519 0.631395 -1.9703 0
M  V30 5081 C 521.934 1.64341 -0.92938 0
M  V30 5082 O 521.291 1.82296 0.0863266 0
M  V30 5083 C 521.342 1.31774 -3.36627 0
M  V30 5084 O 521.063 0.346247 -4.3673 0
M  V30 5085 C 522.564 2.09065 -3.90905 0
M  V30 5086 H 519.784 0.172576 -0.648428 0
M  V30 5087 H 522.328 -0.118306 -2.04158 0
M  V30 5088 H 520.483 2.01867 -3.30649 0
M  V30 5089 H 520.897 0.836226 -5.17791 0
M  V30 5090 H 522.371 2.52508 -4.9086 0
M  V30 5091 H 522.848 2.93908 -3.26366 0
M  V30 5092 H 523.454 1.43882 -4.00223 0
M  V30 5093 N 521.769 1.56035 0.221574 0
M  V30 5094 C 522.679 1.95581 1.29558 0
M  V30 5095 C 523.695 0.859639 1.51282 0
M  V30 5096 O 524.871 1.16321 1.64413 0
M  V30 5097 C 521.936 2.26447 2.62531 0
M  V30 5098 C 520.997 3.49632 2.4911 0
M  V30 5099 C 520.23 3.79017 3.75742 0
M  V30 5100 O 520.453 3.10077 4.78757 0
M  V30 5101 O 519.387 4.72507 3.72855 0
M  V30 5102 H 523.213 2.8711 0.990035 0
M  V30 5103 H 520.798 1.43244 0.424434 0
M  V30 5104 H 522.68 2.47494 3.41064 0
M  V30 5105 H 521.355 1.38092 2.92766 0
M  V30 5106 H 520.262 3.33864 1.68777 0
M  V30 5107 H 521.595 4.3837 2.23814 0
M  V30 5108 N 523.247 -0.488276 1.49845 0
M  V30 5109 C 524.21 -1.57069 1.66919 0
M  V30 5110 C 525.21 -1.51445 0.540479 0
M  V30 5111 O 526.4 -1.5437 0.807188 0
M  V30 5112 C 523.532 -2.96718 1.67844 0
M  V30 5113 H 524.725 -1.43254 2.63474 0
M  V30 5114 H 522.278 -0.713435 1.39068 0
M  V30 5115 H 523.013 -3.15996 0.7292 0
M  V30 5116 H 522.798 -3.02208 2.49826 0
M  V30 5117 H 524.288 -3.75335 1.83066 0
M  V30 5118 N 524.725 -1.39134 -0.740242 0
M  V30 5119 C 525.672 -1.37434 -1.8542 0
M  V30 5120 C 526.642 -0.234822 -1.64432 0
M  V30 5121 O 527.827 -0.429125 -1.85912 0
M  V30 5122 C 524.967 -1.21844 -3.22875 0
M  V30 5123 C 524.08 -2.45296 -3.55603 0
M  V30 5124 C 523.215 -2.22334 -4.82432 0
M  V30 5125 C 522.254 -3.41488 -5.07988 0
M  V30 5126 N 521.391 -3.17877 -6.26018 0
M  V30 5127 H 526.231 -2.3266 -1.86207 0
M  V30 5128 H 523.768 -1.15578 -0.909946 0
M  V30 5129 H 525.726 -1.10818 -4.02213 0
M  V30 5130 H 524.356 -0.3025 -3.21379 0
M  V30 5131 H 523.408 -2.66945 -2.71006 0
M  V30 5132 H 524.72 -3.34063 -3.7041 0
M  V30 5133 H 523.874 -2.0852 -5.69741 0
M  V30 5134 H 522.613 -1.30954 -4.6979 0
M  V30 5135 H 521.618 -3.55807 -4.19144 0
M  V30 5136 H 522.843 -4.33763 -5.22519 0
M  V30 5137 H 520.789 -2.29156 -6.14673 0
M  V30 5138 H 520.706 -4.00198 -6.41387 0
M  V30 5139 H 521.974 -3.07746 -7.16179 0
M  V30 5140 N 526.204 0.969867 -1.24223 0
M  V30 5141 C 527.134 2.08191 -1.05729 0
M  V30 5142 C 528.115 1.70075 0.0290765 0
M  V30 5143 O 529.3 1.93712 -0.137583 0
M  V30 5144 C 526.43 3.40991 -0.658995 0
M  V30 5145 C 525.384 3.93054 -1.69389 0
M  V30 5146 C 524.71 5.22171 -1.15072 0
M  V30 5147 C 526.01 4.21137 -3.08935 0
M  V30 5148 H 527.704 2.23921 -1.98746 0
M  V30 5149 H 525.25 1.07602 -0.956967 0
M  V30 5150 H 527.203 4.18221 -0.51662 0
M  V30 5151 H 525.927 3.25155 0.30686 0
M  V30 5152 H 524.586 3.17977 -1.82444 0
M  V30 5153 H 524.234 5.02694 -0.175539 0
M  V30 5154 H 523.934 5.57973 -1.84229 0
M  V30 5155 H 525.458 6.02013 -1.02042 0
M  V30 5156 H 526.872 4.8908 -2.99121 0
M  V30 5157 H 525.269 4.68163 -3.75425 0
M  V30 5158 H 526.339 3.27996 -3.57137 0
M  V30 5159 N 527.682 1.05563 1.17022 0
M  V30 5160 C 528.63 0.653887 2.2322 0
M  V30 5161 C 529.624 -0.326642 1.66221 0
M  V30 5162 O 530.83 -0.192301 1.7897 0
M  V30 5163 H 527.205 0.193297 0.726733 0
M  V30 5164 H 529.176 1.5596 2.54399 0
M  V30 5165 C 527.925 0.0485434 3.47666 0
M  V30 5166 H 527.248 0.79413 3.91834 0
M  V30 5167 H 528.688 -0.195133 4.23551 0
M  V30 5168 C 527.147 -1.20583 3.14581 0
M  V30 5169 O 527.677 -2.29475 3.29703 0
M  V30 5170 N 525.883 -1.10493 2.68774 0
M  V30 5171 H 525.43 -0.218795 2.56669 0
M  V30 5172 H 525.388 -1.94507 2.47011 0
M  V30 5173 N 529.16 -1.33526 0.837174 0
M  V30 5174 C 530.107 -2.29248 0.267169 0
M  V30 5175 C 531.077 -1.54252 -0.616071 0
M  V30 5176 O 532.262 -1.82559 -0.554699 0
M  V30 5177 C 529.402 -3.40638 -0.553152 0
M  V30 5178 C 528.515 -4.30548 0.353921 0
M  V30 5179 C 527.65 -5.29051 -0.477339 0
M  V30 5180 C 526.689 -6.106 0.42823 0
M  V30 5181 N 525.826 -7.01152 -0.364801 0
M  V30 5182 H 530.666 -2.77398 1.08877 0
M  V30 5183 H 528.203 -1.36496 0.54838 0
M  V30 5184 H 530.161 -4.03921 -1.04422 0
M  V30 5185 H 528.791 -2.93685 -1.33973 0
M  V30 5186 H 527.843 -3.68001 0.963289 0
M  V30 5187 H 529.155 -4.87631 1.04964 0
M  V30 5188 H 528.309 -5.97853 -1.0323 0
M  V30 5189 H 527.048 -4.72541 -1.2065 0
M  V30 5190 H 526.053 -5.40718 0.995219 0
M  V30 5191 H 527.278 -6.69193 1.15573 0
M  V30 5192 H 525.224 -6.47092 -1.07738 0
M  V30 5193 H 525.141 -7.5551 0.272238 0
M  V30 5194 H 526.409 -7.74263 -0.902054 0
M  V30 5195 N 530.638 -0.59345 -1.46 0
M  V30 5196 C 531.863 -0.0872365 -2.07216 0
M  V30 5197 C 532.288 1.2131 -1.43755 0
M  V30 5198 O 531.646 1.73528 -0.525152 0
M  V30 5199 C 531.694 0.0538197 -3.6056 0
M  V30 5200 O 530.798 1.10765 -3.97247 0
M  V30 5201 H 530.139 -0.0676598 -0.660544 0
M  V30 5202 H 532.669 -0.819445 -1.87473 0
M  V30 5203 H 532.679 0.256567 -4.07193 0
M  V30 5204 H 531.354 -0.895739 -4.0614 0
M  V30 5205 H 529.931 0.882501 -3.62307 0
M  V30 5206 N 532.116 1.54067 -0.331816 0
M  V30 5207 C 533.079 2.23275 0.517768 0
M  V30 5208 C 534.079 1.22897 1.03697 0
M  V30 5209 O 535.269 1.47419 0.928084 0
M  V30 5210 C 532.401 2.94326 1.72004 0
M  V30 5211 H 533.594 2.99773 -0.0873507 0
M  V30 5212 H 531.147 1.56079 -0.0830042 0
M  V30 5213 H 531.882 2.21986 2.36417 0
M  V30 5214 H 531.667 3.67941 1.35507 0
M  V30 5215 H 533.157 3.47031 2.32291 0
M  V30 5216 N 533.594 0.0601682 1.57485 0
M  V30 5217 C 534.84 -0.612501 1.93329 0
M  V30 5218 C 535.173 -1.6996 0.939526 0
M  V30 5219 O 534.448 -1.94472 -0.0330957 0
M  V30 5220 C 534.731 -1.20025 3.39508 0
M  V30 5221 C 534.584 -0.12059 4.49638 0
M  V30 5222 C 535.903 -2.10923 3.86264 0
M  V30 5223 H 533.022 -0.221185 0.703027 0
M  V30 5224 H 535.664 0.123768 1.89596 0
M  V30 5225 H 533.814 -1.82774 3.42821 0
M  V30 5226 H 535.486 0.51185 4.58452 0
M  V30 5227 H 533.729 0.550251 4.30296 0
M  V30 5228 H 534.4 -0.572019 5.49028 0
M  V30 5229 H 536.876 -1.58124 3.84884 0
M  V30 5230 H 535.752 -2.48987 4.8918 0
M  V30 5231 H 536.013 -3.01292 3.23536 0
M  V30 5232 N 535.072 -1.5615 -0.213296 0
M  V30 5233 C 536.002 -1.96109 -1.26742 0
M  V30 5234 C 536.983 -0.830448 -1.48451 0
M  V30 5235 O 538.168 -1.09339 -1.60495 0
M  V30 5236 C 535.298 -2.28492 -2.61551 0
M  V30 5237 C 534.252 -3.44124 -2.54485 0
M  V30 5238 C 533.578 -3.62134 -3.93399 0
M  V30 5239 C 534.878 -4.78855 -2.08556 0
M  V30 5240 H 536.572 -2.84412 -0.935434 0
M  V30 5241 H 534.118 -1.36836 -0.44854 0
M  V30 5242 H 536.071 -2.55039 -3.3546 0
M  V30 5243 H 534.795 -1.37052 -2.96453 0
M  V30 5244 H 533.454 -3.17639 -1.83033 0
M  V30 5245 H 533.102 -2.68055 -4.25623 0
M  V30 5246 H 532.802 -4.39913 -3.89551 0
M  V30 5247 H 534.326 -3.91038 -4.68958 0
M  V30 5248 H 535.74 -5.04552 -2.72213 0
M  V30 5249 H 534.137 -5.59975 -2.1575 0
M  V30 5250 H 535.207 -4.73657 -1.03811 0
M  V30 5251 N 536.55 0.480323 -1.50102 0
M  V30 5252 C 537.966 0.813295 -1.37323 0
M  V30 5253 C 538.166 1.97027 -0.422206 0
M  V30 5254 O 537.222 2.5212 0.138563 0
M  V30 5255 C 538.535 1.13404 -2.78496 0
M  V30 5256 C 540.083 1.24104 -2.87345 0
M  V30 5257 C 540.558 1.59497 -4.29331 0
M  V30 5258 N 542.049 1.66507 -4.32238 0
M  V30 5259 C 542.784 1.95378 -5.39087 0
M  V30 5260 N 542.28 2.22333 -6.56155 0
M  V30 5261 N 544.073 1.96803 -5.26522 0
M  V30 5262 H 536.224 -0.282291 -2.10516 0
M  V30 5263 H 538.487 -0.063752 -0.945854 0
M  V30 5264 H 538.193 0.357064 -3.49883 0
M  V30 5265 H 538.067 2.07251 -3.15162 0
M  V30 5266 H 540.454 2.00871 -2.16183 0
M  V30 5267 H 540.535 0.282593 -2.54234 0
M  V30 5268 H 540.179 0.832736 -5.01027 0
M  V30 5269 H 540.109 2.56477 -4.59921 0
M  V30 5270 H 542.6 1.47753 -3.47818 0
M  V30 5271 H 542.913 2.43611 -7.33399 0
M  V30 5272 H 541.258 2.19745 -6.59346 0
M  V30 5273 H 544.449 1.75235 -4.34062 0
M  V30 5274 H 544.622 2.18969 -6.09883 0
M  V30 5275 N 538.028 1.39524 0.732853 0
M  V30 5276 C 538.975 1.38416 1.84688 0
M  V30 5277 C 539.945 0.243539 1.64305 0
M  V30 5278 O 541.13 0.438979 1.85681 0
M  V30 5279 C 538.27 1.23555 3.22224 0
M  V30 5280 C 537.383 2.47179 3.54298 0
M  V30 5281 C 536.518 2.2489 4.81246 0
M  V30 5282 C 535.557 3.44178 5.0617 0
M  V30 5283 N 534.694 3.21192 6.24323 0
M  V30 5284 H 539.534 2.33645 1.84971 0
M  V30 5285 H 537.071 1.16059 0.903804 0
M  V30 5286 H 539.029 1.12949 4.0162 0
M  V30 5287 H 537.659 0.31954 3.21215 0
M  V30 5288 H 536.711 2.68379 2.69587 0
M  V30 5289 H 538.023 3.36022 3.68633 0
M  V30 5290 H 537.177 2.11538 5.68627 0
M  V30 5291 H 535.916 1.33443 4.69089 0
M  V30 5292 H 534.921 3.58025 4.17251 0
M  V30 5293 H 536.146 4.36528 5.20212 0
M  V30 5294 H 534.092 2.32413 6.1345 0
M  V30 5295 H 534.009 4.03594 6.39256 0
M  V30 5296 H 535.277 3.1154 7.14537 0
M  V30 5297 N 539.506 -0.963266 1.24736 0
M  V30 5298 C 540.469 -2.04013 1.04457 0
M  V30 5299 C 541.469 -1.608 0.000335555 0
M  V30 5300 O 542.659 -1.72515 0.241719 0
M  V30 5301 C 539.791 -3.35858 0.584162 0
M  V30 5302 H 540.984 -2.23436 2.00041 0
M  V30 5303 H 538.537 -1.13914 1.07021 0
M  V30 5304 H 539.272 -3.22128 -0.374673 0
M  V30 5305 H 539.057 -3.68568 1.3379 0
M  V30 5306 H 540.547 -4.1502 0.463451 0
M  V30 5307 N 540.985 -1.06182 -1.16461 0
M  V30 5308 C 542.234 -0.772927 -1.86303 0
M  V30 5309 C 542.547 0.703187 -1.82523 0
M  V30 5310 O 543.753 1.10641 -2.47933 0
M  V30 5311 C 542.209 -1.33249 -3.34324 0
M  V30 5312 C 541.817 -2.83876 -3.46581 0
M  V30 5313 C 543.561 -1.12108 -4.09429 0
M  V30 5314 C 541.468 -3.33082 -4.88682 0
M  V30 5315 H 540.398 -0.285452 -0.697878 0
M  V30 5316 H 543.049 -1.28039 -1.31447 0
M  V30 5317 H 541.431 -0.7528 -3.88779 0
M  V30 5318 H 542.605 -3.47786 -3.02293 0
M  V30 5319 H 540.92 -3.03671 -2.84909 0
M  V30 5320 H 543.517 -1.46361 -5.14279 0
M  V30 5321 H 543.86 -0.0593832 -4.16258 0
M  V30 5322 H 544.393 -1.6665 -3.6121 0
M  V30 5323 H 541.132 -4.38726 -4.87032 0
M  V30 5324 H 540.652 -2.73919 -5.33599 0
M  V30 5325 H 542.331 -3.28344 -5.57494 0
M  V30 5326 N 542.463 1.3308 -0.844243 0
M  V30 5327 C 543.74 1.92178 -0.364261 0
M  V30 5328 C 544.12 1.76961 1.15101 0
M  V30 5329 O 543.468 1.16128 1.9679 0
M  V30 5330 C 543.678 3.393 -0.817106 0
M  V30 5331 C 545.026 4.16444 -0.828236 0
M  V30 5332 O 546.05 3.47975 -0.761062 0
M  V30 5333 O 544.909 5.38685 -0.920926 0
M  V30 5334 H 542.003 0.820411 -0.10419 0
M  V30 5335 H 544.549 1.41918 -0.930453 0
M  V30 5336 H 543.321 3.44272 -1.85991 0
M  V30 5337 H 542.944 3.96947 -0.227785 0
M  V30 5338 N 543.941 0.601185 1.45683 0
M  V30 5339 C 545.171 0.0999093 2.06358 0
M  V30 5340 C 545.579 -1.21831 1.44754 0
M  V30 5341 O 544.922 -1.75157 0.553695 0
M  V30 5342 C 544.984 -0.12085 3.59297 0
M  V30 5343 C 544.648 1.11459 4.432 0
M  V30 5344 C 545.645 2.03118 4.7858 0
M  V30 5345 C 543.33 1.34162 4.84051 0
M  V30 5346 C 545.324 3.15814 5.53661 0
M  V30 5347 C 543.011 2.4716 5.58888 0
M  V30 5348 C 544.009 3.37814 5.93608 0
M  V30 5349 O 543.697 4.48846 6.66928 0
M  V30 5350 H 543.429 0.0630316 0.673055 0
M  V30 5351 H 545.983 0.826982 1.88016 0
M  V30 5352 H 544.213 -0.902744 3.76015 0
M  V30 5353 H 545.902 -0.572925 4.01836 0
M  V30 5354 H 546.668 1.86801 4.47583 0
M  V30 5355 H 542.547 0.645018 4.56465 0
M  V30 5356 H 546.091 3.86596 5.8068 0
M  V30 5357 H 541.988 2.63432 5.89299 0
M  V30 5358 H 542.756 4.47446 6.85371 0
M  V30 5359 N 545.419 -1.53889 0.339982 0
M  V30 5360 C 546.668 -2.00035 -0.258604 0
M  V30 5361 C 546.981 -1.23179 -1.51942 0
M  V30 5362 O 548.187 -1.59784 -2.19503 0
M  V30 5363 C 546.643 -3.56249 -0.511359 0
M  V30 5364 C 546.251 -4.41957 0.733349 0
M  V30 5365 C 547.995 -4.1082 -1.069 0
M  V30 5366 C 545.902 -5.89673 0.451591 0
M  V30 5367 H 544.832 -0.747284 -0.10041 0
M  V30 5368 H 547.483 -1.77776 0.454758 0
M  V30 5369 H 545.865 -3.7456 -1.28533 0
M  V30 5370 H 547.039 -4.35421 1.50815 0
M  V30 5371 H 545.354 -3.9836 1.21237 0
M  V30 5372 H 547.951 -5.18789 -1.2947 0
M  V30 5373 H 548.294 -3.63817 -2.02343 0
M  V30 5374 H 548.827 -3.96205 -0.355817 0
M  V30 5375 H 545.566 -6.40903 1.37565 0
M  V30 5376 H 545.086 -5.99122 -0.285193 0
M  V30 5377 H 546.765 -6.46965 0.0675067 0
M  V30 5378 N 546.897 -0.0685191 -1.57451 0
M  V30 5379 C 548.313 0.288101 -1.56978 0
M  V30 5380 C 548.513 1.70262 -1.07765 0
M  V30 5381 O 547.569 2.4135 -0.742054 0
M  V30 5382 C 548.882 0.100745 -3.00531 0
M  V30 5383 C 550.43 0.170531 -3.12535 0
M  V30 5384 C 550.905 0.0114944 -4.57999 0
M  V30 5385 N 552.396 0.0672065 -4.63151 0
M  V30 5386 C 553.131 -0.0314813 -5.73391 0
M  V30 5387 N 552.627 -0.183503 -6.92557 0
M  V30 5388 N 554.42 0.0253489 -5.62094 0
M  V30 5389 H 546.571 -0.993026 -1.87757 0
M  V30 5390 H 548.834 -0.386981 -0.865419 0
M  V30 5391 H 548.54 -0.875197 -3.40636 0
M  V30 5392 H 548.414 0.854457 -3.67395 0
M  V30 5393 H 550.801 1.13696 -2.72318 0
M  V30 5394 H 550.882 -0.614229 -2.48316 0
M  V30 5395 H 550.526 -0.951684 -4.98904 0
M  V30 5396 H 550.456 0.815617 -5.20245 0
M  V30 5397 H 552.947 0.183246 -3.77455 0
M  V30 5398 H 553.26 -0.251041 -7.72392 0
M  V30 5399 H 551.605 -0.218822 -6.94655 0
M  V30 5400 H 554.796 0.142794 -4.67882 0
M  V30 5401 H 554.969 -0.0550166 -6.47977 0
M  V30 5402 N 548.375 1.56261 0.205012 0
M  V30 5403 C 549.622 1.8004 0.926927 0
M  V30 5404 C 549.95 0.640086 1.83666 0
M  V30 5405 O 549.205 -0.374702 1.92079 0
M  V30 5406 C 549.504 3.09722 1.78345 0
M  V30 5407 C 549.17 4.39082 1.02555 0
M  V30 5408 C 547.832 4.74226 0.816256 0
M  V30 5409 C 550.184 5.18877 0.491559 0
M  V30 5410 C 547.512 5.86668 0.0613287 0
M  V30 5411 C 549.864 6.32105 -0.250107 0
M  V30 5412 C 548.528 6.6584 -0.470508 0
M  V30 5413 H 547.798 0.658812 0.339187 0
M  V30 5414 H 550.445 1.90515 0.19395 0
M  V30 5415 H 548.75 2.9444 2.5848 0
M  V30 5416 H 550.447 3.25324 2.34446 0
M  V30 5417 H 547.037 4.11497 1.19868 0
M  V30 5418 H 551.221 4.92147 0.640684 0
M  V30 5419 H 546.477 6.11283 -0.119501 0
M  V30 5420 H 550.651 6.93157 -0.671307 0
M  V30 5421 H 548.278 7.5281 -1.05739 0
M  V30 5422 N 549.853 -0.472356 1.50355 0
M  V30 5423 C 550.783 -1.57859 1.72055 0
M  V30 5424 C 551.764 -1.60283 0.569505 0
M  V30 5425 O 552.949 -1.7657 0.808503 0
M  V30 5426 C 550.079 -2.96191 1.81351 0
M  V30 5427 C 549.033 -3.08633 2.96529 0
M  V30 5428 C 548.359 -4.486 2.90968 0
M  V30 5429 C 549.659 -2.85969 4.37057 0
M  V30 5430 H 551.353 -1.39953 2.64676 0
M  V30 5431 H 548.899 -0.671846 1.27367 0
M  V30 5432 H 550.852 -3.73507 1.95117 0
M  V30 5433 H 549.576 -3.15251 0.853502 0
M  V30 5434 H 548.235 -2.33749 2.82413 0
M  V30 5435 H 547.883 -4.64577 1.92815 0
M  V30 5436 H 547.583 -4.57861 3.68289 0
M  V30 5437 H 549.107 -5.27938 3.0678 0
M  V30 5438 H 550.521 -3.53036 4.51706 0
M  V30 5439 H 548.918 -3.06677 5.15819 0
M  V30 5440 H 549.988 -1.81838 4.49514 0
M  V30 5441 N 551.331 -1.39911 -0.725443 0
M  V30 5442 C 552.263 -1.35301 -1.85003 0
M  V30 5443 C 553.276 -0.260102 -1.60709 0
M  V30 5444 O 554.465 -0.519749 -1.70766 0
M  V30 5445 C 551.565 -1.08039 -3.21218 0
M  V30 5446 C 550.738 -2.28793 -3.7279 0
M  V30 5447 C 549.797 -1.97841 -4.87591 0
M  V30 5448 O 548.823 -2.70616 -5.00755 0
M  V30 5449 N 550.025 -0.950367 -5.72668 0
M  V30 5450 H 552.79 -2.32218 -1.89459 0
M  V30 5451 H 550.351 -1.34137 -0.90658 0
M  V30 5452 H 552.343 -0.853354 -3.95601 0
M  V30 5453 H 550.913 -0.198229 -3.11971 0
M  V30 5454 H 550.133 -2.67388 -2.8965 0
M  V30 5455 H 551.421 -3.09317 -4.03981 0
M  V30 5456 H 550.819 -0.347436 -5.64632 0
M  V30 5457 H 549.376 -0.783232 -6.47077 0
M  V30 5458 N 552.809 0.956637 -1.25245 0
M  V30 5459 C 553.759 2.03841 -1.02141 0
M  V30 5460 C 554.743 1.60848 0.0410058 0
M  V30 5461 O 555.935 1.76142 -0.174084 0
M  V30 5462 C 553.064 3.37282 -0.639963 0
M  V30 5463 C 552.15 3.86805 -1.73903 0
M  V30 5464 N 552.541 4.09143 -2.97381 0
M  V30 5465 C 550.839 4.15574 -1.61909 0
M  V30 5466 C 551.54 4.49923 -3.68707 0
M  V30 5467 N 550.516 4.55737 -2.96318 0
M  V30 5468 H 554.318 2.19102 -1.95886 0
M  V30 5469 H 551.832 1.1413 -1.15534 0
M  V30 5470 H 553.829 4.14403 -0.455643 0
M  V30 5471 H 552.489 3.23401 0.29018 0
M  V30 5472 H 553.5 3.96275 -3.33447 0
M  V30 5473 H 550.177 4.10566 -0.757764 0
M  V30 5474 H 551.567 4.75526 -4.74684 0
M  V30 5475 N 554.287 1.06798 1.15896 0
M  V30 5476 C 555.512 0.808739 1.90982 0
M  V30 5477 C 555.937 -0.6316 1.77179 0
M  V30 5478 O 555.295 -1.4407 1.10061 0
M  V30 5479 C 555.343 1.21468 3.39526 0
M  V30 5480 O 554.447 0.356562 4.10856 0
M  V30 5481 H 553.788 0.29512 0.594811 0
M  V30 5482 H 556.318 1.42513 1.46804 0
M  V30 5483 H 556.328 1.18844 3.90308 0
M  V30 5484 H 555.003 2.26379 3.48891 0
M  V30 5485 H 553.58 0.444808 3.70238 0
M  V30 5486 N 555.766 -1.3263 0.851289 0
M  V30 5487 C 556.714 -2.30882 0.282202 0
M  V30 5488 C 557.708 -1.58697 -0.592589 0
M  V30 5489 O 558.914 -1.73461 -0.480768 0
M  V30 5490 H 555.289 -0.748492 0.0725487 0
M  V30 5491 H 557.26 -2.76374 1.12516 0
M  V30 5492 C 556.009 -3.43828 -0.517449 0
M  V30 5493 H 555.332 -3.99532 0.146392 0
M  V30 5494 H 556.772 -4.1474 -0.88128 0
M  V30 5495 C 555.231 -2.90786 -1.70133 0
M  V30 5496 O 555.761 -2.88 -2.80034 0
M  V30 5497 N 553.967 -2.4723 -1.52728 0
M  V30 5498 H 553.514 -2.49695 -0.633257 0
M  V30 5499 H 553.472 -2.12094 -2.32085 0
M  V30 5500 N 557.244 -0.608902 -1.45362 0
M  V30 5501 C 558.176 0.147318 -2.28726 0
M  V30 5502 C 559.189 0.830468 -1.40025 0
M  V30 5503 O 560.378 0.695636 -1.64387 0
M  V30 5504 C 557.478 1.22968 -3.15804 0
M  V30 5505 C 556.651 0.633391 -4.3279 0
M  V30 5506 C 555.71 1.60682 -5.01067 0
M  V30 5507 O 554.736 1.13261 -5.57818 0
M  V30 5508 N 555.938 2.94123 -5.00472 0
M  V30 5509 H 558.703 -0.568014 -2.94268 0
M  V30 5510 H 556.264 -0.448479 -1.55564 0
M  V30 5511 H 558.256 1.88072 -3.58345 0
M  V30 5512 H 556.826 1.84752 -2.52162 0
M  V30 5513 H 556.046 -0.195762 -3.93714 0
M  V30 5514 H 557.334 0.215255 -5.08344 0
M  V30 5515 H 556.732 3.3525 -4.55657 0
M  V30 5516 H 555.289 3.54646 -5.46872 0
M  V30 5517 N 558.722 1.53707 -0.348139 0
M  V30 5518 C 559.669 2.25173 0.506518 0
M  V30 5519 C 560.639 1.25174 1.09182 0
M  V30 5520 O 561.824 1.53917 1.12757 0
M  V30 5521 C 558.964 3.03141 1.64923 0
M  V30 5522 C 558.077 4.18002 1.0908 0
M  V30 5523 C 557.212 4.83447 2.20119 0
M  V30 5524 C 556.251 5.90369 1.61651 0
M  V30 5525 N 555.388 6.49575 2.66451 0
M  V30 5526 H 560.228 2.97799 -0.109452 0
M  V30 5527 H 557.765 1.46953 -0.0657866 0
M  V30 5528 H 559.723 3.46607 2.32205 0
M  V30 5529 H 558.353 2.32803 2.23612 0
M  V30 5530 H 557.405 3.79145 0.308783 0
M  V30 5531 H 558.717 4.94892 0.623178 0
M  V30 5532 H 557.871 5.30008 2.95257 0
M  V30 5533 H 556.61 4.05991 2.70227 0
M  V30 5534 H 555.615 5.43186 0.850209 0
M  V30 5535 H 556.84 6.69735 1.1239 0
M  V30 5536 H 554.786 5.74981 3.15805 0
M  V30 5537 H 554.703 7.21952 2.24325 0
M  V30 5538 H 555.971 7.00789 3.41344 0
M  V30 5539 N 560.2 0.0768682 1.57412 0
M  V30 5540 C 561.13 -0.886026 2.16037 0
M  V30 5541 C 562.111 -1.30691 1.08876 0
M  V30 5542 O 563.296 -1.37705 1.36934 0
M  V30 5543 C 560.426 -2.1518 2.72608 0
M  V30 5544 C 559.38 -1.87015 3.8498 0
M  V30 5545 C 558.706 -3.20266 4.28175 0
M  V30 5546 C 560.006 -1.17143 5.08994 0
M  V30 5547 H 561.7 -0.397642 2.96748 0
M  V30 5548 H 559.246 -0.189823 1.42743 0
M  V30 5549 H 561.199 -2.82962 3.12266 0
M  V30 5550 H 559.923 -2.66269 1.89125 0
M  V30 5551 H 558.582 -1.21636 3.45833 0
M  V30 5552 H 558.23 -3.69207 3.41607 0
M  V30 5553 H 557.93 -3.0221 5.03927 0
M  V30 5554 H 559.454 -3.89237 4.70454 0
M  V30 5555 H 560.868 -1.75003 5.45937 0
M  V30 5556 H 559.265 -1.09328 5.90057 0
M  V30 5557 H 560.335 -0.151295 4.84664 0
M  V30 5558 N 561.678 -1.56367 -0.196722 0
M  V30 5559 C 562.625 -1.94417 -1.24382 0
M  V30 5560 C 563.595 -0.804543 -1.45315 0
M  V30 5561 O 564.78 -1.06256 -1.58475 0
M  V30 5562 C 561.92 -2.28757 -2.58388 0
M  V30 5563 C 561.033 -3.55775 -2.45047 0
M  V30 5564 C 560.168 -3.79445 -3.71746 0
M  V30 5565 C 559.207 -4.99894 -3.53231 0
M  V30 5566 N 558.344 -5.19826 -4.71938 0
M  V30 5567 H 563.184 -2.83691 -0.912338 0
M  V30 5568 H 560.721 -1.40392 -0.439135 0
M  V30 5569 H 562.679 -2.46682 -3.36457 0
M  V30 5570 H 561.309 -1.42625 -2.89582 0
M  V30 5571 H 560.361 -3.45905 -1.58284 0
M  V30 5572 H 561.673 -4.44 -2.27299 0
M  V30 5573 H 560.827 -3.97601 -4.58256 0
M  V30 5574 H 559.566 -2.89546 -3.92446 0
M  V30 5575 H 558.571 -4.81662 -2.65107 0
M  V30 5576 H 559.796 -5.913 -3.33978 0
M  V30 5577 H 557.742 -4.32875 -4.92905 0
M  V30 5578 H 557.659 -6.02228 -4.57009 0
M  V30 5579 H 558.927 -5.42439 -5.59803 0
M  V30 5580 N 563.156 0.464375 -1.50603 0
M  V30 5581 C 564.088 1.57916 -1.66118 0
M  V30 5582 C 565.101 1.53497 -0.54246 0
M  V30 5583 O 566.29 1.58763 -0.815877 0
M  V30 5584 C 563.39 2.96809 -1.63577 0
M  V30 5585 C 562.563 3.26026 -2.91592 0
M  V30 5586 C 561.622 4.44506 -2.81604 0
M  V30 5587 O 560.648 4.44484 -3.55559 0
M  V30 5588 N 561.85 5.46549 -1.95614 0
M  V30 5589 H 564.615 1.45022 -2.62276 0
M  V30 5590 H 562.176 0.652903 -1.48151 0
M  V30 5591 H 564.168 3.74048 -1.54499 0
M  V30 5592 H 562.738 3.03438 -0.751262 0
M  V30 5593 H 561.958 2.37337 -3.14746 0
M  V30 5594 H 563.246 3.42361 -3.76386 0
M  V30 5595 H 562.644 5.49391 -1.34854 0
M  V30 5596 H 561.201 6.22746 -1.92435 0
M  V30 5597 N 564.634 1.40294 0.718013 0
M  V30 5598 C 565.544 1.42678 1.86226 0
M  V30 5599 C 566.56 0.319655 1.71039 0
M  V30 5600 O 567.736 0.563852 1.93346 0
M  V30 5601 C 564.801 1.2852 3.21999 0
M  V30 5602 C 563.862 2.49354 3.49458 0
M  V30 5603 C 563.095 2.35863 4.78753 0
M  V30 5604 O 563.318 1.37114 5.53675 0
M  V30 5605 O 562.252 3.25189 5.06494 0
M  V30 5606 H 566.078 2.39167 1.87171 0
M  V30 5607 H 563.663 1.2159 0.868112 0
M  V30 5608 H 565.545 1.22824 4.03103 0
M  V30 5609 H 564.22 0.351359 3.21787 0
M  V30 5610 H 563.127 2.60628 2.68373 0
M  V30 5611 H 564.46 3.41491 3.54464 0
M  V30 5612 N 566.112 -0.949982 1.2575 0
M  V30 5613 C 567.06 -2.06869 1.06339 0
M  V30 5614 C 568.054 -1.69399 -0.00708901 0
M  V30 5615 O 569.26 -1.79383 0.148897 0
M  V30 5616 H 565.635 -0.677197 0.326969 0
M  V30 5617 H 567.606 -2.20396 2.01167 0
M  V30 5618 C 566.355 -3.40503 0.703769 0
M  V30 5619 H 565.678 -3.69807 1.51931 0
M  V30 5620 H 567.118 -4.19623 0.607677 0
M  V30 5621 C 565.577 -3.31685 -0.5905 0
M  V30 5622 O 566.107 -3.67085 -1.63131 0
M  V30 5623 N 564.313 -2.84797 -0.577859 0
M  V30 5624 H 563.86 -2.56186 0.26951 0
M  V30 5625 H 563.818 -2.79279 -1.44398 0
M  V30 5626 N 567.59 -1.07411 -1.15328 0
M  V30 5627 C 568.52 -0.716472 -2.22236 0
M  V30 5628 C 569.501 0.296373 -1.67498 0
M  V30 5629 O 570.686 0.168989 -1.93463 0
M  V30 5630 C 567.816 -0.114142 -3.47112 0
M  V30 5631 C 566.77 -1.05421 -4.14814 0
M  V30 5632 C 566.096 -0.314604 -5.33774 0
M  V30 5633 C 567.396 -2.38808 -4.64508 0
M  V30 5634 H 569.09 -1.61029 -2.52408 0
M  V30 5635 H 566.636 -0.775702 -1.21321 0
M  V30 5636 H 568.589 0.148001 -4.2114 0
M  V30 5637 H 567.313 0.814755 -3.16274 0
M  V30 5638 H 565.972 -1.30128 -3.42728 0
M  V30 5639 H 565.62 0.617772 -4.99192 0
M  V30 5640 H 565.32 -0.941209 -5.80013 0
M  V30 5641 H 566.844 -0.0602747 -6.1057 0
M  V30 5642 H 568.258 -2.18424 -5.3006 0
M  V30 5643 H 566.655 -2.97069 -5.21412 0
M  V30 5644 H 567.725 -3.01067 -3.80114 0
M  V30 5645 N 569.068 1.32177 -0.85831 0
M  V30 5646 C 570.293 2.01847 -0.476718 0
M  V30 5647 C 570.718 1.64065 0.920021 0
M  V30 5648 O 570.076 0.843189 1.60499 0
M  V30 5649 C 570.124 3.55097 -0.627578 0
M  V30 5650 O 569.228 4.11012 0.338086 0
M  V30 5651 H 568.569 0.635907 -0.191099 0
M  V30 5652 H 571.099 1.68641 -1.15851 0
M  V30 5653 H 571.109 4.04718 -0.516476 0
M  V30 5654 H 569.784 3.81938 -1.64609 0
M  V30 5655 H 568.361 3.72451 0.182917 0
M  V30 5656 N 570.547 0.616602 1.45037 0
M  V30 5657 C 571.477 -0.0840787 2.33349 0
M  V30 5658 C 572.458 -0.849641 1.4736 0
M  V30 5659 O 573.643 -0.818407 1.76113 0
M  V30 5660 C 570.773 -1.07604 3.3021 0
M  V30 5661 C 569.727 -0.423096 4.25904 0
M  V30 5662 C 569.053 -1.52394 5.12523 0
M  V30 5663 C 570.353 0.661457 5.18095 0
M  V30 5664 H 572.047 0.653333 2.92185 0
M  V30 5665 H 569.593 0.315634 1.40498 0
M  V30 5666 H 571.546 -1.57485 3.90866 0
M  V30 5667 H 570.27 -1.84416 2.69552 0
M  V30 5668 H 568.929 0.05493 3.66559 0
M  V30 5669 H 568.577 -2.28257 4.48227 0
M  V30 5670 H 568.277 -1.09251 5.77354 0
M  V30 5671 H 569.801 -2.02485 5.76049 0
M  V30 5672 H 571.215 0.246353 5.7277 0
M  V30 5673 H 569.612 1.01517 5.91451 0
M  V30 5674 H 570.682 1.53446 4.59981 0
M  V30 5675 N 572.025 -1.5352 0.356285 0
M  V30 5676 C 573.441 -1.59599 0.00485267 0
M  V30 5677 C 573.641 -1.37179 -1.47595 0
M  V30 5678 O 572.697 -1.17234 -2.23635 0
M  V30 5679 C 574.01 -2.97277 0.452454 0
M  V30 5680 C 575.558 -3.10357 0.405881 0
M  V30 5681 C 576.033 -4.50432 0.829148 0
M  V30 5682 N 577.524 -4.5652 0.783838 0
M  V30 5683 C 578.259 -5.63077 1.08315 0
M  V30 5684 N 577.755 -6.77429 1.45126 0
M  V30 5685 N 579.548 -5.53014 1.00655 0
M  V30 5686 H 571.699 -1.66346 1.32071 0
M  V30 5687 H 573.962 -0.77971 0.539218 0
M  V30 5688 H 573.668 -3.18792 1.48542 0
M  V30 5689 H 573.542 -3.76836 -0.165762 0
M  V30 5690 H 575.929 -2.88558 -0.617934 0
M  V30 5691 H 576.01 -2.32828 1.05947 0
M  V30 5692 H 575.654 -4.72968 1.85103 0
M  V30 5693 H 575.584 -5.26378 0.152906 0
M  V30 5694 H 578.075 -3.74408 0.512513 0
M  V30 5695 H 578.388 -7.54669 1.66415 0
M  V30 5696 H 576.733 -6.78844 1.48983 0
M  V30 5697 H 579.924 -4.62557 0.718215 0
M  V30 5698 H 580.097 -6.35964 1.24315 0
M  V30 5699 N 573.503 -0.0852151 -1.57369 0
M  V30 5700 C 574.731 0.58946 -1.98325 0
M  V30 5701 C 575.146 1.62333 -0.96403 0
M  V30 5702 O 574.503 1.82438 0.0476395 0
M  V30 5703 C 574.554 1.24604 -3.39347 0
M  V30 5704 O 574.275 0.253532 -4.37366 0
M  V30 5705 C 575.776 2.00726 -3.95252 0
M  V30 5706 H 572.996 0.158783 -0.651942 0
M  V30 5707 H 575.54 -0.161584 -2.03861 0
M  V30 5708 H 573.695 1.94808 -3.34856 0
M  V30 5709 H 574.109 0.726207 -5.19448 0
M  V30 5710 H 575.583 2.42039 -4.96106 0
M  V30 5711 H 576.06 2.86919 -3.32527 0
M  V30 5712 H 576.666 1.3536 -4.03185 0
M  V30 5713 N 574.981 1.5647 0.188427 0
M  V30 5714 C 575.944 1.9421 1.21718 0
M  V30 5715 C 576.944 0.823901 1.38089 0
M  V30 5716 O 578.134 1.09122 1.35787 0
M  V30 5717 C 575.266 2.22197 2.58537 0
M  V30 5718 H 576.459 2.86252 0.894418 0
M  V30 5719 H 574.012 1.50263 0.430211 0
M  V30 5720 H 574.747 1.32814 2.95856 0
M  V30 5721 H 574.532 3.03688 2.48025 0
M  V30 5722 H 576.022 2.52376 3.3271 0
M  V30 5723 N 576.459 -0.456382 1.50847 0
M  V30 5724 C 577.705 -1.20914 1.62811 0
M  V30 5725 C 578.038 -1.91301 0.334304 0
M  V30 5726 O 577.313 -1.82775 -0.665098 0
M  V30 5727 C 577.596 -2.24122 2.81853 0
M  V30 5728 C 577.449 -1.57944 4.21158 0
M  V30 5729 C 578.768 -3.25295 2.96431 0
M  V30 5730 H 575.887 -0.438233 0.592554 0
M  V30 5731 H 578.529 -0.50091 1.83278 0
M  V30 5732 H 576.679 -2.84524 2.64534 0
M  V30 5733 H 578.351 -1.01025 4.50102 0
M  V30 5734 H 576.594 -0.882185 4.24735 0
M  V30 5735 H 577.265 -2.33014 5.00408 0
M  V30 5736 H 579.741 -2.7493 3.12335 0
M  V30 5737 H 578.617 -3.94822 3.81322 0
M  V30 5738 H 578.878 -3.90286 2.07676 0
M  V30 5739 N 577.937 -1.40673 -0.710563 0
M  V30 5740 C 578.887 -1.37812 -1.81636 0
M  V30 5741 C 579.871 -0.254853 -1.58869 0
M  V30 5742 O 581.063 -0.494356 -1.69956 0
M  V30 5743 C 578.192 -1.24802 -3.19811 0
M  V30 5744 C 577.278 -2.41931 -3.48325 0
M  V30 5745 N 577.669 -3.67411 -3.47625 0
M  V30 5746 C 575.967 -2.35419 -3.78806 0
M  V30 5747 C 576.668 -4.45008 -3.74623 0
M  V30 5748 N 575.644 -3.74916 -3.93623 0
M  V30 5749 H 579.446 -2.32766 -1.79436 0
M  V30 5750 H 576.96 -1.34516 -0.909909 0
M  V30 5751 H 578.957 -1.20835 -3.99004 0
M  V30 5752 H 577.617 -0.308202 -3.23234 0
M  V30 5753 H 578.628 -4.00503 -3.28356 0
M  V30 5754 H 575.305 -1.4983 -3.89689 0
M  V30 5755 H 576.695 -5.53884 -3.80344 0
M  V30 5756 N 579.415 0.9433 -1.26252 0
M  V30 5757 C 580.362 2.0417 -1.07625 0
M  V30 5758 C 581.332 1.6609 0.0180738 0
M  V30 5759 O 582.517 1.90276 -0.141289 0
M  V30 5760 C 579.657 3.37653 -0.713043 0
M  V30 5761 C 578.77 3.88783 -1.8834 0
M  V30 5762 C 577.905 5.10642 -1.4635 0
M  V30 5763 C 576.944 5.54028 -2.60229 0
M  V30 5764 N 576.081 6.67092 -2.18936 0
M  V30 5765 H 580.921 2.19436 -2.01623 0
M  V30 5766 H 578.458 1.07519 -1.00389 0
M  V30 5767 H 580.416 4.14391 -0.483358 0
M  V30 5768 H 579.046 3.22241 0.18996 0
M  V30 5769 H 578.098 3.08464 -2.22608 0
M  V30 5770 H 579.41 4.16922 -2.73821 0
M  V30 5771 H 578.564 5.94832 -1.19414 0
M  V30 5772 H 577.303 4.84244 -0.579568 0
M  V30 5773 H 576.308 4.68396 -2.87898 0
M  V30 5774 H 577.533 5.82429 -3.49219 0
M  V30 5775 H 575.479 6.42381 -1.32974 0
M  V30 5776 H 575.396 6.94806 -2.97961 0
M  V30 5777 H 576.664 7.54662 -1.95206 0
M  V30 5778 N 580.893 1.08022 1.14757 0
M  V30 5779 C 582.118 0.82895 1.90114 0
M  V30 5780 C 582.543 -0.612772 1.77839 0
M  V30 5781 O 581.901 -1.42895 1.11583 0
M  V30 5782 C 581.949 1.25062 3.38219 0
M  V30 5783 O 581.053 0.400119 4.10454 0
M  V30 5784 H 580.394 0.301412 0.591648 0
M  V30 5785 H 582.924 1.44062 1.45284 0
M  V30 5786 H 582.934 1.22977 3.89025 0
M  V30 5787 H 581.609 2.30067 3.46471 0
M  V30 5788 H 580.186 0.484052 3.69745 0
M  V30 5789 N 582.371 -1.3172 0.865308 0
M  V30 5790 C 583.318 -2.2863 0.315736 0
M  V30 5791 C 584.288 -1.55524 -0.583213 0
M  V30 5792 O 585.473 -1.83694 -0.51585 0
M  V30 5793 C 582.613 -3.41735 -0.480773 0
M  V30 5794 C 581.726 -4.297 0.445167 0
M  V30 5795 C 580.861 -5.29944 -0.365012 0
M  V30 5796 C 579.9 -6.09554 0.557651 0
M  V30 5797 N 579.037 -7.01768 -0.215994 0
M  V30 5798 H 583.877 -2.75026 1.14736 0
M  V30 5799 H 581.414 -1.35302 0.577209 0
M  V30 5800 H 583.372 -4.06045 -0.958306 0
M  V30 5801 H 582.002 -2.96461 -1.27714 0
M  V30 5802 H 581.054 -3.65875 1.04113 0
M  V30 5803 H 582.366 -4.85295 1.15284 0
M  V30 5804 H 581.52 -5.99908 -0.905255 0
M  V30 5805 H 580.259 -4.74994 -1.106 0
M  V30 5806 H 579.264 -5.38485 1.10969 0
M  V30 5807 H 580.489 -6.66591 1.29742 0
M  V30 5808 H 578.435 -6.49232 -0.939878 0
M  V30 5809 H 578.352 -7.54762 0.432431 0
M  V30 5810 H 579.62 -7.76002 -0.737618 0
M  V30 5811 N 583.85 -0.624285 -1.44708 0
M  V30 5812 C 585.075 -0.131171 -2.06985 0
M  V30 5813 C 585.5 1.18234 -1.46295 0
M  V30 5814 O 584.858 1.72375 -0.561842 0
M  V30 5815 C 584.906 -0.0226724 -3.60593 0
M  V30 5816 O 584.01 1.02314 -3.99507 0
M  V30 5817 H 583.351 -0.0816556 -0.65896 0
M  V30 5818 H 585.88 -0.859027 -1.85693 0
M  V30 5819 H 585.891 0.170138 -4.07645 0
M  V30 5820 H 584.566 -0.981685 -4.04148 0
M  V30 5821 H 583.143 0.805452 -3.64097 0
M  V30 5822 N 585.328 1.53329 -0.364422 0
M  V30 5823 C 586.258 2.28627 0.474543 0
M  V30 5824 C 587.239 1.31009 1.08492 0
M  V30 5825 O 588.424 1.59878 1.10239 0
M  V30 5826 C 585.554 3.07465 1.61501 0
M  V30 5827 C 584.508 4.1276 1.13194 0
M  V30 5828 C 583.834 4.79674 2.36255 0
M  V30 5829 C 585.134 5.21847 0.217507 0
M  V30 5830 H 586.828 2.99005 -0.153656 0
M  V30 5831 H 584.374 1.43803 -0.0753406 0
M  V30 5832 H 586.327 3.58889 2.20855 0
M  V30 5833 H 585.051 2.34775 2.27042 0
M  V30 5834 H 583.71 3.62281 0.56109 0
M  V30 5835 H 583.358 4.03557 3.00251 0
M  V30 5836 H 583.058 5.50827 2.04606 0
M  V30 5837 H 584.582 5.33892 2.96297 0
M  V30 5838 H 585.996 5.6878 0.718493 0
M  V30 5839 H 584.393 6.00099 -0.00806408 0
M  V30 5840 H 585.463 4.7921 -0.740653 0
M  V30 5841 N 586.806 0.0935595 1.57322 0
M  V30 5842 C 587.753 -0.865935 2.1394 0
M  V30 5843 C 588.723 -1.28083 1.05754 0
M  V30 5844 O 589.908 -1.36285 1.33533 0
M  V30 5845 C 587.048 -2.12023 2.72287 0
M  V30 5846 C 586.161 -1.756 3.94701 0
M  V30 5847 C 585.296 -2.95804 4.41218 0
M  V30 5848 C 584.335 -2.555 5.56225 0
M  V30 5849 N 583.472 -3.68534 5.97601 0
M  V30 5850 H 588.312 -0.376261 2.95615 0
M  V30 5851 H 585.849 -0.174052 1.46067 0
M  V30 5852 H 587.807 -2.85477 3.04235 0
M  V30 5853 H 586.437 -2.58492 1.93343 0
M  V30 5854 H 585.489 -0.921208 3.69077 0
M  V30 5855 H 586.801 -1.41964 4.78171 0
M  V30 5856 H 585.955 -3.77513 4.74941 0
M  V30 5857 H 584.694 -3.32649 3.56645 0
M  V30 5858 H 583.699 -1.72218 5.22131 0
M  V30 5859 H 584.924 -2.19801 6.42545 0
M  V30 5860 H 582.87 -4.051 5.15974 0
M  V30 5861 H 582.787 -3.38737 6.75865 0
M  V30 5862 H 584.055 -4.50757 6.35955 0
M  V30 5863 N 588.284 -1.56567 -0.180126 0
M  V30 5864 C 589.561 -1.7235 -0.924931 0
M  V30 5865 C 589.941 -0.652523 -2.00762 0
M  V30 5866 O 589.289 0.334115 -2.26044 0
M  V30 5867 C 589.499 -3.1523 -1.49771 0
M  V30 5868 C 590.847 -3.75921 -1.97405 0
M  V30 5869 O 591.871 -3.18452 -1.59583 0
M  V30 5870 O 590.73 -4.7681 -2.67048 0
M  V30 5871 H 587.824 -0.703502 -0.434758 0
M  V30 5872 H 590.37 -1.6886 -0.168647 0
M  V30 5873 H 589.142 -3.84656 -0.718027 0
M  V30 5874 H 588.765 -3.23009 -2.31842 0
M  V30 5875 N 589.762 0.448376 -1.51087 0
M  V30 5876 C 590.692 1.55102 -1.74544 0
M  V30 5877 C 591.673 1.59357 -0.594932 0
M  V30 5878 O 592.858 1.75261 -0.836491 0
M  V30 5879 C 589.988 2.93268 -1.86041 0
M  V30 5880 C 588.942 3.03877 -3.01402 0
M  V30 5881 C 588.268 4.43914 -2.98068 0
M  V30 5882 C 589.568 2.7898 -4.41551 0
M  V30 5883 H 591.262 1.35724 -2.66869 0
M  V30 5884 H 588.808 0.651498 -1.28419 0
M  V30 5885 H 590.761 3.70356 -2.01034 0
M  V30 5886 H 589.485 3.13853 -0.903548 0
M  V30 5887 H 588.144 2.29227 -2.86096 0
M  V30 5888 H 587.792 4.6145 -2.00182 0
M  V30 5889 H 587.492 4.51944 -3.75527 0
M  V30 5890 H 589.016 5.22991 -3.1514 0
M  V30 5891 H 590.43 3.45805 -4.57265 0
M  V30 5892 H 588.827 2.98431 -5.20633 0
M  V30 5893 H 589.897 1.74663 -4.5235 0
M  V30 5894 N 591.24 1.41047 0.703093 0
M  V30 5895 C 592.486 1.40207 1.46526 0
M  V30 5896 C 592.819 0.00847763 1.94198 0
M  V30 5897 O 592.094 -0.962437 1.69019 0
M  V30 5898 C 592.377 2.40238 2.6825 0
M  V30 5899 C 592.23 3.88674 2.26391 0
M  V30 5900 C 593.549 2.37627 3.70434 0
M  V30 5901 H 590.668 0.510594 0.531472 0
M  V30 5902 H 593.31 1.72271 0.801422 0
M  V30 5903 H 591.46 2.13026 3.24888 0
M  V30 5904 H 593.132 4.2676 1.75138 0
M  V30 5905 H 591.375 4.03903 1.58255 0
M  V30 5906 H 592.046 4.542 3.13698 0
M  V30 5907 H 594.522 2.61759 3.23452 0
M  V30 5908 H 593.398 3.09645 4.53223 0
M  V30 5909 H 593.659 1.39223 4.19606 0
M  V30 5910 N 592.718 -0.936591 1.26751 0
M  V30 5911 C 593.943 -1.72288 1.15462 0
M  V30 5912 C 594.368 -1.85915 -0.285887 0
M  V30 5913 O 593.726 -1.35272 -1.20711 0
M  V30 5914 C 593.774 -3.10503 1.83359 0
M  V30 5915 O 592.878 -3.96745 1.1255 0
M  V30 5916 H 592.219 -0.52843 0.402067 0
M  V30 5917 H 594.749 -1.17271 1.67656 0
M  V30 5918 H 594.759 -3.60867 1.90365 0
M  V30 5919 H 593.434 -2.99901 2.88153 0
M  V30 5920 H 592.011 -3.55191 1.13551 0
M  V30 5921 N 594.196 -1.08629 -1.14182 0
M  V30 5922 C 595.159 -0.722027 -2.1753 0
M  V30 5923 C 596.159 0.244305 -1.58933 0
M  V30 5924 O 597.349 0.0235545 -1.74184 0
M  V30 5925 C 594.481 -0.0663966 -3.40835 0
M  V30 5926 H 595.674 -1.63719 -2.51269 0
M  V30 5927 H 593.227 -0.884442 -1.28869 0
M  V30 5928 H 593.962 0.860389 -3.12678 0
M  V30 5929 H 593.747 -0.761598 -3.84632 0
M  V30 5930 H 595.237 0.173346 -4.1724 0
M  V30 5931 N 595.674 1.31259 -0.872281 0
M  V30 5932 C 596.914 1.98418 -0.490894 0
M  V30 5933 C 597.278 1.67429 0.939755 0
M  V30 5934 O 598.479 2.27818 1.42661 0
M  V30 5935 C 596.75 3.49583 -0.743408 0
M  V30 5936 S 598.309 4.36359 -0.462226 0
M  V30 5937 H 595.127 0.687005 -0.183151 0
M  V30 5938 H 597.729 1.59619 -1.12881 0
M  V30 5939 H 596.433 3.69627 -1.78338 0
M  V30 5940 H 595.964 3.93291 -0.0925758 0
M  V30 5941 H 597.979 4.91173 0.704525 0
M  V30 5942 N 597.152 0.631951 1.44375 0
M  V30 5943 C 598.4 0.136497 2.01639 0
M  V30 5944 C 598.721 -1.24637 1.49969 0
M  V30 5945 O 597.991 -1.82827 0.70363 0
M  V30 5946 H 596.571 0.0474703 0.74549 0
M  V30 5947 H 599.233 0.818837 1.76865 0
M  V30 5948 H 598.329 0.104817 3.11924 0
M  V30 5949 N 598.631 -1.53133 0.372548 0
M  V30 5950 C 599.856 -2.0625 -0.218098 0
M  V30 5951 C 600.281 -1.24375 -1.41111 0
M  V30 5952 O 599.639 -0.264554 -1.79359 0
M  V30 5953 C 599.687 -3.55858 -0.582876 0
M  V30 5954 O 598.791 -3.76667 -1.67917 0
M  V30 5955 H 598.132 -0.663317 -0.030104 0
M  V30 5956 H 600.662 -1.97477 0.535169 0
M  V30 5957 H 600.672 -3.99007 -0.851925 0
M  V30 5958 H 599.347 -4.14892 0.289428 0
M  V30 5959 H 597.924 -3.45413 -1.40513 0
M  V30 5960 N 600.109 -0.101901 -1.5727 0
M  V30 5961 C 601.357 0.559091 -1.94213 0
M  V30 5962 C 601.678 1.68297 -0.984948 0
M  V30 5963 O 600.948 1.95863 -0.0381975 0
M  V30 5964 H 599.528 0.20952 -0.717015 0
M  V30 5965 H 602.19 -0.166831 -1.94185 0
M  V30 5966 H 601.286 0.96485 -2.96811 0
M  V30 5967 N 601.587 1.56661 0.17182 0
M  V30 5968 C 602.835 1.81606 0.886774 0
M  V30 5969 C 603.156 0.678818 1.82803 0
M  V30 5970 O 602.426 -0.301354 1.93568 0
M  V30 5971 H 601.006 0.669934 0.330451 0
M  V30 5972 H 603.668 1.94142 0.171757 0
M  V30 5973 H 602.764 2.75634 1.46398 0
M  V30 5974 N 603.065 -0.440357 1.51323 0
M  V30 5975 C 604.013 -1.55492 1.72988 0
M  V30 5976 C 605.007 -1.58564 0.596138 0
M  V30 5977 O 606.213 -1.62345 0.777443 0
M  V30 5978 H 602.588 -0.516532 0.546533 0
M  V30 5979 H 604.559 -1.34392 2.66423 0
M  V30 5980 C 603.308 -2.93176 1.86931 0
M  V30 5981 H 602.631 -2.91543 2.73574 0
M  V30 5982 H 604.071 -3.70537 2.06103 0
M  V30 5983 C 602.53 -3.30988 0.628365 0
M  V30 5984 O 603.06 -4.01106 -0.218367 0
M  V30 5985 N 601.266 -2.86719 0.473339 0
M  V30 5986 H 600.813 -2.2983 1.16345 0
M  V30 5987 H 600.771 -3.12381 -0.355727 0
M  V30 5988 N 604.543 -1.41418 -0.695603 0
M  V30 5989 C 605.771 -1.4413 -1.48439 0
M  V30 5990 C 606.186 -0.0465698 -1.88743 0
M  V30 5991 O 605.543 0.934117 -1.56782 0
M  V30 5992 C 605.594 -2.34998 -2.74696 0
M  V30 5993 O 605.315 -3.69043 -2.36091 0
M  V30 5994 C 606.816 -2.46513 -3.68438 0
M  V30 5995 H 604.036 -0.490905 -0.457442 0
M  V30 5996 H 606.58 -1.85702 -0.856454 0
M  V30 5997 H 604.735 -1.96735 -3.33728 0
M  V30 5998 H 605.149 -4.17505 -3.17474 0
M  V30 5999 H 606.623 -3.1426 -4.53811 0
M  V30 6000 H 607.1 -1.49638 -4.12922 0
M  V30 6001 H 607.706 -2.85412 -3.1531 0
M  V30 6002 N 606.021 0.929856 -1.27246 0
M  V30 6003 C 607.298 1.65544 -1.04186 0
M  V30 6004 C 607.678 2.06796 0.424097 0
M  V30 6005 O 607.026 1.80053 1.40688 0
M  V30 6006 C 607.236 2.85912 -2.00138 0
M  V30 6007 C 608.584 3.57305 -2.29387 0
M  V30 6008 O 609.608 2.96036 -1.98094 0
M  V30 6009 O 608.467 4.67688 -2.82719 0
M  V30 6010 H 605.561 0.725473 -0.397011 0
M  V30 6011 H 608.107 0.980583 -1.38501 0
M  V30 6012 H 606.879 2.52403 -2.99013 0
M  V30 6013 H 606.502 3.61118 -1.66371 0
M  V30 6014 N 607.499 1.09233 1.13605 0
M  V30 6015 C 608.745 0.828385 1.8511 0
M  V30 6016 C 609.078 -0.64437 1.83198 0
M  V30 6017 O 608.353 -1.47428 1.26867 0
M  V30 6018 C 608.636 1.36167 3.33363 0
M  V30 6019 C 608.489 2.90038 3.438 0
M  V30 6020 C 609.808 0.993819 4.28732 0
M  V30 6021 H 606.927 0.30239 0.672108 0
M  V30 6022 H 609.569 1.35339 1.33355 0
M  V30 6023 H 607.719 0.9151 3.77569 0
M  V30 6024 H 609.391 3.43128 3.08319 0
M  V30 6025 H 607.634 3.27271 2.84739 0
M  V30 6026 H 608.305 3.22428 4.48045 0
M  V30 6027 H 610.781 1.37893 3.92587 0
M  V30 6028 H 609.657 1.39403 5.30903 0
M  V30 6029 H 609.918 -0.0982206 4.41991 0
M  V30 6030 N 608.977 -1.30795 0.87923 0
M  V30 6031 C 609.907 -2.30742 0.357796 0
M  V30 6032 C 610.888 -1.60747 -0.556283 0
M  V30 6033 O 612.073 -1.88393 -0.47135 0
M  V30 6034 C 609.203 -3.44583 -0.433555 0
M  V30 6035 C 608.157 -4.26235 0.388251 0
M  V30 6036 C 607.483 -5.32073 -0.529352 0
M  V30 6037 C 608.783 -4.96303 1.62729 0
M  V30 6038 H 610.477 -2.74605 1.19299 0
M  V30 6039 H 608.023 -1.32017 0.575104 0
M  V30 6040 H 609.976 -4.13563 -0.808934 0
M  V30 6041 H 608.7 -2.99511 -1.30234 0
M  V30 6042 H 607.359 -3.58936 0.745695 0
M  V30 6043 H 607.007 -4.83249 -1.39569 0
M  V30 6044 H 606.707 -5.87598 0.0166741 0
M  V30 6045 H 608.231 -6.0391 -0.901373 0
M  V30 6046 H 609.645 -5.5783 1.32283 0
M  V30 6047 H 608.042 -5.61666 2.11309 0
M  V30 6048 H 609.112 -4.22758 2.37494 0
M  V30 6049 N 610.455 -0.639598 -1.44038 0
M  V30 6050 C 611.388 0.109736 -2.27936 0
M  V30 6051 C 612.366 0.843095 -1.39035 0
M  V30 6052 O 613.55 0.845456 -1.68476 0
M  V30 6053 C 610.677 1.16173 -3.18153 0
M  V30 6054 C 609.723 0.527954 -4.2322 0
M  V30 6055 S 610.556 -0.688318 -5.31058 0
M  V30 6056 C 611.712 0.363481 -6.24844 0
M  V30 6057 H 611.945 -0.601986 -2.91142 0
M  V30 6058 H 609.478 -0.42802 -1.48349 0
M  V30 6059 H 611.436 1.76372 -3.7068 0
M  V30 6060 H 610.097 1.84569 -2.54151 0
M  V30 6061 H 609.29 1.32054 -4.86393 0
M  V30 6062 H 608.892 0.000396444 -3.74 0
M  V30 6063 H 611.184 1.23362 -6.66174 0
M  V30 6064 H 612.127 -0.23288 -7.07717 0
M  V30 6065 H 612.535 0.693179 -5.60228 0
M  V30 6066 N 611.933 1.52934 -0.380664 0
M  V30 6067 C 612.843 2.29921 0.466192 0
M  V30 6068 C 613.859 1.36488 1.07922 0
M  V30 6069 O 615.035 1.69553 1.0869 0
M  V30 6070 C 612.1 3.08468 1.58266 0
M  V30 6071 C 611.161 4.17595 0.995627 0
M  V30 6072 C 610.394 4.92387 2.05889 0
M  V30 6073 O 610.617 4.67184 3.27254 0
M  V30 6074 O 609.551 5.77949 1.68102 0
M  V30 6075 H 613.377 3.03274 -0.160735 0
M  V30 6076 H 610.962 1.48698 -0.144617 0
M  V30 6077 H 612.844 3.57469 2.23145 0
M  V30 6078 H 611.519 2.37937 2.19471 0
M  V30 6079 H 610.426 3.72811 0.310332 0
M  V30 6080 H 611.759 4.90336 0.427918 0
M  V30 6081 N 613.412 0.11024 1.57214 0
M  V30 6082 C 614.66 -0.548783 1.94506 0
M  V30 6083 C 614.981 -1.67772 0.99386 0
M  V30 6084 O 614.251 -1.9584 0.0485841 0
M  V30 6085 H 612.831 -0.205715 0.718116 0
M  V30 6086 H 615.493 0.177127 1.94093 0
M  V30 6087 H 614.589 -0.949096 2.97319 0
M  V30 6088 N 614.89 -1.56749 -0.16351 0
M  V30 6089 C 616.136 -1.82704 -0.880168 0
M  V30 6090 C 616.469 -0.689311 -1.81555 0
M  V30 6091 O 615.744 0.308224 -1.92042 0
M  V30 6092 C 616.027 -3.19084 -1.66905 0
M  V30 6093 C 615.88 -4.43397 -0.756269 0
M  V30 6094 C 617.199 -3.52493 -2.63509 0
M  V30 6095 H 614.318 -0.664608 -0.318535 0
M  V30 6096 H 616.96 -1.89438 -0.146036 0
M  V30 6097 H 615.11 -3.13475 -2.2949 0
M  V30 6098 H 616.782 -4.61079 -0.14269 0
M  V30 6099 H 615.025 -4.33752 -0.0647944 0
M  V30 6100 H 615.696 -5.3539 -1.34393 0
M  V30 6101 H 618.172 -3.58606 -2.11047 0
M  V30 6102 H 617.048 -4.48979 -3.15767 0
M  V30 6103 H 617.309 -2.77597 -3.44082 0
M  V30 6104 N 616.368 0.432326 -1.51554 0
M  V30 6105 C 617.315 1.52512 -1.7323 0
M  V30 6106 C 618.285 1.55863 -0.5741 0
M  V30 6107 O 619.47 1.72796 -0.809093 0
M  V30 6108 C 616.61 2.90183 -1.86783 0
M  V30 6109 C 615.723 2.96322 -3.14352 0
M  V30 6110 C 614.858 4.25147 -3.18471 0
M  V30 6111 C 613.897 4.25172 -4.40335 0
M  V30 6112 N 613.034 5.45529 -4.41975 0
M  V30 6113 H 617.874 1.33332 -2.66508 0
M  V30 6114 H 615.411 0.647613 -1.32077 0
M  V30 6115 H 617.369 3.70071 -1.92623 0
M  V30 6116 H 615.999 3.0791 -0.969087 0
M  V30 6117 H 615.051 2.09066 -3.17798 0
M  V30 6118 H 616.363 2.92203 -4.04251 0
M  V30 6119 H 615.517 5.13411 -3.23255 0
M  V30 6120 H 614.256 4.31929 -2.2647 0
M  V30 6121 H 613.261 3.353 -4.35723 0
M  V30 6122 H 614.486 4.20049 -5.33606 0
M  V30 6123 H 612.432 5.53024 -3.52847 0
M  V30 6124 H 612.349 5.43311 -5.25689 0
M  V30 6125 H 613.617 6.35812 -4.50958 0
M  V30 6126 N 617.846 1.41785 0.688094 0
M  V30 6127 C 619.074 1.44915 1.47673 0
M  V30 6128 C 619.489 0.0565786 1.88715 0
M  V30 6129 O 618.846 -0.92579 1.57275 0
M  V30 6130 C 618.897 2.36452 2.73446 0
M  V30 6131 O 618.618 3.7029 2.34131 0
M  V30 6132 C 620.119 2.48463 3.67125 0
M  V30 6133 H 617.339 0.493324 0.454832 0
M  V30 6134 H 619.883 1.86153 0.846594 0
M  V30 6135 H 618.038 1.98502 3.3268 0
M  V30 6136 H 618.452 4.19183 3.15255 0
M  V30 6137 H 619.926 3.16662 4.52138 0
M  V30 6138 H 620.403 1.51826 4.12123 0
M  V30 6139 H 621.009 2.8708 3.13792 0
M  V30 6140 N 619.324 -0.923095 1.27737 0
M  V30 6141 C 620.234 -2.05765 1.12685 0
M  V30 6142 C 621.25 -1.73911 0.0557197 0
M  V30 6143 O 622.426 -1.99674 0.263137 0
M  V30 6144 C 619.491 -3.37804 0.780363 0
M  V30 6145 C 618.552 -3.83326 1.93286 0
M  V30 6146 C 617.785 -5.09064 1.60281 0
M  V30 6147 O 618.008 -5.6809 0.512828 0
M  V30 6148 O 616.942 -5.50071 2.44347 0
M  V30 6149 H 620.768 -2.21378 2.07907 0
M  V30 6150 H 618.353 -1.04299 1.06968 0
M  V30 6151 H 620.235 -4.17097 0.600668 0
M  V30 6152 H 618.91 -3.23387 -0.142291 0
M  V30 6153 H 617.817 -3.049 2.16764 0
M  V30 6154 H 619.15 -4.02292 2.83588 0
M  V30 6155 N 620.802 -1.09834 -1.13024 0
M  V30 6156 C 622.048 -0.83819 -1.84668 0
M  V30 6157 C 622.381 0.634645 -1.83537 0
M  V30 6158 O 621.656 1.46753 -1.27647 0
M  V30 6159 C 621.939 -1.37933 -3.32636 0
M  V30 6160 C 621.792 -2.91857 -3.42257 0
M  V30 6161 C 623.111 -1.01654 -4.28199 0
M  V30 6162 H 620.23 -0.30595 -0.670495 0
M  V30 6163 H 622.872 -1.36044 -1.32635 0
M  V30 6164 H 621.022 -0.935111 -3.77078 0
M  V30 6165 H 622.694 -3.44759 -3.06495 0
M  V30 6166 H 620.937 -3.28776 -2.83 0
M  V30 6167 H 621.608 -3.24799 -4.46329 0
M  V30 6168 H 624.084 -1.39973 -3.9185 0
M  V30 6169 H 622.96 -1.42217 -5.30156 0
M  V30 6170 H 623.221 0.0747794 -4.42037 0
M  V30 6171 N 622.28 1.30327 -0.886154 0
M  V30 6172 C 623.19 2.31854 -0.357866 0
M  V30 6173 C 624.206 1.65392 0.540502 0
M  V30 6174 O 625.382 1.96683 0.433339 0
M  V30 6175 C 622.447 3.44171 0.417999 0
M  V30 6176 C 621.508 4.26257 -0.510263 0
M  V30 6177 C 620.741 5.3321 0.228669 0
M  V30 6178 O 620.964 5.51542 1.45458 0
M  V30 6179 O 619.898 6.0042 -0.421832 0
M  V30 6180 H 623.724 2.78995 -1.19982 0
M  V30 6181 H 621.309 1.34518 -0.650028 0
M  V30 6182 H 623.191 4.12588 0.857251 0
M  V30 6183 H 621.866 2.99164 1.23623 0
M  V30 6184 H 620.773 3.60533 -0.99835 0
M  V30 6185 H 622.106 4.74871 -1.29454 0
M  V30 6186 N 623.758 0.647228 1.43697 0
M  V30 6187 C 625.035 0.0883758 1.954 0
M  V30 6188 C 625.415 -1.39006 1.58873 0
M  V30 6189 O 624.763 -2.11255 0.87083 0
M  V30 6190 C 624.973 0.328263 3.47453 0
M  V30 6191 C 626.321 0.230009 4.23977 0
M  V30 6192 O 627.345 0.260496 3.55246 0
M  V30 6193 O 626.204 0.148615 5.46298 0
M  V30 6194 H 623.298 -0.0130683 0.826897 0
M  V30 6195 H 625.844 0.72005 1.53666 0
M  V30 6196 H 624.616 1.3535 3.67146 0
M  V30 6197 H 624.239 -0.336772 3.96171 0
M  V30 6198 N 625.236 -1.5273 0.388769 0
M  V30 6199 C 626.464 -2.05992 -0.193677 0
M  V30 6200 C 626.879 -1.26053 -1.40557 0
M  V30 6201 O 626.236 -0.307049 -1.79898 0
M  V30 6202 C 626.287 -3.57068 -0.564321 0
M  V30 6203 O 626.008 -4.3398 0.599422 0
M  V30 6204 C 627.509 -4.26674 -1.20269 0
M  V30 6205 H 624.729 -0.670358 -0.0293445 0
M  V30 6206 H 627.273 -1.96857 0.553844 0
M  V30 6207 H 625.428 -3.66277 -1.26174 0
M  V30 6208 H 625.842 -5.2367 0.294895 0
M  V30 6209 H 627.316 -5.33625 -1.4124 0
M  V30 6210 H 627.793 -3.81854 -2.16989 0
M  V30 6211 H 628.399 -4.2178 -0.546047 0
M  V30 6212 N 626.714 -0.118576 -1.57153 0
M  V30 6213 C 627.644 0.828436 -2.1831 0
M  V30 6214 C 628.625 1.27758 -1.12303 0
M  V30 6215 O 629.81 1.34026 -1.40537 0
M  V30 6216 C 626.94 2.07876 -2.78217 0
M  V30 6217 C 625.894 1.76742 -3.89803 0
M  V30 6218 C 625.22 3.08801 -4.36516 0
M  V30 6219 C 626.52 1.03606 -5.11921 0
M  V30 6220 H 628.214 0.318824 -2.97698 0
M  V30 6221 H 625.76 0.151911 -1.43196 0
M  V30 6222 H 627.713 2.74584 -3.19659 0
M  V30 6223 H 626.437 2.61161 -1.96118 0
M  V30 6224 H 625.096 1.12424 -3.48936 0
M  V30 6225 H 624.744 3.6002 -3.51276 0
M  V30 6226 H 624.444 2.88743 -5.11763 0
M  V30 6227 H 625.968 3.76627 -4.80608 0
M  V30 6228 H 627.382 1.60467 -5.50385 0
M  V30 6229 H 625.779 0.936454 -5.92748 0
M  V30 6230 H 626.849 0.0227421 -4.84895 0
M  V30 6231 N 628.193 1.56834 0.155195 0
M  V30 6232 C 629.421 1.87049 0.884326 0
M  V30 6233 C 629.836 0.705839 1.7511 0
M  V30 6234 O 629.193 -0.324641 1.79589 0
M  V30 6235 C 629.244 3.1644 1.74781 0
M  V30 6236 O 628.965 4.28417 0.915978 0
M  V30 6237 C 630.466 3.60113 2.58522 0
M  V30 6238 H 627.686 0.620196 0.25612 0
M  V30 6239 H 630.23 2.03946 0.150445 0
M  V30 6240 H 628.385 3.01321 2.43484 0
M  V30 6241 H 628.799 5.02353 1.50803 0
M  V30 6242 H 630.273 4.53508 3.14698 0
M  V30 6243 H 630.75 2.85005 3.34169 0
M  V30 6244 H 631.356 3.77898 1.95124 0
M  V30 6245 N 629.671 -0.424282 1.51781 0
M  V30 6246 C 631.082 -1.00368 1.57427 0
M  V30 6247 C 631.433 -1.91962 0.40558 0
M  V30 6248 O 630.558 -2.111 -0.47601 0
M  V30 6249 C 631.153 -1.82707 2.85313 0
M  V30 6250 C 629.712 -2.35675 2.93487 0
M  V30 6251 C 628.859 -1.1524 2.5222 0
M  V30 6252 H 631.81 -0.205064 1.5737 0
M  V30 6253 H 631.831 -2.68294 2.69812 0
M  V30 6254 H 631.343 -1.16017 3.70353 0
M  V30 6255 H 629.444 -3.05781 2.12906 0
M  V30 6256 H 629.557 -2.67578 3.97415 0
M  V30 6257 H 627.921 -1.50174 2.05718 0
M  V30 6258 H 628.704 -0.5014 3.39619 0
M  V30 6259 N 631.149 -1.42148 -0.680565 0
M  V30 6260 C 632.56 -1.3768 -1.26099 0
M  V30 6261 C 632.911 -0.0672348 -1.96085 0
M  V30 6262 O 632.036 0.834172 -1.99676 0
M  V30 6263 C 632.631 -2.49387 -2.29328 0
M  V30 6264 C 631.19 -2.4827 -2.82911 0
M  V30 6265 C 630.337 -2.2847 -1.57152 0
M  V30 6266 H 633.288 -1.51446 -0.474326 0
M  V30 6267 H 633.309 -2.19307 -3.10941 0
M  V30 6268 H 632.821 -3.44686 -1.78363 0
M  V30 6269 H 630.922 -1.56773 -3.38013 0
M  V30 6270 H 631.035 -3.45109 -3.3232 0
M  V30 6271 H 629.399 -1.76623 -1.83511 0
M  V30 6272 H 630.182 -3.25816 -1.0816 0
M  V30 6273 N 632.627 0.916307 -1.28225 0
M  V30 6274 C 634.038 1.48024 -1.13779 0
M  V30 6275 C 634.389 1.94289 0.273139 0
M  V30 6276 O 633.514 1.82226 1.16716 0
M  V30 6277 C 634.109 2.69029 -2.05935 0
M  V30 6278 C 632.668 3.2161 -1.95561 0
M  V30 6279 C 631.815 1.94321 -1.97825 0
M  V30 6280 H 634.766 0.729272 -1.40951 0
M  V30 6281 H 634.787 3.44204 -1.62184 0
M  V30 6282 H 634.299 2.35325 -3.08616 0
M  V30 6283 H 632.4 3.60045 -0.959076 0
M  V30 6284 H 632.513 3.87032 -2.82388 0
M  V30 6285 H 630.877 2.1131 -1.42198 0
M  V30 6286 H 631.66 1.62917 -3.0218 0
M  V30 6287 N 634.105 1.10431 1.1244 0
M  V30 6288 C 635.33 0.869089 1.88313 0
M  V30 6289 C 635.755 -0.574912 1.79099 0
M  V30 6290 O 635.113 -1.40496 1.14589 0
M  V30 6291 C 635.161 1.32208 3.3549 0
M  V30 6292 O 634.265 0.487092 4.09513 0
M  V30 6293 H 633.606 0.313894 0.585121 0
M  V30 6294 H 636.136 1.47111 1.42195 0
M  V30 6295 H 636.146 1.31201 3.86329 0
M  V30 6296 H 634.821 2.37364 3.41513 0
M  V30 6297 H 633.398 0.562372 3.68635 0
M  V30 6298 N 635.583 -1.29855 0.893053 0
M  V30 6299 C 636.86 -1.90694 0.435336 0
M  V30 6300 C 637.24 -1.8111 -1.08454 0
M  V30 6301 O 636.588 -1.23352 -1.92345 0
M  V30 6302 C 636.798 -3.36033 0.942472 0
M  V30 6303 C 638.146 -4.13083 0.982226 0
M  V30 6304 O 639.17 -3.4491 0.889686 0
M  V30 6305 O 638.029 -5.34896 1.12022 0
M  V30 6306 H 635.123 -0.815978 0.134567 0
M  V30 6307 H 637.669 -1.38367 0.982484 0
M  V30 6308 H 636.441 -3.37132 1.9864 0
M  V30 6309 H 636.064 -3.95828 0.374952 0
M  V30 6310 N 637.061 -0.65484 -1.43351 0
M  V30 6311 C 638.024 0.0263562 -2.29185 0
M  V30 6312 C 639.024 0.748951 -1.42293 0
M  V30 6313 O 640.214 0.589957 -1.63906 0
M  V30 6314 C 637.346 1.04806 -3.2439 0
M  V30 6315 H 638.539 -0.728883 -2.90908 0
M  V30 6316 H 636.092 -0.416149 -1.50658 0
M  V30 6317 H 636.827 1.83247 -2.67565 0
M  V30 6318 H 636.612 0.533554 -3.88453 0
M  V30 6319 H 638.102 1.52372 -3.88809 0
M  V30 6320 N 638.539 1.52521 -0.396863 0
M  V30 6321 C 639.787 2.01274 0.182536 0
M  V30 6322 C 640.108 1.28485 1.46685 0
M  V30 6323 O 639.378 0.407134 1.91623 0
M  V30 6324 H 637.958 0.743671 0.0704442 0
M  V30 6325 H 640.62 1.87547 -0.530289 0
M  V30 6326 H 639.716 3.09687 0.387385 0
M  V30 6327 N 640.017 0.126909 1.57088 0
M  V30 6328 C 641.242 -0.53997 2.00248 0
M  V30 6329 C 641.667 -1.58927 1.00618 0
M  V30 6330 O 641.025 -1.81288 -0.0210131 0
M  V30 6331 C 641.073 -1.13565 3.4225 0
M  V30 6332 O 640.177 -2.25103 3.45547 0
M  V30 6333 H 639.518 -0.13412 0.650314 0
M  V30 6334 H 642.048 0.217718 2.03438 0
M  V30 6335 H 642.058 -1.46925 3.80627 0
M  V30 6336 H 640.733 -0.367122 4.14277 0
M  V30 6337 H 639.31 -1.93123 3.18995 0
M  V30 6338 N 641.495 -1.56914 -0.146875 0
M  V30 6339 C 642.906 -1.72799 -0.706928 0
M  V30 6340 C 643.257 -0.741329 -1.81656 0
M  V30 6341 O 642.382 0.0920162 -2.16204 0
M  V30 6342 C 642.977 -3.13317 -1.28911 0
M  V30 6343 C 641.536 -3.30803 -1.79573 0
M  V30 6344 C 640.683 -2.68725 -0.684252 0
M  V30 6345 H 643.634 -1.58504 0.0787931 0
M  V30 6346 H 643.655 -3.13323 -2.15891 0
M  V30 6347 H 643.167 -3.85104 -0.481284 0
M  V30 6348 H 641.268 -2.64012 -2.62923 0
M  V30 6349 H 641.381 -4.38754 -1.92436 0
M  V30 6350 H 639.745 -2.29196 -1.11091 0
M  V30 6351 H 640.528 -3.43117 0.112134 0
M  V30 6352 N 642.974 0.416227 -1.52004 0
M  V30 6353 C 644.221 1.16383 -1.65714 0
M  V30 6354 C 644.549 1.9068 -0.383594 0
M  V30 6355 O 643.804 1.85174 0.633185 0
M  V30 6356 C 644.103 2.18923 -2.82502 0
M  V30 6357 C 643.769 1.61485 -4.20991 0
M  V30 6358 C 642.431 1.45545 -4.58661 0
M  V30 6359 C 644.783 1.19468 -5.07323 0
M  V30 6360 C 642.111 0.860937 -5.80349 0
M  V30 6361 C 644.463 0.614386 -6.29609 0
M  V30 6362 C 643.127 0.442056 -6.66035 0
M  V30 6363 H 642.397 0.425875 -0.606392 0
M  V30 6364 H 645.044 0.45199 -1.8609 0
M  V30 6365 H 643.349 2.96225 -2.56433 0
M  V30 6366 H 645.046 2.76628 -2.90307 0
M  V30 6367 H 641.636 1.74873 -3.91302 0
M  V30 6368 H 645.82 1.30596 -4.78809 0
M  V30 6369 H 641.076 0.715372 -6.072 0
M  V30 6370 H 645.25 0.280393 -6.95835 0
M  V30 6371 H 642.877 -0.0207218 -7.60197 0
M  V30 6372 N 644.452 1.42507 0.673017 0
M  V30 6373 C 645.384 1.42074 1.79854 0
M  V30 6374 C 646.397 0.319569 1.59633 0
M  V30 6375 O 647.586 0.582769 1.68719 0
M  V30 6376 C 644.686 1.19886 3.16987 0
M  V30 6377 C 643.859 2.42471 3.64042 0
M  V30 6378 C 642.918 2.15802 4.79913 0
M  V30 6379 O 641.944 2.89015 4.90366 0
M  V30 6380 N 643.146 1.16225 5.68746 0
M  V30 6381 H 645.911 2.3909 1.8071 0
M  V30 6382 H 643.472 1.37409 0.856171 0
M  V30 6383 H 645.464 0.999591 3.92161 0
M  V30 6384 H 644.034 0.313879 3.1102 0
M  V30 6385 H 643.254 2.77954 2.79526 0
M  V30 6386 H 644.542 3.24097 3.92223 0
M  V30 6387 H 643.94 0.556756 5.62954 0
M  V30 6388 H 642.497 1.02285 6.43724 0
M  V30 6389 N 645.93 -0.909495 1.28709 0
M  V30 6390 C 647.155 -1.69801 1.1909 0
M  V30 6391 C 647.58 -1.86479 -0.246388 0
M  V30 6392 O 646.938 -1.37802 -1.17815 0
M  V30 6393 C 646.986 -3.06543 1.89904 0
M  V30 6394 O 646.09 -3.94268 1.2094 0
M  V30 6395 H 645.431 -0.519783 0.413185 0
M  V30 6396 H 647.961 -1.13689 1.70106 0
M  V30 6397 H 647.971 -3.56748 1.97977 0
M  V30 6398 H 646.646 -2.93722 2.94449 0
M  V30 6399 H 645.223 -3.52702 1.2106 0
M  V30 6400 N 647.408 -1.11026 -1.11852 0
M  V30 6401 C 648.633 -0.879064 -1.87849 0
M  V30 6402 C 649.058 0.565406 -1.79401 0
M  V30 6403 O 648.416 1.39886 -1.15333 0
M  V30 6404 C 648.464 -1.33985 -3.34784 0
M  V30 6405 O 647.568 -0.508803 -4.09249 0
M  V30 6406 H 646.909 -0.316992 -0.583448 0
M  V30 6407 H 649.439 -1.47863 -1.41413 0
M  V30 6408 H 649.449 -1.33248 -3.85628 0
M  V30 6409 H 648.124 -2.39172 -3.40249 0
M  V30 6410 H 646.701 -0.581913 -3.68332 0
M  V30 6411 N 648.886 1.2938 -0.899927 0
M  V30 6412 C 650.297 1.77644 -0.574427 0
M  V30 6413 C 650.648 1.73824 0.909928 0
M  V30 6414 O 649.773 1.32429 1.71147 0
M  V30 6415 C 650.368 3.22573 -1.03595 0
M  V30 6416 C 648.927 3.68614 -0.76161 0
M  V30 6417 C 648.074 2.49483 -1.21052 0
M  V30 6418 H 651.025 1.16038 -1.08263 0
M  V30 6419 H 651.046 3.78684 -0.371337 0
M  V30 6420 H 650.558 3.25321 -2.11631 0
M  V30 6421 H 648.659 3.7134 0.306127 0
M  V30 6422 H 648.772 4.59402 -1.35965 0
M  V30 6423 H 647.136 2.46798 -0.629515 0
M  V30 6424 H 647.919 2.54959 -2.29893 0
M  V30 6425 N 650.364 0.662433 1.43002 0
M  V30 6426 C 651.294 -0.00979809 2.33498 0
M  V30 6427 C 652.275 -0.802329 1.49989 0
M  V30 6428 O 653.46 -0.761964 1.78627 0
M  V30 6429 C 650.59 -0.970446 3.33466 0
M  V30 6430 C 649.544 -0.287383 4.27034 0
M  V30 6431 C 648.87 -1.36012 5.17112 0
M  V30 6432 C 650.17 0.82595 5.15728 0
M  V30 6433 H 651.864 0.745959 2.89958 0
M  V30 6434 H 649.41 0.360172 1.39423 0
M  V30 6435 H 651.363 -1.44971 3.95679 0
M  V30 6436 H 650.087 -1.75748 2.75282 0
M  V30 6437 H 648.746 0.17152 3.66199 0
M  V30 6438 H 648.394 -2.13882 4.55262 0
M  V30 6439 H 648.094 -0.908276 5.80538 0
M  V30 6440 H 649.618 -1.84056 5.82199 0
M  V30 6441 H 651.032 0.42845 5.71697 0
M  V30 6442 H 649.429 1.20282 5.87922 0
M  V30 6443 H 650.499 1.68003 4.54866 0
M  V30 6444 N 651.842 -1.52309 0.404946 0
M  V30 6445 C 653.067 -2.06666 -0.1743 0
M  V30 6446 C 653.492 -1.27341 -1.38441 0
M  V30 6447 O 652.85 -0.302539 -1.78758 0
M  V30 6448 C 652.898 -3.57014 -0.507262 0
M  V30 6449 O 652.002 -3.80144 -1.59889 0
M  V30 6450 H 651.343 -0.663807 -0.0160273 0
M  V30 6451 H 653.873 -1.96297 0.576937 0
M  V30 6452 H 653.883 -4.00724 -0.767098 0
M  V30 6453 H 652.558 -4.14184 0.377368 0
M  V30 6454 H 651.135 -3.48316 -1.33155 0
M  V30 6455 N 653.32 -0.135238 -1.57019 0
M  V30 6456 C 654.25 0.805235 -2.19176 0
M  V30 6457 C 655.231 1.2656 -1.13651 0
M  V30 6458 O 656.416 1.32528 -1.4195 0
M  V30 6459 C 653.546 2.04914 -2.80406 0
M  V30 6460 C 652.5 1.72598 -3.91655 0
M  V30 6461 C 651.826 3.04154 -4.39766 0
M  V30 6462 C 653.126 0.981709 -5.12991 0
M  V30 6463 H 654.82 0.287232 -2.98019 0
M  V30 6464 H 652.366 0.136714 -1.4335 0
M  V30 6465 H 654.319 2.71178 -3.22553 0
M  V30 6466 H 653.043 2.59067 -1.98877 0
M  V30 6467 H 651.702 1.08717 -3.50109 0
M  V30 6468 H 651.35 3.56274 -3.55075 0
M  V30 6469 H 651.05 2.83299 -5.14796 0
M  V30 6470 H 652.574 3.71509 -4.84576 0
M  V30 6471 H 653.988 1.5462 -5.52056 0
M  V30 6472 H 652.385 0.873533 -5.93708 0
M  V30 6473 H 653.455 -0.0286887 -4.84892 0
M  V30 6474 N 654.798 1.5699 0.138552 0
M  V30 6475 C 656.046 1.83446 0.848053 0
M  V30 6476 C 656.367 0.71744 1.81322 0
M  V30 6477 O 655.637 -0.260228 1.94164 0
M  V30 6478 H 654.217 0.676792 0.316166 0
M  V30 6479 H 656.879 1.94462 0.130538 0
M  V30 6480 H 655.975 2.78677 1.40518 0
M  V30 6481 N 656.276 -0.40816 1.52223 0
M  V30 6482 C 657.501 -1.18127 1.70472 0
M  V30 6483 C 657.926 -1.83491 0.41384 0
M  V30 6484 O 657.284 -1.70047 -0.628778 0
M  V30 6485 C 657.332 -2.21935 2.84213 0
M  V30 6486 O 656.436 -3.28099 2.4985 0
M  V30 6487 H 655.777 -0.344781 0.56747 0
M  V30 6488 H 658.307 -0.478328 1.9893 0
M  V30 6489 H 658.317 -2.66248 3.09153 0
M  V30 6490 H 656.992 -1.73744 3.7787 0
M  V30 6491 H 655.569 -2.89058 2.35584 0
M  V30 6492 N 657.755 -1.42862 -0.66545 0
M  V30 6493 C 659.171 -1.25993 -0.979687 0
M  V30 6494 C 659.371 -0.170831 -2.00775 0
M  V30 6495 O 658.427 0.454827 -2.4837 0
M  V30 6496 C 659.74 -2.62005 -1.47559 0
M  V30 6497 C 661.288 -2.69437 -1.59288 0
M  V30 6498 C 661.763 -4.05838 -2.12272 0
M  V30 6499 N 663.254 -4.0784 -2.19592 0
M  V30 6500 C 663.989 -5.10205 -2.61684 0
M  V30 6501 N 663.485 -6.22949 -3.03161 0
M  V30 6502 N 665.278 -4.9756 -2.61516 0
M  V30 6503 H 657.429 -2.12395 0.0150493 0
M  V30 6504 H 659.692 -0.946355 -0.0558187 0
M  V30 6505 H 659.398 -3.42605 -0.794654 0
M  V30 6506 H 659.272 -2.86566 -2.45275 0
M  V30 6507 H 661.659 -1.89178 -2.26486 0
M  V30 6508 H 661.74 -2.48655 -0.600374 0
M  V30 6509 H 661.384 -4.86559 -1.4568 0
M  V30 6510 H 661.314 -4.23977 -3.12331 0
M  V30 6511 H 663.805 -3.26452 -1.90361 0
M  V30 6512 H 664.118 -6.96899 -3.33993 0
M  V30 6513 H 662.463 -6.2644 -3.00995 0
M  V30 6514 H 665.654 -4.08551 -2.28481 0
M  V30 6515 H 665.827 -5.77468 -2.93999 0
M  V30 6516 N 659.233 0.902656 -1.29189 0
M  V30 6517 C 660.481 1.6496 -1.16758 0
M  V30 6518 C 660.802 1.92952 0.28188 0
M  V30 6519 O 660.072 1.55351 1.19344 0
M  V30 6520 H 658.652 0.611447 -0.429118 0
M  V30 6521 H 661.314 1.0825 -1.62074 0
M  V30 6522 H 660.41 2.60728 -1.71544 0
M  V30 6523 N 660.711 1.11618 1.11262 0
M  V30 6524 C 661.936 0.889013 1.8738 0
M  V30 6525 C 662.361 -0.555884 1.79698 0
M  V30 6526 O 661.719 -1.39272 1.16073 0
M  V30 6527 C 661.767 1.35759 3.34069 0
M  V30 6528 O 660.871 0.530499 4.08974 0
M  V30 6529 H 660.212 0.320082 0.581759 0
M  V30 6530 H 662.742 1.48611 1.40627 0
M  V30 6531 H 662.752 1.35291 3.84916 0
M  V30 6532 H 661.427 2.40973 3.38976 0
M  V30 6533 H 660.004 0.601439 3.68018 0
M  V30 6534 N 662.189 -1.289 0.906776 0
M  V30 6535 C 663.437 -1.94883 0.535266 0
M  V30 6536 C 663.758 -1.71784 -0.922791 0
M  V30 6537 O 663.028 -1.05359 -1.65156 0
M  V30 6538 H 661.608 -0.721109 0.194962 0
M  V30 6539 H 664.27 -1.57018 1.15461 0
M  V30 6540 H 663.366 -3.03591 0.723821 0
M  V30 6541 N 663.667 -0.670007 -1.42649 0
M  V30 6542 C 664.892 -0.196955 -2.06463 0
M  V30 6543 C 665.317 1.1352 -1.49983 0
M  V30 6544 O 664.675 1.705 -0.616397 0
M  V30 6545 C 664.723 -0.137381 -3.60338 0
M  V30 6546 O 663.827 0.895523 -4.02559 0
M  V30 6547 H 663.168 -0.102579 -0.656029 0
M  V30 6548 H 665.698 -0.917669 -1.82866 0
M  V30 6549 H 665.708 0.0403625 -4.0798 0
M  V30 6550 H 664.383 -1.10977 -4.0082 0
M  V30 6551 H 662.96 0.689209 -3.66476 0
M  V30 6552 N 665.145 1.52092 -0.413018 0
M  V30 6553 C 666.393 2.01456 0.161178 0
M  V30 6554 C 666.714 1.30034 1.45314 0
M  V30 6555 O 665.984 0.427435 1.9118 0
M  V30 6556 H 664.564 0.744376 0.0625526 0
M  V30 6557 H 667.226 1.86974 -0.550151 0
M  V30 6558 H 666.322 3.1008 0.354517 0
M  V30 6559 N 666.623 0.143563 1.56945 0
M  V30 6560 C 667.871 -0.507402 1.95627 0
M  V30 6561 C 668.192 -1.65626 1.02922 0
M  V30 6562 O 667.462 -1.95693 0.0901136 0
M  V30 6563 H 666.042 -0.190436 0.722318 0
M  V30 6564 H 668.704 0.218257 1.93674 0
M  V30 6565 H 667.8 -0.885816 2.99265 0
M  V30 6566 N 668.101 -1.57061 -0.130224 0
M  V30 6567 C 669.326 -1.88802 -0.858409 0
M  V30 6568 C 669.751 -0.734353 -1.73173 0
M  V30 6569 O 669.109 0.315529 -1.78533 0
M  V30 6570 C 669.157 -3.19228 -1.67708 0
M  V30 6571 O 668.261 -3.04343 -2.78297 0
M  V30 6572 H 667.602 -0.619849 -0.238083 0
M  V30 6573 H 670.132 -2.04271 -0.115995 0
M  V30 6574 H 670.142 -3.51669 -2.06864 0
M  V30 6575 H 668.817 -4.02793 -1.0359 0
M  V30 6576 H 667.394 -2.83346 -2.42425 0
M  V30 6577 N 669.579 0.400081 -1.52437 0
M  V30 6578 C 670.827 1.14392 -1.6661 0
M  V30 6579 C 671.148 1.90792 -0.402927 0
M  V30 6580 O 670.418 1.87042 0.582425 0
M  V30 6581 H 668.998 0.425275 -0.614125 0
M  V30 6582 H 671.66 0.455076 -1.89513 0
M  V30 6583 H 670.756 1.85298 -2.51139 0
M  V30 6584 N 671.057 1.43213 0.657864 0
M  V30 6585 C 672.282 1.48227 1.45064 0
M  V30 6586 C 672.707 0.0999939 1.87834 0
M  V30 6587 O 672.065 -0.905269 1.57081 0
M  V30 6588 C 672.113 2.42931 2.6649 0
M  V30 6589 O 671.217 1.91237 3.6538 0
M  V30 6590 H 670.558 0.501551 0.435135 0
M  V30 6591 H 673.088 1.8808 0.805431 0
M  V30 6592 H 673.098 2.6008 3.1436 0
M  V30 6593 H 671.773 3.43348 2.34701 0
M  V30 6594 H 670.35 1.83726 3.24498 0
M  V30 6595 N 672.536 -0.895792 1.29666 0
M  V30 6596 C 673.813 -1.62723 1.08538 0
M  V30 6597 C 674.193 -2.07848 -0.369119 0
M  V30 6598 O 673.541 -1.8372 -1.35864 0
M  V30 6599 C 673.751 -2.80505 2.07648 0
M  V30 6600 C 675.099 -3.51098 2.3878 0
M  V30 6601 O 676.123 -2.90679 2.05874 0
M  V30 6602 O 674.982 -4.60028 2.9502 0
M  V30 6603 H 672.076 -0.714692 0.416106 0
M  V30 6604 H 674.622 -0.943517 1.41053 0
M  V30 6605 H 673.394 -2.44386 3.05599 0
M  V30 6606 H 673.017 -3.5658 1.75887 0
M  V30 6607 N 674.014 -1.12206 -1.10668 0
M  V30 6608 C 675.239 -0.898938 -1.86906 0
M  V30 6609 C 675.664 0.546346 -1.79991 0
M  V30 6610 O 675.022 1.38655 -1.1681 0
M  V30 6611 C 675.07 -1.37529 -3.33344 0
M  V30 6612 O 674.174 -0.55218 -4.08687 0
M  V30 6613 H 673.515 -0.323163 -0.580053 0
M  V30 6614 H 676.045 -1.49355 -1.39837 0
M  V30 6615 H 676.055 -1.3733 -3.84193 0
M  V30 6616 H 674.73 -2.42767 -3.37693 0
M  V30 6617 H 673.307 -0.620947 -3.67694 0
M  V30 6618 N 675.492 1.28418 -0.913599 0
M  V30 6619 C 676.402 2.31043 -0.406965 0
M  V30 6620 C 677.418 1.66501 0.505298 0
M  V30 6621 O 678.594 1.97558 0.391522 0
M  V30 6622 C 675.659 3.4498 0.344901 0
M  V30 6623 C 674.72 4.25078 -0.600563 0
M  V30 6624 C 673.953 5.33575 0.115516 0
M  V30 6625 O 674.176 5.54503 1.33727 0
M  V30 6626 O 673.11 5.9939 -0.549095 0
M  V30 6627 H 676.936 2.76387 -1.25873 0
M  V30 6628 H 674.521 1.33109 -0.678415 0
M  V30 6629 H 676.403 4.14314 0.769542 0
M  V30 6630 H 675.078 3.01719 1.1725 0
M  V30 6631 H 673.985 3.58334 -1.0746 0
M  V30 6632 H 675.318 4.72018 -1.39497 0
M  V30 6633 N 676.97 0.677563 1.42291 0
M  V30 6634 C 678.381 0.277912 1.8462 0
M  V30 6635 C 678.732 -1.18048 1.56714 0
M  V30 6636 O 677.857 -1.90404 1.02836 0
M  V30 6637 C 678.452 0.497619 3.35126 0
M  V30 6638 C 677.011 0.152063 3.76093 0
M  V30 6639 C 676.158 0.78872 2.65847 0
M  V30 6640 H 679.109 0.879527 1.32098 0
M  V30 6641 H 679.13 -0.24939 3.79682 0
M  V30 6642 H 678.642 1.55913 3.55405 0
M  V30 6643 H 676.743 -0.905896 3.6142 0
M  V30 6644 H 676.856 0.594514 4.75397 0
M  V30 6645 H 675.22 0.219813 2.5375 0
M  V30 6646 H 676.003 1.85374 2.88949 0
M  V30 6647 N 678.448 -1.51871 0.421078 0
M  V30 6648 C 679.725 -1.9447 -0.20993 0
M  V30 6649 C 680.105 -1.35875 -1.61558 0
M  V30 6650 O 679.453 -0.539294 -2.22045 0
M  V30 6651 C 679.663 -3.48402 -0.204165 0
M  V30 6652 C 681.011 -4.2254 -0.417696 0
M  V30 6653 O 682.035 -3.55074 -0.282999 0
M  V30 6654 O 680.894 -5.422 -0.684239 0
M  V30 6655 H 677.988 -0.815283 -0.138718 0
M  V30 6656 H 680.534 -1.62832 0.477884 0
M  V30 6657 H 679.306 -3.83464 0.779183 0
M  V30 6658 H 678.929 -3.86436 -0.935576 0
M  V30 6659 N 679.926 -0.151884 -1.56866 0
M  V30 6660 C 681.151 0.508044 -2.01081 0
M  V30 6661 C 681.576 1.57306 -1.03134 0
M  V30 6662 O 680.934 1.81298 -0.0078309 0
M  V30 6663 C 680.982 1.08106 -3.44014 0
M  V30 6664 O 680.086 2.19577 -3.49084 0
M  V30 6665 H 679.427 0.123757 -0.652365 0
M  V30 6666 H 681.957 -0.250055 -2.03066 0
M  V30 6667 H 681.967 1.40851 -3.82916 0
M  V30 6668 H 680.642 0.301168 -4.14808 0
M  V30 6669 H 679.219 1.88023 -3.22027 0
M  V30 6670 N 681.404 1.57128 0.121893 0
M  V30 6671 C 682.815 1.73902 0.679348 0
M  V30 6672 C 683.166 0.770135 1.80453 0
M  V30 6673 O 682.291 -0.0576083 2.16323 0
M  V30 6674 C 682.886 3.15328 1.2391 0
M  V30 6675 C 681.445 3.33618 1.74288 0
M  V30 6676 C 680.592 2.6978 0.641414 0
M  V30 6677 H 683.543 1.58359 -0.104 0
M  V30 6678 H 683.564 3.16718 2.10879 0
M  V30 6679 H 683.076 3.85821 0.419957 0
M  V30 6680 H 681.177 2.68162 2.58689 0
M  V30 6681 H 681.29 4.4176 1.85432 0
M  V30 6682 H 679.654 2.30935 1.0743 0
M  V30 6683 H 680.437 3.42895 -0.166707 0
M  V30 6684 N 682.882 -0.391992 1.52647 0
M  V30 6685 C 684.128 -1.139 1.67793 0
M  V30 6686 C 684.461 -1.89711 0.41514 0
M  V30 6687 O 683.736 -1.85431 -0.586979 0
M  V30 6688 C 684.019 -2.11966 2.91105 0
M  V30 6689 C 683.872 -1.39939 4.27478 0
M  V30 6690 C 685.191 -3.1243 3.09961 0
M  V30 6691 H 682.31 -0.412707 0.610608 0
M  V30 6692 H 684.952 -0.422725 1.85238 0
M  V30 6693 H 683.102 -2.73048 2.76364 0
M  V30 6694 H 684.774 -0.818439 4.53982 0
M  V30 6695 H 683.017 -0.701246 4.28095 0
M  V30 6696 H 683.688 -2.1158 5.09841 0
M  V30 6697 H 686.164 -2.61435 3.23714 0
M  V30 6698 H 685.04 -3.78294 3.97725 0
M  V30 6699 H 685.301 -3.81127 2.24042 0
M  V30 6700 N 684.36 -1.4356 -0.65026 0
M  V30 6701 C 685.607 -1.45333 -1.41012 0
M  V30 6702 C 685.935 -0.0787282 -1.94341 0
M  V30 6703 O 685.19 0.916715 -1.72901 0
M  V30 6704 C 685.489 -2.44528 -2.60654 0
M  V30 6705 C 685.155 -3.90331 -2.25727 0
M  V30 6706 C 683.817 -4.3004 -2.15914 0
M  V30 6707 C 686.169 -4.822 -1.97821 0
M  V30 6708 C 683.497 -5.59568 -1.76354 0
M  V30 6709 C 685.849 -6.12095 -1.59759 0
M  V30 6710 C 684.513 -6.50778 -1.48473 0
M  V30 6711 H 683.783 -0.531813 -0.516 0
M  V30 6712 H 686.43 -1.76657 -0.739219 0
M  V30 6713 H 684.735 -2.06619 -3.3289 0
M  V30 6714 H 686.432 -2.43155 -3.18868 0
M  V30 6715 H 683.022 -3.58905 -2.34276 0
M  V30 6716 H 687.206 -4.5229 -2.04322 0
M  V30 6717 H 682.462 -5.88376 -1.66205 0
M  V30 6718 H 686.636 -6.82751 -1.37198 0
M  V30 6719 H 684.263 -7.5105 -1.17591 0
M  V30 6720 N 685.838 0.888903 -1.30139 0
M  V30 6721 C 686.748 2.02705 -1.18101 0
M  V30 6722 C 687.764 1.73702 -0.101809 0
M  V30 6723 O 688.94 1.98906 -0.315984 0
M  V30 6724 C 686.005 3.35616 -0.869651 0
M  V30 6725 C 685.066 3.78067 -2.03381 0
M  V30 6726 C 684.299 5.04635 -1.73721 0
M  V30 6727 O 684.522 5.66531 -0.663267 0
M  V30 6728 O 683.456 5.43399 -2.58845 0
M  V30 6729 H 687.282 2.15788 -2.13704 0
M  V30 6730 H 684.867 1.01426 -1.09695 0
M  V30 6731 H 686.749 4.15358 -0.711043 0
M  V30 6732 H 685.424 3.23651 0.0565002 0
M  V30 6733 H 684.331 2.99046 -2.24772 0
M  V30 6734 H 685.664 3.94631 -2.94155 0
M  V30 6735 N 687.317 1.12792 1.10072 0
M  V30 6736 C 688.594 0.796867 1.78632 0
M  V30 6737 C 688.974 -0.712739 1.98704 0
M  V30 6738 O 688.322 -1.64773 1.5831 0
M  V30 6739 C 688.532 1.57622 3.11378 0
M  V30 6740 C 689.88 1.76463 3.86194 0
M  V30 6741 O 690.904 1.54165 3.2111 0
M  V30 6742 O 689.763 2.13623 5.03018 0
M  V30 6743 H 686.857 0.290248 0.774394 0
M  V30 6744 H 689.403 1.23215 1.16688 0
M  V30 6745 H 688.175 2.60246 2.92212 0
M  V30 6746 H 687.798 1.13543 3.81043 0
M  V30 6747 N 688.795 -1.27931 0.920396 0
M  V30 6748 C 690.02 -1.99343 0.572478 0
M  V30 6749 C 690.445 -1.68267 -0.840696 0
M  V30 6750 O 689.803 -0.918805 -1.56294 0
M  V30 6751 C 689.851 -3.51698 0.796284 0
M  V30 6752 O 688.955 -4.12157 -0.141602 0
M  V30 6753 H 688.296 -0.626065 0.221221 0
M  V30 6754 H 690.826 -1.62921 1.23765 0
M  V30 6755 H 690.836 -4.01793 0.708984 0
M  V30 6756 H 689.511 -3.73649 1.82644 0
M  V30 6757 H 688.088 -3.729 -0.005007 0
M  V30 6758 N 690.273 -0.685099 -1.4193 0
M  V30 6759 C 691.22 -0.0131869 -2.30796 0
M  V30 6760 C 692.19 0.782129 -1.46533 0
M  V30 6761 O 693.375 0.75229 -1.75343 0
M  V30 6762 C 690.515 0.924768 -3.32479 0
M  V30 6763 C 689.628 0.122181 -4.31827 0
M  V30 6764 C 688.763 1.05682 -5.20581 0
M  V30 6765 C 687.802 0.246526 -6.11603 0
M  V30 6766 N 686.939 1.13442 -6.92875 0
M  V30 6767 H 691.779 -0.776789 -2.87698 0
M  V30 6768 H 689.316 -0.394791 -1.41703 0
M  V30 6769 H 691.274 1.48251 -3.89971 0
M  V30 6770 H 689.904 1.65488 -2.77152 0
M  V30 6771 H 688.956 -0.552335 -3.76369 0
M  V30 6772 H 690.268 -0.506473 -4.96222 0
M  V30 6773 H 689.422 1.68415 -5.82856 0
M  V30 6774 H 688.161 1.71935 -4.56388 0
M  V30 6775 H 687.166 -0.393944 -5.48387 0
M  V30 6776 H 688.391 -0.412053 -6.77849 0
M  V30 6777 H 686.337 1.78316 -6.313 0
M  V30 6778 H 686.254 0.561089 -7.53915 0
M  V30 6779 H 687.522 1.74889 -7.59628 0
M  V30 6780 N 691.751 1.51645 -0.429126 0
M  V30 6781 C 692.714 2.26116 0.374726 0
M  V30 6782 C 693.714 1.29242 0.956714 0
M  V30 6783 O 694.904 1.53022 0.832452 0
M  V30 6784 C 692.036 3.04669 1.52937 0
M  V30 6785 H 693.229 2.9861 -0.277818 0
M  V30 6786 H 690.782 1.55236 -0.182097 0
M  V30 6787 H 691.517 2.36571 2.21821 0
M  V30 6788 H 691.302 3.75814 1.11833 0
M  V30 6789 H 692.792 3.61102 2.09751 0
M  V30 6790 N 693.229 0.160201 1.56784 0
M  V30 6791 C 694.176 -0.774416 2.1742 0
M  V30 6792 C 695.146 -1.23483 1.11091 0
M  V30 6793 O 696.331 -1.30499 1.39193 0
M  V30 6794 C 693.471 -2.00283 2.81035 0
M  V30 6795 C 692.584 -1.58701 4.01793 0
M  V30 6796 C 691.719 -2.76824 4.53367 0
M  V30 6797 C 690.758 -2.31679 5.66561 0
M  V30 6798 N 689.895 -3.42856 6.12694 0
M  V30 6799 H 694.735 -0.250542 2.96945 0
M  V30 6800 H 692.272 -0.111943 1.46673 0
M  V30 6801 H 694.23 -2.72316 3.16069 0
M  V30 6802 H 692.86 -2.5006 2.04132 0
M  V30 6803 H 691.912 -0.76384 3.72652 0
M  V30 6804 H 693.224 -1.21555 4.83762 0
M  V30 6805 H 692.378 -3.57029 4.90525 0
M  V30 6806 H 691.117 -3.17223 3.70433 0
M  V30 6807 H 690.122 -1.49917 5.28966 0
M  V30 6808 H 691.347 -1.9235 6.5129 0
M  V30 6809 H 689.293 -3.82852 5.32692 0
M  V30 6810 H 689.21 -3.09767 6.89624 0
M  V30 6811 H 690.478 -4.23379 6.545 0
M  V30 6812 N 694.707 -1.5719 -0.113559 0
M  V30 6813 C 696.118 -1.74259 -0.670116 0
M  V30 6814 C 696.469 -0.779694 -1.80042 0
M  V30 6815 O 695.594 0.0461353 -2.16351 0
M  V30 6816 C 696.189 -3.15981 -1.22236 0
M  V30 6817 C 694.748 -3.34537 -1.72516 0
M  V30 6818 C 693.895 -2.70116 -0.627098 0
M  V30 6819 H 696.846 -1.58301 0.112396 0
M  V30 6820 H 696.867 -3.17832 -2.09197 0
M  V30 6821 H 696.379 -3.86038 -0.39949 0
M  V30 6822 H 694.48 -2.6953 -2.57263 0
M  V30 6823 H 694.593 -4.42737 -1.83086 0
M  V30 6824 H 692.957 -2.31501 -1.06204 0
M  V30 6825 H 693.74 -3.42802 0.184889 0
M  V30 6826 N 696.185 0.383891 -1.52853 0
M  V30 6827 C 697.095 1.49343 -1.80925 0
M  V30 6828 C 698.111 1.59458 -0.696348 0
M  V30 6829 O 699.287 1.75698 -0.984481 0
M  V30 6830 C 696.352 2.84819 -1.97684 0
M  V30 6831 C 695.413 2.84382 -3.21598 0
M  V30 6832 C 694.646 4.13397 -3.37548 0
M  V30 6833 O 694.869 5.08619 -2.58192 0
M  V30 6834 O 693.803 4.20325 -4.30826 0
M  V30 6835 H 697.629 1.2855 -2.75152 0
M  V30 6836 H 695.214 0.572229 -1.38007 0
M  V30 6837 H 697.096 3.65125 -2.10385 0
M  V30 6838 H 695.771 3.05627 -1.06647 0
M  V30 6839 H 694.678 2.0284 -3.14336 0
M  V30 6840 H 696.011 2.68526 -4.12498 0
M  V30 6841 N 697.663 1.43903 0.642637 0
M  V30 6842 C 698.595 1.45857 1.768 0
M  V30 6843 C 699.608 0.353358 1.58919 0
M  V30 6844 O 700.797 0.618426 1.67445 0
M  V30 6845 C 697.897 1.26583 3.14372 0
M  V30 6846 C 697.07 2.50139 3.58817 0
M  V30 6847 C 696.129 2.25933 4.75227 0
M  V30 6848 O 695.155 2.99351 4.84125 0
M  V30 6849 N 696.357 1.28263 5.66153 0
M  V30 6850 H 699.122 2.42869 1.75598 0
M  V30 6851 H 696.683 1.39194 0.826832 0
M  V30 6852 H 698.675 1.08255 3.89953 0
M  V30 6853 H 697.245 0.37978 3.10284 0
M  V30 6854 H 696.465 2.83821 2.73568 0
M  V30 6855 H 697.753 3.32344 3.8526 0
M  V30 6856 H 697.151 0.676041 5.61646 0
M  V30 6857 H 695.708 1.15916 6.4141 0
M  V30 6858 N 699.141 -0.881989 1.30609 0
M  V30 6859 C 700.557 -1.16576 1.09005 0
M  V30 6860 C 700.757 -2.00961 -0.14727 0
M  V30 6861 O 699.813 -2.38117 -0.840036 0
M  V30 6862 C 701.126 -1.86954 2.35518 0
M  V30 6863 C 702.674 -1.99706 2.41011 0
M  V30 6864 C 703.149 -2.73497 3.67374 0
M  V30 6865 N 704.64 -2.8104 3.68199 0
M  V30 6866 C 705.375 -3.38718 4.62664 0
M  V30 6867 N 704.871 -3.97421 5.67475 0
M  V30 6868 N 706.664 -3.36561 4.50203 0
M  V30 6869 H 698.815 -0.319398 2.09985 0
M  V30 6870 H 701.078 -0.204058 0.925778 0
M  V30 6871 H 700.784 -1.32393 3.2583 0
M  V30 6872 H 700.658 -2.87317 2.44395 0
M  V30 6873 H 703.045 -2.53436 1.51176 0
M  V30 6874 H 703.126 -0.984218 2.36108 0
M  V30 6875 H 702.77 -2.20438 4.57569 0
M  V30 6876 H 702.7 -3.75163 3.6954 0
M  V30 6877 H 705.191 -2.39365 2.92426 0
M  V30 6878 H 705.504 -4.39507 6.35652 0
M  V30 6879 H 703.849 -3.95832 5.71264 0
M  V30 6880 H 707.04 -2.8993 3.67503 0
M  V30 6881 H 707.213 -3.81215 5.24003 0
M  V30 6882 N 700.619 -1.13374 -1.09472 0
M  V30 6883 C 702.03 -0.90801 -1.63132 0
M  V30 6884 C 702.381 0.555576 -1.8817 0
M  V30 6885 O 701.506 1.42218 -1.63104 0
M  V30 6886 C 702.101 -1.64182 -2.96361 0
M  V30 6887 C 700.66 -1.46197 -3.46848 0
M  V30 6888 C 699.807 -1.67134 -2.21273 0
M  V30 6889 H 702.758 -1.2871 -0.928411 0
M  V30 6890 H 702.779 -1.09863 -3.64294 0
M  V30 6891 H 702.291 -2.707 -2.78106 0
M  V30 6892 H 700.392 -0.419788 -3.70228 0
M  V30 6893 H 700.505 -2.22472 -4.24315 0
M  V30 6894 H 698.869 -1.09616 -2.29905 0
M  V30 6895 H 699.652 -2.74971 -2.05538 0
M  V30 6896 N 702.098 1.27442 -0.927168 0
M  V30 6897 C 703.323 1.99036 -0.583042 0
M  V30 6898 C 703.748 1.68711 0.83176 0
M  V30 6899 O 703.106 0.927081 1.55804 0
M  V30 6900 C 703.154 3.51271 -0.814925 0
M  V30 6901 O 702.258 4.12226 0.119742 0
M  V30 6902 H 701.599 0.624883 -0.224538 0
M  V30 6903 H 704.129 1.62263 -1.24628 0
M  V30 6904 H 704.139 4.01411 -0.730282 0
M  V30 6905 H 702.814 3.72676 -1.84623 0
M  V30 6906 H 701.391 3.72897 -0.0147688 0
M  V30 6907 N 703.576 0.692616 1.41565 0
M  V30 6908 C 704.506 0.0397325 2.33466 0
M  V30 6909 C 705.487 -0.770334 1.51657 0
M  V30 6910 O 706.672 -0.723903 1.80203 0
M  V30 6911 C 703.802 -0.899495 3.3545 0
M  V30 6912 C 702.756 -0.196738 4.27548 0
M  V30 6913 C 702.082 -1.25012 5.19881 0
M  V30 6914 C 703.382 0.935158 5.1386 0
M  V30 6915 H 705.076 0.807296 2.88311 0
M  V30 6916 H 702.622 0.389665 1.38628 0
M  V30 6917 H 704.575 -1.36545 3.98665 0
M  V30 6918 H 703.299 -1.69869 2.78948 0
M  V30 6919 H 701.958 0.249158 3.65752 0
M  V30 6920 H 701.606 -2.04177 4.59696 0
M  V30 6921 H 701.306 -0.784931 5.82334 0
M  V30 6922 H 702.83 -1.71665 5.85972 0
M  V30 6923 H 704.244 0.549619 5.70659 0
M  V30 6924 H 702.641 1.32726 5.85238 0
M  V30 6925 H 703.711 1.77613 4.512 0
M  V30 6926 N 705.054 -1.51416 0.437162 0
M  V30 6927 C 706.004 -2.24599 -0.392311 0
M  V30 6928 C 706.988 -1.2682 -0.990221 0
M  V30 6929 O 708.18 -1.51912 -0.908391 0
M  V30 6930 C 705.309 -3.09134 -1.49301 0
M  V30 6931 C 704.395 -4.14342 -0.904503 0
M  V30 6932 N 704.786 -5.0578 -0.0451511 0
M  V30 6933 C 703.084 -4.30323 -1.1721 0
M  V30 6934 C 703.785 -5.81 0.285344 0
M  V30 6935 N 702.761 -5.42591 -0.330993 0
M  V30 6936 H 706.563 -2.92655 0.270221 0
M  V30 6937 H 704.077 -1.60476 0.249226 0
M  V30 6938 H 706.074 -3.6014 -2.10011 0
M  V30 6939 H 704.734 -2.42622 -2.15788 0
M  V30 6940 H 705.745 -5.16903 0.321271 0
M  V30 6941 H 702.422 -3.75037 -1.83448 0
M  V30 6942 H 703.812 -6.64646 0.984626 0
M  V30 6943 N 706.532 -0.168513 -1.56696 0
M  V30 6944 C 707.757 0.486688 -2.01609 0
M  V30 6945 C 708.182 1.56203 -1.04796 0
M  V30 6946 O 707.54 1.8128 -0.0270596 0
M  V30 6947 C 707.588 1.04451 -3.45141 0
M  V30 6948 O 706.692 2.15862 -3.51393 0
M  V30 6949 H 706.033 0.116831 -0.653641 0
M  V30 6950 H 708.563 -0.271579 -2.0279 0
M  V30 6951 H 708.573 1.36782 -3.84389 0
M  V30 6952 H 707.248 0.257155 -4.15104 0
M  V30 6953 H 705.825 1.84597 -3.24004 0
M  V30 6954 N 708.01 1.57248 0.105221 0
M  V30 6955 C 709.426 1.52853 0.459153 0
M  V30 6956 C 709.626 0.883674 1.8109 0
M  V30 6957 O 708.682 0.471864 2.48052 0
M  V30 6958 C 709.995 2.97596 0.43096 0
M  V30 6959 C 711.543 3.08758 0.513536 0
M  V30 6960 C 712.018 4.55089 0.515593 0
M  V30 6961 N 713.509 4.59597 0.576639 0
M  V30 6962 C 714.244 5.70253 0.599904 0
M  V30 6963 N 713.74 6.90368 0.579985 0
M  V30 6964 N 715.533 5.58399 0.643953 0
M  V30 6965 H 707.684 1.97547 -0.780306 0
M  V30 6966 H 709.947 0.902758 -0.289363 0
M  V30 6967 H 709.653 3.48201 -0.494903 0
M  V30 6968 H 709.527 3.55756 1.2537 0
M  V30 6969 H 711.914 2.58148 1.42982 0
M  V30 6970 H 711.995 2.53568 -0.337148 0
M  V30 6971 H 711.639 5.06348 -0.396701 0
M  V30 6972 H 711.569 5.08105 1.38335 0
M  V30 6973 H 714.06 3.73144 0.597639 0
M  V30 6974 H 714.373 7.70462 0.600741 0
M  V30 6975 H 712.718 6.92843 0.547191 0
M  V30 6976 H 715.909 4.63467 0.656975 0
M  V30 6977 H 716.082 6.44644 0.658616 0
M  V30 6978 N 709.488 -0.375779 1.53054 0
M  V30 6979 C 710.736 -1.11727 1.68409 0
M  V30 6980 C 711.057 -1.90127 0.43323 0
M  V30 6981 O 710.327 -1.87945 -0.552595 0
M  V30 6982 H 708.907 -0.415451 0.620813 0
M  V30 6983 H 711.569 -0.424869 1.90213 0
M  V30 6984 H 710.665 -1.8128 2.54055 0
M  V30 6985 N 710.966 -1.44241 -0.634997 0
M  V30 6986 C 711.899 -1.45274 -1.75985 0
M  V30 6987 C 712.877 -0.312025 -1.59578 0
M  V30 6988 O 714.061 -0.508409 -1.81514 0
M  V30 6989 C 711.188 -1.28173 -3.13511 0
M  V30 6990 C 710.234 -2.45757 -3.48576 0
M  V30 6991 S 711.067 -4.08293 -3.46492 0
M  V30 6992 C 712.223 -3.93608 -4.86645 0
M  V30 6993 H 712.456 -2.40454 -1.74841 0
M  V30 6994 H 709.989 -1.31492 -0.809268 0
M  V30 6995 H 711.947 -1.18993 -3.92875 0
M  V30 6996 H 710.608 -0.34511 -3.12198 0
M  V30 6997 H 709.801 -2.29644 -4.48642 0
M  V30 6998 H 709.403 -2.51657 -2.76667 0
M  V30 6999 H 711.695 -3.57059 -5.75774 0
M  V30 7000 H 712.638 -4.9349 -5.07813 0
M  V30 7001 H 713.046 -3.25737 -4.61038 0
M  V30 7002 N 712.444 0.87505 -1.31075 0
M  V30 7003 C 713.374 1.99775 -1.20881 0
M  V30 7004 C 714.355 1.69822 -0.0971612 0
M  V30 7005 O 715.54 1.92158 -0.280895 0
M  V30 7006 C 712.67 3.35163 -0.910118 0
M  V30 7007 C 711.624 3.79406 -1.98078 0
M  V30 7008 C 710.95 5.12197 -1.53488 0
M  V30 7009 C 712.25 3.97061 -3.39323 0
M  V30 7010 H 713.944 2.08562 -2.14808 0
M  V30 7011 H 711.49 1.00207 -1.03415 0
M  V30 7012 H 713.443 4.13237 -0.825423 0
M  V30 7013 H 712.167 3.26536 0.064822 0
M  V30 7014 H 710.826 3.03568 -2.05528 0
M  V30 7015 H 710.474 5.00007 -0.547941 0
M  V30 7016 H 710.174 5.4277 -2.2511 0
M  V30 7017 H 711.698 5.92785 -1.46417 0
M  V30 7018 H 713.112 4.65545 -3.34576 0
M  V30 7019 H 711.509 4.39025 -4.09118 0
M  V30 7020 H 712.579 3.00601 -3.80483 0
M  V30 7021 N 713.922 1.13953 1.08869 0
M  V30 7022 C 715.199 0.815768 1.77777 0
M  V30 7023 C 715.579 -0.691624 1.99449 0
M  V30 7024 O 714.927 -1.63085 1.60049 0
M  V30 7025 C 715.137 1.60916 3.09689 0
M  V30 7026 C 716.485 1.80549 3.84301 0
M  V30 7027 O 717.509 1.57562 3.19457 0
M  V30 7028 O 716.368 2.18946 5.00724 0
M  V30 7029 H 713.462 0.298445 0.771271 0
M  V30 7030 H 716.008 1.24446 1.15374 0
M  V30 7031 H 714.78 2.6333 2.89435 0
M  V30 7032 H 714.403 1.17578 3.79817 0
M  V30 7033 N 715.4 -1.26948 0.933913 0
M  V30 7034 C 716.816 -1.46419 0.635103 0
M  V30 7035 C 717.016 -1.84336 -0.813785 0
M  V30 7036 O 716.072 -1.96061 -1.59111 0
M  V30 7037 C 717.385 -2.55206 1.5903 0
M  V30 7038 C 718.933 -2.69062 1.5992 0
M  V30 7039 C 719.408 -3.81013 2.54152 0
M  V30 7040 N 720.899 -3.88395 2.52395 0
M  V30 7041 C 721.634 -4.74454 3.21996 0
M  V30 7042 N 721.13 -5.64954 4.00997 0
M  V30 7043 N 722.923 -4.68237 3.10983 0
M  V30 7044 H 715.074 -1.00622 1.87053 0
M  V30 7045 H 717.337 -0.503189 0.803433 0
M  V30 7046 H 717.043 -2.34153 2.62422 0
M  V30 7047 H 716.917 -3.52719 1.33677 0
M  V30 7048 H 719.304 -2.89492 0.572569 0
M  V30 7049 H 719.385 -1.72016 1.89325 0
M  V30 7050 H 719.029 -3.61336 3.5693 0
M  V30 7051 H 718.959 -4.77499 2.22041 0
M  V30 7052 H 721.45 -3.23687 1.95025 0
M  V30 7053 H 721.763 -6.27496 4.51074 0
M  V30 7054 H 720.108 -5.6473 4.05099 0
M  V30 7055 H 723.299 -3.96535 2.48753 0
M  V30 7056 H 723.472 -5.35087 3.65494 0
M  V30 7057 N 716.879 -0.700114 -1.41195 0
M  V30 7058 C 718.104 -0.240704 -2.05998 0
M  V30 7059 C 718.529 1.10313 -1.52357 0
M  V30 7060 O 717.887 1.69154 -0.652424 0
M  V30 7061 C 717.935 -0.213783 -3.59966 0
M  V30 7062 O 717.039 0.809933 -4.04368 0
M  V30 7063 H 716.38 -0.116471 -0.653705 0
M  V30 7064 H 718.91 -0.956251 -1.80878 0
M  V30 7065 H 718.92 -0.0461852 -4.07974 0
M  V30 7066 H 717.595 -1.19454 -3.98376 0
M  V30 7067 H 716.172 0.611319 -3.67855 0
M  V30 7068 N 718.357 1.51182 -0.445186 0
M  V30 7069 C 719.773 1.59299 -0.0978954 0
M  V30 7070 C 719.973 1.4555 1.39346 0
M  V30 7071 O 719.029 1.30073 2.16419 0
M  V30 7072 C 720.342 2.94133 -0.625005 0
M  V30 7073 C 721.89 3.07463 -0.586137 0
M  V30 7074 C 722.365 4.44832 -1.09035 0
M  V30 7075 N 723.856 4.51173 -1.04867 0
M  V30 7076 C 724.591 5.55804 -1.40959 0
M  V30 7077 N 724.087 6.67816 -1.84375 0
M  V30 7078 N 725.88 5.46205 -1.32726 0
M  V30 7079 H 718.031 1.58363 -1.41544 0
M  V30 7080 H 720.294 0.746946 -0.58376 0
M  V30 7081 H 720 3.09589 -1.66876 0
M  V30 7082 H 719.874 3.77161 -0.0542262 0
M  V30 7083 H 722.261 2.9167 0.448646 0
M  V30 7084 H 722.342 2.26255 -1.19341 0
M  V30 7085 H 721.986 4.61372 -2.12364 0
M  V30 7086 H 721.916 5.24591 -0.459539 0
M  V30 7087 H 724.407 3.70783 -0.729932 0
M  V30 7088 H 724.72 7.43683 -2.10131 0
M  V30 7089 H 723.065 6.69003 -1.88308 0
M  V30 7090 H 726.256 4.57583 -0.986678 0
M  V30 7091 H 726.429 6.27634 -1.61182 0
M  V30 7092 N 719.835 0.176821 1.56605 0
M  V30 7093 C 720.765 -0.746841 2.21234 0
M  V30 7094 C 721.746 -1.23502 1.16967 0
M  V30 7095 O 722.931 -1.28718 1.45414 0
M  V30 7096 C 720.061 -1.97407 2.8574 0
M  V30 7097 C 719.015 -1.62153 3.96094 0
M  V30 7098 C 718.341 -2.92387 4.47676 0
M  V30 7099 C 719.641 -0.845353 5.15413 0
M  V30 7100 H 721.335 -0.208116 2.98676 0
M  V30 7101 H 718.881 -0.0986594 1.43662 0
M  V30 7102 H 720.834 -2.62531 3.2963 0
M  V30 7103 H 719.558 -2.53703 2.05676 0
M  V30 7104 H 718.217 -0.993964 3.52868 0
M  V30 7105 H 717.865 -3.46734 3.64396 0
M  V30 7106 H 717.565 -2.69551 5.22127 0
M  V30 7107 H 719.089 -3.5853 4.94255 0
M  V30 7108 H 720.503 -1.39929 5.55961 0
M  V30 7109 H 718.9 -0.715814 5.95815 0
M  V30 7110 H 719.97 0.157239 4.84645 0
M  V30 7111 N 721.313 -1.57302 -0.09688 0
M  V30 7112 C 722.276 -2.00976 -1.10188 0
M  V30 7113 C 723.276 -0.903009 -1.3305 0
M  V30 7114 O 724.466 -1.16853 -1.29194 0
M  V30 7115 C 721.598 -2.36893 -2.45142 0
M  V30 7116 H 722.791 -2.9098 -0.726003 0
M  V30 7117 H 720.344 -1.52515 -0.341872 0
M  V30 7118 H 721.079 -1.49837 -2.8761 0
M  V30 7119 H 720.864 -3.17632 -2.29897 0
M  V30 7120 H 722.354 -2.71345 -3.1743 0
M  V30 7121 N 722.791 0.367657 -1.53252 0
M  V30 7122 C 723.721 1.45632 -1.8252 0
M  V30 7123 C 724.702 1.55979 -0.678568 0
M  V30 7124 O 725.887 1.70581 -0.928217 0
M  V30 7125 C 723.017 2.82994 -2.01325 0
M  V30 7126 C 721.971 2.87473 -3.17086 0
M  V30 7127 C 721.297 4.2749 -3.21179 0
M  V30 7128 C 722.597 2.55182 -4.55719 0
M  V30 7129 H 724.291 1.21387 -2.73689 0
M  V30 7130 H 721.837 0.58251 -1.31692 0
M  V30 7131 H 723.79 3.59179 -2.20383 0
M  V30 7132 H 722.514 3.08622 -1.06864 0
M  V30 7133 H 721.173 2.13739 -2.97844 0
M  V30 7134 H 720.821 4.5019 -2.24361 0
M  V30 7135 H 720.521 4.31403 -3.98955 0
M  V30 7136 H 722.045 5.0555 -3.42419 0
M  V30 7137 H 723.459 3.21081 -4.74953 0
M  V30 7138 H 721.856 2.70414 -5.3572 0
M  V30 7139 H 722.926 1.5044 -4.60973 0
M  V30 7140 N 724.269 1.44576 0.627338 0
M  V30 7141 C 725.509 1.49083 1.39834 0
M  V30 7142 C 725.873 0.121643 1.91614 0
M  V30 7143 O 727.074 0.0413885 2.68768 0
M  V30 7144 C 725.345 2.52467 2.52973 0
M  V30 7145 S 726.904 2.7605 3.41089 0
M  V30 7146 H 723.722 0.527252 0.476997 0
M  V30 7147 H 726.324 1.81525 0.725872 0
M  V30 7148 H 725.028 3.50646 2.13249 0
M  V30 7149 H 724.559 2.2161 3.25042 0
M  V30 7150 H 726.574 2.07932 4.50531 0
M  V30 7151 N 725.747 -0.868086 1.31537 0
M  V30 7152 C 726.975 -1.65402 1.24298 0
M  V30 7153 C 727.39 -1.87827 -0.191389 0
M  V30 7154 O 726.747 -1.43776 -1.12404 0
M  V30 7155 C 726.798 -3.02093 1.9855 0
M  V30 7156 O 726.519 -2.80668 3.36388 0
M  V30 7157 C 728.02 -3.96538 1.98173 0
M  V30 7158 H 725.24 -0.515598 0.429417 0
M  V30 7159 H 727.784 -1.0834 1.73444 0
M  V30 7160 H 725.939 -3.55838 1.53161 0
M  V30 7161 H 726.353 -3.67504 3.74221 0
M  V30 7162 H 727.827 -4.8976 2.54635 0
M  V30 7163 H 728.304 -4.28474 0.964697 0
M  V30 7164 H 728.91 -3.48729 2.4345 0
M  V30 7165 N 727.225 -1.14528 -1.08264 0
M  V30 7166 C 728.155 -0.856356 -2.1723 0
M  V30 7167 C 729.136 0.189251 -1.69044 0
M  V30 7168 O 730.321 0.0456119 -1.94146 0
M  V30 7169 C 727.451 -0.334662 -3.45684 0
M  V30 7170 C 726.405 -1.31588 -4.0727 0
M  V30 7171 C 725.731 -0.653428 -5.30692 0
M  V30 7172 C 727.031 -2.67866 -4.48381 0
M  V30 7173 H 728.725 -1.76755 -2.41657 0
M  V30 7174 H 726.271 -0.851287 -1.16143 0
M  V30 7175 H 728.224 -0.120128 -4.21229 0
M  V30 7176 H 726.948 0.611967 -3.20815 0
M  V30 7177 H 725.607 -1.51661 -3.33758 0
M  V30 7178 H 725.255 0.299054 -5.0211 0
M  V30 7179 H 724.955 -1.30817 -5.72853 0
M  V30 7180 H 726.479 -0.448453 -6.08951 0
M  V30 7181 H 727.893 -2.51692 -5.15096 0
M  V30 7182 H 726.29 -3.29627 -5.01464 0
M  V30 7183 H 727.36 -3.24632 -3.60198 0
M  V30 7184 N 728.703 1.26451 -0.940633 0
M  V30 7185 C 729.949 1.94065 -0.58878 0
M  V30 7186 C 730.282 1.7363 0.869853 0
M  V30 7187 O 729.557 1.073 1.62225 0
M  V30 7188 C 729.84 3.47852 -0.931199 0
M  V30 7189 C 729.693 3.77575 -2.44453 0
M  V30 7190 C 731.012 4.37832 -0.446229 0
M  V30 7191 H 728.131 0.704827 -0.21538 0
M  V30 7192 H 730.773 1.4933 -1.17475 0
M  V30 7193 H 728.923 3.86085 -0.432539 0
M  V30 7194 H 730.595 3.49059 -3.01588 0
M  V30 7195 H 728.838 3.23671 -2.88825 0
M  V30 7196 H 729.509 4.85068 -2.63464 0
M  V30 7197 H 731.985 4.06822 -0.873778 0
M  V30 7198 H 730.861 5.44228 -0.714648 0
M  V30 7199 H 731.122 4.37239 0.653815 0
M  V30 7200 N 730.181 0.707592 1.40822 0
M  V30 7201 C 731.428 0.243671 2.01029 0
M  V30 7202 C 731.756 -1.16057 1.5608 0
M  V30 7203 O 731.011 -1.7999 0.768251 0
M  V30 7204 C 731.31 0.262892 3.56432 0
M  V30 7205 C 730.976 1.61632 4.20935 0
M  V30 7206 C 729.638 1.98682 4.38268 0
M  V30 7207 C 731.99 2.50619 4.5699 0
M  V30 7208 C 729.318 3.2428 4.88937 0
M  V30 7209 C 731.67 3.75562 5.09054 0
M  V30 7210 C 730.334 4.12739 5.24598 0
M  V30 7211 H 729.604 0.0891654 0.735616 0
M  V30 7212 H 732.251 0.909051 1.68548 0
M  V30 7213 H 730.556 -0.486052 3.88773 0
M  V30 7214 H 732.253 -0.113775 4.00839 0
M  V30 7215 H 728.843 1.31818 4.07826 0
M  V30 7216 H 733.027 2.23272 4.43242 0
M  V30 7217 H 728.283 3.53064 4.99155 0
M  V30 7218 H 732.457 4.44692 5.35931 0
M  V30 7219 H 730.084 5.10132 5.63622 0
M  V30 7220 N 731.66 -1.50943 0.453197 0
M  V30 7221 C 732.59 -2.31005 -0.34044 0
M  V30 7222 C 733.571 -1.37112 -1.00669 0
M  V30 7223 O 734.756 -1.66033 -1.0073 0
M  V30 7224 C 731.886 -3.16358 -1.433 0
M  V30 7225 C 730.84 -4.18658 -0.889363 0
M  V30 7226 C 730.166 -4.92633 -2.07887 0
M  V30 7227 C 731.466 -5.22227 0.0871142 0
M  V30 7228 H 733.16 -2.97601 0.327723 0
M  V30 7229 H 730.706 -1.43119 0.159054 0
M  V30 7230 H 732.659 -3.71155 -1.99555 0
M  V30 7231 H 731.383 -2.47613 -2.12968 0
M  V30 7232 H 730.042 -3.64936 -0.348915 0
M  V30 7233 H 729.69 -4.20376 -2.76211 0
M  V30 7234 H 729.39 -5.61819 -1.72143 0
M  V30 7235 H 730.914 -5.50258 -2.64666 0
M  V30 7236 H 732.328 -5.72001 -0.385656 0
M  V30 7237 H 730.725 -5.99032 0.357926 0
M  V30 7238 H 731.795 -4.74077 1.01879 0
M  V30 7239 N 733.138 -0.185124 -1.56509 0
M  V30 7240 C 734.378 0.458547 -1.9919 0
M  V30 7241 C 734.742 1.59484 -1.06906 0
M  V30 7242 O 735.943 2.30201 -1.38783 0
M  V30 7243 C 734.214 0.916263 -3.45455 0
M  V30 7244 S 735.773 1.55918 -4.10165 0
M  V30 7245 H 732.591 0.147008 -0.695636 0
M  V30 7246 H 735.193 -0.285841 -1.93399 0
M  V30 7247 H 733.897 0.0790543 -4.10324 0
M  V30 7248 H 733.428 1.69436 -3.55042 0
M  V30 7249 H 735.443 2.84771 -4.0635 0
M  V30 7250 N 734.616 1.57351 0.0885366 0
M  V30 7251 C 735.546 2.05561 1.10757 0
M  V30 7252 C 736.527 0.945789 1.41382 0
M  V30 7253 O 737.712 1.21747 1.51299 0
M  V30 7254 C 734.842 2.48554 2.42566 0
M  V30 7255 C 733.796 3.63259 2.26334 0
M  V30 7256 C 733.122 3.9225 3.63378 0
M  V30 7257 C 734.422 4.93913 1.69844 0
M  V30 7258 H 736.116 2.90946 0.706468 0
M  V30 7259 H 733.662 1.39968 0.338385 0
M  V30 7260 H 735.615 2.8089 3.14132 0
M  V30 7261 H 734.339 1.60176 2.84625 0
M  V30 7262 H 732.998 3.31179 1.57213 0
M  V30 7263 H 732.646 3.0103 4.02976 0
M  V30 7264 H 732.346 4.69478 3.53362 0
M  V30 7265 H 733.87 4.27067 4.36401 0
M  V30 7266 H 735.284 5.24588 2.31258 0
M  V30 7267 H 733.681 5.75349 1.70569 0
M  V30 7268 H 734.751 4.80409 0.65843 0
M  V30 7269 N 736.094 -0.359525 1.53444 0
M  V30 7270 C 737.319 -1.12644 1.74144 0
M  V30 7271 C 737.744 -1.82082 0.472007 0
M  V30 7272 O 737.102 -1.71962 -0.57436 0
M  V30 7273 C 737.15 -2.12781 2.9113 0
M  V30 7274 O 736.254 -3.19984 2.60162 0
M  V30 7275 H 735.595 -0.326553 0.578152 0
M  V30 7276 H 738.125 -0.414798 2.00351 0
M  V30 7277 H 738.135 -2.56278 3.17467 0
M  V30 7278 H 736.81 -1.61634 3.83207 0
M  V30 7279 H 735.387 -2.81417 2.44661 0
M  V30 7280 N 737.572 -1.44907 -0.619662 0
M  V30 7281 C 738.812 -1.49822 -1.39042 0
M  V30 7282 C 739.176 -0.131803 -1.91547 0
M  V30 7283 O 740.377 -0.0556413 -2.68742 0
M  V30 7284 C 738.648 -2.53805 -2.5163 0
M  V30 7285 S 740.207 -2.77855 -3.3962 0
M  V30 7286 H 737.025 -0.529774 -0.474195 0
M  V30 7287 H 739.627 -1.81907 -0.716236 0
M  V30 7288 H 738.331 -3.51772 -2.11387 0
M  V30 7289 H 737.862 -2.23331 -3.23863 0
M  V30 7290 H 739.877 -2.10319 -4.49422 0
M  V30 7291 N 739.05 0.861098 -1.31996 0
M  V30 7292 C 739.998 1.99052 -1.20337 0
M  V30 7293 C 740.992 1.69045 -0.109623 0
M  V30 7294 O 742.198 1.77931 -0.272117 0
M  V30 7295 H 738.573 0.653064 -0.372843 0
M  V30 7296 H 740.544 2.06015 -2.15872 0
M  V30 7297 C 739.293 3.34846 -0.936663 0
M  V30 7298 H 738.616 3.58462 -1.77045 0
M  V30 7299 H 740.056 4.1444 -0.895302 0
M  V30 7300 C 738.515 3.34965 0.360607 0
M  V30 7301 O 739.045 3.7745 1.37456 0
M  V30 7302 N 737.251 2.88101 0.380296 0
M  V30 7303 H 736.798 2.53721 -0.445351 0
M  V30 7304 H 736.756 2.88563 1.24816 0
M  V30 7305 N 740.528 1.15101 1.07655 0
M  V30 7306 C 741.939 0.933848 1.61667 0
M  V30 7307 C 742.29 -0.525569 1.8903 0
M  V30 7308 O 741.415 -1.39605 1.65346 0
M  V30 7309 C 742.01 1.68876 2.93711 0
M  V30 7310 C 740.569 1.51697 3.44478 0
M  V30 7311 C 739.716 1.70633 2.18586 0
M  V30 7312 H 742.667 1.30171 0.907816 0
M  V30 7313 H 742.688 1.15645 3.625 0
M  V30 7314 H 742.2 2.7509 2.73764 0
M  V30 7315 H 740.301 0.478635 3.69513 0
M  V30 7316 H 740.414 2.29194 4.20722 0
M  V30 7317 H 738.778 1.13259 2.28132 0
M  V30 7318 H 739.561 2.78206 2.01137 0
M  V30 7319 N 742.006 -1.2595 0.947325 0
M  V30 7320 C 742.936 -2.28521 0.479604 0
M  V30 7321 C 743.917 -1.63469 -0.470293 0
M  V30 7322 O 745.102 -1.90627 -0.370824 0
M  V30 7323 C 742.232 -3.46397 -0.250289 0
M  V30 7324 C 741.186 -4.23578 0.613643 0
M  V30 7325 C 740.512 -5.34131 -0.246568 0
M  V30 7326 C 741.812 -4.86979 1.88809 0
M  V30 7327 H 743.506 -2.67895 1.33688 0
M  V30 7328 H 741.052 -1.28783 0.644274 0
M  V30 7329 H 743.005 -4.17269 -0.588576 0
M  V30 7330 H 741.729 -3.05993 -1.14175 0
M  V30 7331 H 740.388 -3.54478 0.93491 0
M  V30 7332 H 740.036 -4.89968 -1.13756 0
M  V30 7333 H 739.736 -5.86683 0.328123 0
M  V30 7334 H 741.26 -6.07839 -0.579986 0
M  V30 7335 H 742.674 -5.50034 1.61666 0
M  V30 7336 H 741.071 -5.49675 2.40784 0
M  V30 7337 H 742.141 -4.09575 2.5957 0
M  V30 7338 N 743.484 -0.715051 -1.40445 0
M  V30 7339 C 744.447 -0.0708726 -2.2909 0
M  V30 7340 C 745.447 0.687926 -1.45342 0
M  V30 7341 O 746.637 0.519908 -1.66261 0
M  V30 7342 C 743.769 0.909528 -3.28543 0
M  V30 7343 H 744.962 -0.851611 -2.87555 0
M  V30 7344 H 742.515 -0.479674 -1.48758 0
M  V30 7345 H 743.25 1.71734 -2.75096 0
M  V30 7346 H 743.035 0.368318 -3.90366 0
M  V30 7347 H 744.525 1.35744 -3.94922 0
M  V30 7348 N 744.962 1.50701 -0.461195 0
M  V30 7349 C 746.187 2.07171 0.0974773 0
M  V30 7350 C 746.612 1.32391 1.3362 0
M  V30 7351 O 745.97 0.368676 1.77512 0
M  V30 7352 C 746.018 3.58651 0.374409 0
M  V30 7353 O 745.122 3.85816 1.4567 0
M  V30 7354 H 744.463 0.663944 -0.00862047 0
M  V30 7355 H 746.993 1.94021 -0.649394 0
M  V30 7356 H 747.003 4.03295 0.617843 0
M  V30 7357 H 745.678 4.12498 -0.530829 0
M  V30 7358 H 744.255 3.53018 1.20136 0
M  V30 7359 N 746.441 0.193421 1.56409 0
M  V30 7360 C 747.371 -0.723334 2.22014 0
M  V30 7361 C 748.352 -1.22254 1.1827 0
M  V30 7362 O 749.537 -1.27168 1.46771 0
M  V30 7363 C 746.667 -1.94366 2.87818 0
M  V30 7364 C 745.621 -1.57943 3.97791 0
M  V30 7365 C 744.947 -2.87623 4.50752 0
M  V30 7366 C 746.247 -0.790639 5.16281 0
M  V30 7367 H 747.941 -0.176426 2.9888 0
M  V30 7368 H 745.487 -0.0834166 1.43758 0
M  V30 7369 H 747.44 -2.5902 3.32396 0
M  V30 7370 H 746.164 -2.51507 2.08355 0
M  V30 7371 H 744.823 -0.956482 3.53903 0
M  V30 7372 H 744.471 -3.4285 3.68053 0
M  V30 7373 H 744.171 -2.63998 5.24956 0
M  V30 7374 H 745.695 -3.53268 4.9803 0
M  V30 7375 H 747.109 -1.34024 5.57414 0
M  V30 7376 H 745.506 -0.65258 5.96541 0
M  V30 7377 H 746.576 0.208633 4.84451 0
M  V30 7378 N 747.919 -1.57396 -0.0801906 0
M  V30 7379 C 748.849 -2.06145 -1.09665 0
M  V30 7380 C 749.83 -0.953273 -1.40878 0
M  V30 7381 O 751.015 -1.22548 -1.50651 0
M  V30 7382 C 748.145 -2.49836 -2.41245 0
M  V30 7383 C 747.099 -3.64454 -2.24405 0
M  V30 7384 C 746.425 -3.94172 -3.61293 0
M  V30 7385 C 747.725 -4.94807 -1.67223 0
M  V30 7386 H 749.419 -2.91316 -0.691028 0
M  V30 7387 H 746.965 -1.40145 -0.330957 0
M  V30 7388 H 748.918 -2.82552 -3.12638 0
M  V30 7389 H 747.642 -1.61683 -2.83771 0
M  V30 7390 H 746.301 -3.32008 -1.55454 0
M  V30 7391 H 745.949 -3.03163 -4.01374 0
M  V30 7392 H 745.649 -4.71345 -3.50867 0
M  V30 7393 H 747.173 -4.29376 -4.3413 0
M  V30 7394 H 748.587 -5.25807 -2.28472 0
M  V30 7395 H 746.984 -5.76245 -1.67515 0
M  V30 7396 H 748.054 -4.80751 -0.632944 0
M  V30 7397 N 749.397 0.351382 -1.53633 0
M  V30 7398 C 750.645 1.09034 -1.70165 0
M  V30 7399 C 750.966 1.89413 -0.463422 0
M  V30 7400 O 750.236 1.888 0.522624 0
M  V30 7401 H 748.816 0.405522 -0.627344 0
M  V30 7402 H 751.478 0.394554 -1.90865 0
M  V30 7403 H 750.574 1.77215 -2.56907 0
M  V30 7404 N 750.875 1.45233 0.611969 0
M  V30 7405 C 751.838 1.53189 1.70487 0
M  V30 7406 C 752.838 0.411839 1.55437 0
M  V30 7407 O 754.028 0.675164 1.60584 0
M  V30 7408 C 751.16 1.42422 3.09723 0
M  V30 7409 H 752.353 2.5056 1.64802 0
M  V30 7410 H 749.906 1.32609 0.827318 0
M  V30 7411 H 750.641 0.462185 3.2099 0
M  V30 7412 H 750.426 2.23658 3.22055 0
M  V30 7413 H 751.916 1.51012 3.89339 0
M  V30 7414 N 752.353 -0.854086 1.3245 0
M  V30 7415 C 753.769 -1.14238 1.11453 0
M  V30 7416 C 753.969 -2.01228 -0.10461 0
M  V30 7417 O 753.025 -2.39845 -0.789339 0
M  V30 7418 C 754.338 -1.81916 2.39431 0
M  V30 7419 C 755.886 -1.94549 2.45193 0
M  V30 7420 C 756.361 -2.65642 3.73093 0
M  V30 7421 N 757.852 -2.73167 3.74078 0
M  V30 7422 C 758.587 -3.28828 4.69744 0
M  V30 7423 N 758.083 -3.85295 5.75778 0
M  V30 7424 N 759.876 -3.26936 4.57241 0
M  V30 7425 H 752.027 -0.274786 2.10615 0
M  V30 7426 H 754.29 -0.184375 0.929898 0
M  V30 7427 H 753.996 -1.25452 3.28565 0
M  V30 7428 H 753.87 -2.82068 2.50434 0
M  V30 7429 H 756.257 -2.50172 1.56518 0
M  V30 7430 H 756.338 -0.933914 2.38142 0
M  V30 7431 H 755.982 -2.10683 4.62142 0
M  V30 7432 H 755.912 -3.6724 3.77415 0
M  V30 7433 H 758.403 -2.33108 2.97438 0
M  V30 7434 H 758.716 -4.25925 6.44832 0
M  V30 7435 H 757.061 -3.83625 5.79531 0
M  V30 7436 H 760.252 -2.8207 3.7357 0
M  V30 7437 H 760.425 -3.70014 5.31971 0
M  V30 7438 N 753.831 -1.1567 -1.07043 0
M  V30 7439 C 755.079 -0.931673 -1.79344 0
M  V30 7440 C 755.4 0.542421 -1.87304 0
M  V30 7441 O 754.67 1.39418 -1.37621 0
M  V30 7442 H 753.25 -0.34171 -0.664262 0
M  V30 7443 H 755.912 -1.45795 -1.29344 0
M  V30 7444 H 755.008 -1.34379 -2.81689 0
M  V30 7445 N 755.309 1.25446 -0.953992 0
M  V30 7446 C 756.239 2.28264 -0.491717 0
M  V30 7447 C 757.22 1.63717 0.461617 0
M  V30 7448 O 758.405 1.90821 0.36071 0
M  V30 7449 C 755.535 3.46525 0.231915 0
M  V30 7450 C 754.489 4.23247 -0.636098 0
M  V30 7451 C 753.815 5.34254 0.218238 0
M  V30 7452 C 755.115 4.85971 -1.91389 0
M  V30 7453 H 756.809 2.67183 -1.35106 0
M  V30 7454 H 754.355 1.2844 -0.651095 0
M  V30 7455 H 756.308 4.17576 0.566439 0
M  V30 7456 H 755.032 3.06594 1.12551 0
M  V30 7457 H 753.691 3.53978 -0.953696 0
M  V30 7458 H 753.339 4.90564 1.11156 0
M  V30 7459 H 753.039 5.86501 -0.359232 0
M  V30 7460 H 754.563 6.08138 0.547743 0
M  V30 7461 H 755.977 5.49168 -1.64581 0
M  V30 7462 H 754.374 5.48391 -2.43696 0
M  V30 7463 H 755.444 4.08192 -2.61738 0
M  V30 7464 N 756.787 0.722489 1.40064 0
M  V30 7465 C 758.198 0.336507 1.83642 0
M  V30 7466 C 758.549 -1.13002 1.6039 0
M  V30 7467 O 757.674 -1.87036 1.08842 0
M  V30 7468 C 758.269 0.603985 3.33373 0
M  V30 7469 C 756.828 0.271637 3.75419 0
M  V30 7470 C 755.975 0.872898 2.63203 0
M  V30 7471 H 758.926 0.921108 1.29233 0
M  V30 7472 H 758.947 -0.128471 3.80283 0
M  V30 7473 H 758.459 1.67141 3.50265 0
M  V30 7474 H 756.56 -0.790455 3.64119 0
M  V30 7475 H 756.673 0.745457 4.73265 0
M  V30 7476 H 755.037 0.300431 2.52922 0
M  V30 7477 H 755.82 1.94473 2.82905 0
M  V30 7478 N 758.265 -1.50454 0.469181 0
M  V30 7479 C 759.49 -2.0722 -0.0864892 0
M  V30 7480 C 759.915 -1.33098 -1.32916 0
M  V30 7481 O 759.273 -0.378084 -1.77314 0
M  V30 7482 C 759.321 -3.58845 -0.355384 0
M  V30 7483 O 758.425 -3.86583 -1.43622 0
M  V30 7484 H 757.766 -0.663889 0.0121414 0
M  V30 7485 H 760.296 -1.93674 0.659674 0
M  V30 7486 H 760.306 -4.03617 -0.596447 0
M  V30 7487 H 758.981 -4.12211 0.552698 0
M  V30 7488 H 757.558 -3.5365 -1.18262 0
M  V30 7489 N 759.743 -0.201713 -1.56304 0
M  V30 7490 C 761.154 0.309711 -1.84113 0
M  V30 7491 C 761.505 1.60912 -1.12258 0
M  V30 7492 O 760.63 2.12937 -0.385587 0
M  V30 7493 C 761.225 0.568706 -3.33993 0
M  V30 7494 C 759.784 1.02448 -3.6219 0
M  V30 7495 C 758.931 0.0766842 -2.77194 0
M  V30 7496 H 761.882 -0.425356 -1.52893 0
M  V30 7497 H 761.903 1.41721 -3.53122 0
M  V30 7498 H 761.415 -0.37719 -3.86263 0
M  V30 7499 H 759.516 1.98443 -3.15359 0
M  V30 7500 H 759.629 0.912619 -4.70328 0
M  V30 7501 H 757.993 0.579809 -2.48013 0
M  V30 7502 H 758.776 -0.863774 -3.32256 0
M  V30 7503 N 761.222 1.57436 0.0718424 0
M  V30 7504 C 762.447 1.91858 0.787745 0
M  V30 7505 C 762.872 0.798119 1.70328 0
M  V30 7506 O 762.23 -0.24905 1.79581 0
M  V30 7507 C 762.278 3.25232 1.55744 0
M  V30 7508 O 761.382 3.14462 2.6681 0
M  V30 7509 H 760.723 0.628258 0.214914 0
M  V30 7510 H 763.253 2.04561 0.0401012 0
M  V30 7511 H 763.263 3.59105 1.9367 0
M  V30 7512 H 761.938 4.0636 0.885691 0
M  V30 7513 H 760.515 2.92148 2.31741 0
M  V30 7514 N 762.7 -0.34323 1.53817 0
M  V30 7515 C 763.977 -1.10047 1.61706 0
M  V30 7516 C 764.357 -2.06495 0.438514 0
M  V30 7517 O 763.705 -2.21297 -0.569188 0
M  V30 7518 C 763.915 -1.81985 2.97796 0
M  V30 7519 C 765.263 -2.35717 3.53161 0
M  V30 7520 O 766.287 -1.9208 2.99973 0
M  V30 7521 O 765.146 -3.15551 4.46195 0
M  V30 7522 H 762.24 -0.506096 0.654061 0
M  V30 7523 H 764.786 -0.344697 1.66162 0
M  V30 7524 H 763.558 -1.11722 3.75012 0
M  V30 7525 H 763.181 -2.64419 2.96931 0
M  V30 7526 N 764.178 -1.45556 -0.604258 0
M  V30 7527 C 765.406 -1.53278 -1.38973 0
M  V30 7528 C 765.821 -0.166509 -1.88064 0
M  V30 7529 O 765.178 0.832519 -1.62405 0
M  V30 7530 C 765.229 -2.51992 -2.59195 0
M  V30 7531 O 764.95 -3.8331 -2.12143 0
M  V30 7532 C 766.451 -2.69445 -3.52015 0
M  V30 7533 H 763.671 -0.519003 -0.425297 0
M  V30 7534 H 766.215 -1.90773 -0.736621 0
M  V30 7535 H 764.37 -2.17561 -3.2054 0
M  V30 7536 H 764.784 -4.3685 -2.90279 0
M  V30 7537 H 766.258 -3.42485 -4.32907 0
M  V30 7538 H 766.735 -1.75596 -4.0257 0
M  V30 7539 H 767.341 -3.04886 -2.9652 0
M  V30 7540 N 765.656 0.84705 -1.32902 0
M  V30 7541 C 766.884 1.63403 -1.26913 0
M  V30 7542 C 767.299 1.88108 0.161483 0
M  V30 7543 O 766.656 1.45546 1.10103 0
M  V30 7544 C 766.707 2.98896 -2.03331 0
M  V30 7545 O 766.428 2.75281 -3.40811 0
M  V30 7546 C 767.929 3.93335 -2.04457 0
M  V30 7547 H 765.149 0.508701 -0.437566 0
M  V30 7548 H 767.693 1.05567 -1.75145 0
M  V30 7549 H 765.848 3.53356 -1.58802 0
M  V30 7550 H 766.262 3.61504 -3.8002 0
M  V30 7551 H 767.736 4.85647 -2.62394 0
M  V30 7552 H 768.213 4.26885 -1.03274 0
M  V30 7553 H 768.819 3.44812 -2.48967 0
M  V30 7554 N 767.134 1.16236 1.06428 0
M  V30 7555 C 768.359 0.967688 1.83441 0
M  V30 7556 C 768.784 -0.479167 1.81894 0
M  V30 7557 O 768.142 -1.34224 1.21875 0
M  V30 7558 C 768.19 1.49806 3.2801 0
M  V30 7559 O 767.294 0.703481 4.06356 0
M  V30 7560 H 766.635 0.344468 0.56766 0
M  V30 7561 H 769.165 1.54442 1.34197 0
M  V30 7562 H 769.175 1.51495 3.78831 0
M  V30 7563 H 767.85 2.55133 3.2845 0
M  V30 7564 H 766.427 0.756986 3.65136 0
M  V30 7565 N 768.612 -1.24939 0.960631 0
M  V30 7566 C 769.858 -1.93104 0.61958 0
M  V30 7567 C 770.191 -1.74991 -0.84212 0
M  V30 7568 O 769.466 -1.09867 -1.60498 0
M  V30 7569 C 769.749 -3.46326 0.986422 0
M  V30 7570 C 769.602 -3.73638 2.50429 0
M  V30 7571 C 770.921 -4.37067 0.515827 0
M  V30 7572 H 768.04 -0.701311 0.226566 0
M  V30 7573 H 770.682 -1.47442 1.19836 0
M  V30 7574 H 768.832 -3.85348 0.493907 0
M  V30 7575 H 770.504 -3.44217 3.07103 0
M  V30 7576 H 768.747 -3.19035 2.93937 0
M  V30 7577 H 769.418 -4.80815 2.71147 0
M  V30 7578 H 771.894 -4.05381 0.938389 0
M  V30 7579 H 770.77 -5.43022 0.80114 0
M  V30 7580 H 771.031 -4.38224 -0.584171 0
M  V30 7581 N 770.09 -0.729906 -1.39679 0
M  V30 7582 C 771.32 -0.285295 -2.04621 0
M  V30 7583 C 771.728 1.08304 -1.55135 0
M  V30 7584 O 771.071 1.6946 -0.709146 0
M  V30 7585 C 771.133 -0.203129 -3.58926 0
M  V30 7586 C 770.797 -1.50909 -4.31365 0
M  V30 7587 C 771.794 -2.45381 -4.58349 0
M  V30 7588 C 769.479 -1.77198 -4.70007 0
M  V30 7589 C 771.473 -3.64379 -5.22979 0
M  V30 7590 C 769.16 -2.96474 -5.34365 0
M  V30 7591 C 770.158 -3.89886 -5.60783 0
M  V30 7592 O 769.846 -5.07069 -6.23808 0
M  V30 7593 H 769.578 -0.123373 -0.664647 0
M  V30 7594 H 772.132 -0.992901 -1.79807 0
M  V30 7595 H 770.362 0.560538 -3.82616 0
M  V30 7596 H 772.051 0.208811 -4.05363 0
M  V30 7597 H 772.817 -2.2634 -4.28947 0
M  V30 7598 H 768.696 -1.05337 -4.48804 0
M  V30 7599 H 772.24 -4.37307 -5.43515 0
M  V30 7600 H 768.137 -3.15419 -5.63188 0
M  V30 7601 H 768.905 -5.07335 -6.42303 0
M  V30 7602 N 771.568 1.50203 -0.477153 0
M  V30 7603 C 772.518 2.25561 0.332625 0
M  V30 7604 C 773.502 1.29401 0.956249 0
M  V30 7605 O 774.694 1.54267 0.867795 0
M  V30 7606 C 771.823 3.12984 1.41052 0
M  V30 7607 C 770.909 4.16595 0.79433 0
M  V30 7608 N 771.3 5.05722 -0.0889633 0
M  V30 7609 C 769.598 4.33279 1.0576 0
M  V30 7610 C 770.299 5.80039 -0.439286 0
M  V30 7611 N 769.275 5.43278 0.187018 0
M  V30 7612 H 773.077 2.91836 -0.347718 0
M  V30 7613 H 770.591 1.59759 -0.291686 0
M  V30 7614 H 772.588 3.65582 2.00388 0
M  V30 7615 H 771.248 2.48258 2.09279 0
M  V30 7616 H 772.259 5.15869 -0.458205 0
M  V30 7617 H 768.936 3.79769 1.7344 0
M  V30 7618 H 770.326 6.61802 -1.1605 0
M  V30 7619 N 773.046 0.209999 1.56195 0
M  V30 7620 C 774.271 -0.433064 2.02828 0
M  V30 7621 C 774.696 -1.5337 1.08901 0
M  V30 7622 O 774.054 -1.81144 0.0751132 0
M  V30 7623 C 774.102 -0.952635 3.47789 0
M  V30 7624 O 773.206 -2.0647 3.56993 0
M  V30 7625 H 772.547 -0.0994594 0.656509 0
M  V30 7626 H 775.077 0.32525 2.01998 0
M  V30 7627 H 775.087 -1.26542 3.8788 0
M  V30 7628 H 773.762 -0.147007 4.1564 0
M  V30 7629 H 772.339 -1.75942 3.28784 0
M  V30 7630 N 774.524 -1.57472 -0.0634922 0
M  V30 7631 C 775.935 -1.76303 -0.614337 0
M  V30 7632 C 776.286 -0.836578 -1.77471 0
M  V30 7633 O 775.411 -0.0227184 -2.16388 0
M  V30 7634 C 776.006 -3.19709 -1.12122 0
M  V30 7635 C 774.565 -3.39856 -1.61786 0
M  V30 7636 C 773.712 -2.71975 -0.540845 0
M  V30 7637 H 776.663 -1.57864 0.162702 0
M  V30 7638 H 776.684 -3.24326 -1.98979 0
M  V30 7639 H 776.196 -3.87114 -0.276472 0
M  V30 7640 H 774.297 -2.77578 -2.48558 0
M  V30 7641 H 774.41 -4.48338 -1.68908 0
M  V30 7642 H 772.774 -2.34763 -0.987854 0
M  V30 7643 H 773.557 -3.4204 0.293856 0
M  V30 7644 N 776.003 0.335068 -1.53997 0
M  V30 7645 C 777.251 1.07223 -1.71312 0
M  V30 7646 C 777.572 1.88911 -0.483486 0
M  V30 7647 O 776.842 1.89344 0.50257 0
M  V30 7648 H 775.422 0.398846 -0.63161 0
M  V30 7649 H 778.084 0.374288 -1.91272 0
M  V30 7650 H 777.18 1.7448 -2.58772 0
M  V30 7651 N 777.481 1.45874 0.596531 0
M  V30 7652 C 778.897 1.30524 0.918459 0
M  V30 7653 C 779.097 0.266429 1.99731 0
M  V30 7654 O 778.153 -0.335809 2.50257 0
M  V30 7655 C 779.466 2.68747 1.3489 0
M  V30 7656 C 781.014 2.7673 1.46251 0
M  V30 7657 C 781.489 4.15504 1.92667 0
M  V30 7658 N 782.98 4.17853 1.99883 0
M  V30 7659 C 783.715 5.22109 2.37044 0
M  V30 7660 N 783.211 6.36704 2.73094 0
M  V30 7661 N 785.004 5.09471 2.37479 0
M  V30 7662 H 777.155 2.12081 -0.116368 0
M  V30 7663 H 779.418 0.947941 0.0106033 0
M  V30 7664 H 779.124 3.46006 0.630288 0
M  V30 7665 H 778.998 2.97942 2.31323 0
M  V30 7666 H 781.385 1.99768 2.17202 0
M  V30 7667 H 781.466 2.51236 0.481054 0
M  V30 7668 H 781.11 4.92956 1.223 0
M  V30 7669 H 781.04 4.38396 2.91747 0
M  V30 7670 H 783.531 3.35163 1.74568 0
M  V30 7671 H 783.844 7.12041 3.00362 0
M  V30 7672 H 782.189 6.40087 2.70764 0
M  V30 7673 H 785.38 4.18987 2.08728 0
M  V30 7674 H 785.553 5.90837 2.66112 0
M  V30 7675 N 778.959 -0.83999 1.33349 0
M  V30 7676 C 779.907 -1.97113 1.23488 0
M  V30 7677 C 780.901 -1.68849 0.136503 0
M  V30 7678 O 782.107 -1.77476 0.300389 0
M  V30 7679 H 778.482 -0.647049 0.383185 0
M  V30 7680 H 780.453 -2.02554 2.19122 0
M  V30 7681 C 779.202 -3.33314 0.989815 0
M  V30 7682 H 778.525 -3.556 1.82726 0
M  V30 7683 H 779.965 -4.12963 0.961123 0
M  V30 7684 C 778.424 -3.35496 -0.307272 0
M  V30 7685 O 778.954 -3.79589 -1.31434 0
M  V30 7686 N 777.16 -2.88669 -0.334414 0
M  V30 7687 H 776.707 -2.5298 0.485659 0
M  V30 7688 H 776.665 -2.90512 -1.20209 0
M  V30 7689 N 780.437 -1.16799 -1.0581 0
M  V30 7690 C 781.683 -0.953935 -1.78963 0
M  V30 7691 C 782.016 0.516638 -1.87202 0
M  V30 7692 O 781.291 1.38338 -1.36721 0
M  V30 7693 C 781.574 -1.58808 -3.23191 0
M  V30 7694 C 781.427 -3.13032 -3.23003 0
M  V30 7695 C 782.746 -1.2868 -4.20867 0
M  V30 7696 H 779.865 -0.347972 -0.64968 0
M  V30 7697 H 782.507 -1.44204 -1.23715 0
M  V30 7698 H 780.657 -1.17303 -3.70368 0
M  V30 7699 H 782.329 -3.63553 -2.83949 0
M  V30 7700 H 780.572 -3.46108 -2.61518 0
M  V30 7701 H 781.243 -3.52527 -4.24769 0
M  V30 7702 H 783.719 -1.6461 -3.82155 0
M  V30 7703 H 782.595 -1.75645 -5.20038 0
M  V30 7704 H 782.856 -0.206491 -4.41618 0
M  V30 7705 N 781.915 1.24427 -0.967243 0
M  V30 7706 C 782.845 2.2773 -0.515899 0
M  V30 7707 C 783.826 1.64197 0.444227 0
M  V30 7708 O 785.011 1.91193 0.340451 0
M  V30 7709 C 782.141 3.46751 0.195149 0
M  V30 7710 C 781.095 4.22548 -0.680953 0
M  V30 7711 C 780.421 5.34456 0.161561 0
M  V30 7712 C 781.721 4.83914 -1.96532 0
M  V30 7713 H 783.415 2.65735 -1.37933 0
M  V30 7714 H 780.961 1.27742 -0.664681 0
M  V30 7715 H 782.914 4.18153 0.522117 0
M  V30 7716 H 781.638 3.07771 1.09292 0
M  V30 7717 H 780.297 3.52946 -0.991186 0
M  V30 7718 H 779.945 4.91716 1.05947 0
M  V30 7719 H 779.645 5.86087 -0.421418 0
M  V30 7720 H 781.169 6.08685 0.483211 0
M  V30 7721 H 782.583 5.47392 -1.70396 0
M  V30 7722 H 780.98 5.45775 -2.49499 0
M  V30 7723 H 782.05 4.05393 -2.66053 0
M  V30 7724 N 783.393 0.737304 1.3929 0
M  V30 7725 C 784.641 0.285691 2.00071 0
M  V30 7726 C 784.962 -1.13169 1.58801 0
M  V30 7727 O 784.232 -1.77104 0.837308 0
M  V30 7728 H 782.812 0.102638 0.739915 0
M  V30 7729 H 785.474 0.947775 1.70303 0
M  V30 7730 H 784.57 0.335906 3.10287 0
M  V30 7731 N 784.871 -1.49948 0.485112 0
M  V30 7732 C 786.099 -2.06806 -0.0622824 0
M  V30 7733 C 786.514 -1.34736 -1.32256 0
M  V30 7734 O 785.871 -0.420836 -1.77582 0
M  V30 7735 C 785.922 -3.59934 -0.336096 0
M  V30 7736 O 785.643 -4.29289 0.874203 0
M  V30 7737 C 787.144 -4.33459 -0.928903 0
M  V30 7738 H 784.364 -0.670867 0.0133472 0
M  V30 7739 H 786.908 -1.92937 0.677917 0
M  V30 7740 H 785.063 -3.7356 -1.02625 0
M  V30 7741 H 785.477 -5.20735 0.627332 0
M  V30 7742 H 786.951 -5.41527 -1.07017 0
M  V30 7743 H 787.428 -3.94881 -1.92265 0
M  V30 7744 H 788.034 -4.24399 -0.276705 0
M  V30 7745 N 786.349 -0.21828 -1.56081 0
M  V30 7746 C 787.259 0.704602 -2.23769 0
M  V30 7747 C 788.275 1.21633 -1.24425 0
M  V30 7748 O 789.451 1.25862 -1.57228 0
M  V30 7749 C 786.516 1.89725 -2.90182 0
M  V30 7750 C 785.577 1.42782 -4.0486 0
M  V30 7751 C 784.81 2.56361 -4.68097 0
M  V30 7752 O 785.033 3.74417 -4.30312 0
M  V30 7753 O 783.967 2.2775 -5.57148 0
M  V30 7754 H 787.793 0.158007 -3.03289 0
M  V30 7755 H 785.378 0.0120279 -1.49395 0
M  V30 7756 H 787.26 2.59382 -3.32113 0
M  V30 7757 H 785.935 2.432 -2.13624 0
M  V30 7758 H 784.842 0.699359 -3.67505 0
M  V30 7759 H 786.175 0.939474 -4.83151 0
M  V30 7760 N 787.827 1.57504 0.0551401 0
M  V30 7761 C 789.052 1.92682 0.767352 0
M  V30 7762 C 789.477 0.81614 1.69472 0
M  V30 7763 O 788.835 -0.229989 1.79835 0
M  V30 7764 C 788.883 3.26866 1.52286 0
M  V30 7765 O 787.987 3.17274 2.63459 0
M  V30 7766 H 787.328 0.630502 0.208238 0
M  V30 7767 H 789.858 2.04592 0.0184026 0
M  V30 7768 H 789.868 3.61138 1.8985 0
M  V30 7769 H 788.543 4.07276 0.842541 0
M  V30 7770 H 787.12 2.94589 2.2863 0
M  V30 7771 N 789.305 -0.326896 1.54172 0
M  V30 7772 C 790.721 -0.671034 1.44808 0
M  V30 7773 C 790.921 -1.91781 0.618258 0
M  V30 7774 O 789.977 -2.52235 0.115751 0
M  V30 7775 C 791.29 -0.848147 2.88491 0
M  V30 7776 C 792.838 -0.945702 2.98371 0
M  V30 7777 C 793.313 -1.15501 4.43197 0
M  V30 7778 N 794.804 -1.22183 4.46795 0
M  V30 7779 C 795.539 -1.4016 5.56006 0
M  V30 7780 N 795.035 -1.55202 6.75192 0
M  V30 7781 N 796.828 -1.42841 5.43648 0
M  V30 7782 H 788.979 0.49262 2.06608 0
M  V30 7783 H 791.242 0.158574 0.934643 0
M  V30 7784 H 790.948 -0.00329969 3.517 0
M  V30 7785 H 790.822 -1.74497 3.34411 0
M  V30 7786 H 793.209 -1.78106 2.35292 0
M  V30 7787 H 793.29 -0.0254215 2.55787 0
M  V30 7788 H 792.934 -0.324521 5.06862 0
M  V30 7789 H 792.864 -2.08911 4.83388 0
M  V30 7790 H 795.355 -1.12016 3.60917 0
M  V30 7791 H 795.668 -1.68601 7.54184 0
M  V30 7792 H 794.013 -1.52306 6.78106 0
M  V30 7793 H 797.204 -1.30683 4.49488 0
M  V30 7794 H 797.377 -1.56509 6.28816 0
M  V30 7795 N 790.784 -1.46188 -0.588786 0
M  V30 7796 C 792.061 -1.41659 -1.34878 0
M  V30 7797 C 792.441 -0.0968913 -2.10878 0
M  V30 7798 O 791.789 0.921468 -2.09096 0
M  V30 7799 C 791.999 -2.6424 -2.27988 0
M  V30 7800 C 793.347 -3.1013 -2.90008 0
M  V30 7801 O 794.371 -2.64745 -2.38303 0
M  V30 7802 O 793.23 -3.88944 -3.83908 0
M  V30 7803 H 790.324 -0.563058 -0.605718 0
M  V30 7804 H 792.87 -1.58346 -0.610309 0
M  V30 7805 H 791.642 -3.51853 -1.71217 0
M  V30 7806 H 791.265 -2.49982 -3.09184 0
M  V30 7807 N 792.262 0.832906 -1.33792 0
M  V30 7808 C 793.51 1.58539 -1.25338 0
M  V30 7809 C 793.831 1.94175 0.179204 0
M  V30 7810 O 793.101 1.61458 1.10941 0
M  V30 7811 H 791.681 0.58784 -0.460926 0
M  V30 7812 H 794.343 0.995064 -1.67584 0
M  V30 7813 H 793.439 2.51268 -1.85123 0
M  V30 7814 N 793.74 1.17359 1.05189 0
M  V30 7815 C 795.151 0.96793 1.5965 0
M  V30 7816 C 795.502 -0.485355 1.90102 0
M  V30 7817 O 794.627 -1.36066 1.6827 0
M  V30 7818 C 795.222 1.75068 2.90063 0
M  V30 7819 C 793.781 1.58969 3.41183 0
M  V30 7820 C 792.928 1.75231 2.14917 0
M  V30 7821 H 795.879 1.32067 0.880001 0
M  V30 7822 H 795.9 1.23308 3.59966 0
M  V30 7823 H 795.412 2.80835 2.67868 0
M  V30 7824 H 793.513 0.556906 3.68415 0
M  V30 7825 H 793.626 2.38067 4.15766 0
M  V30 7826 H 791.99 1.18073 2.25679 0
M  V30 7827 H 792.773 2.8241 1.95191 0
M  V30 7828 N 795.218 -1.23913 0.973828 0
M  V30 7829 C 796.466 -1.91771 0.637817 0
M  V30 7830 C 796.787 -1.76434 -0.830435 0
M  V30 7831 O 796.057 -1.13965 -1.59339 0
M  V30 7832 H 794.637 -0.709761 0.232912 0
M  V30 7833 H 797.299 -1.50677 1.23622 0
M  V30 7834 H 796.395 -2.99327 0.883731 0
M  V30 7835 N 796.696 -0.74468 -1.38897 0
M  V30 7836 C 797.942 -0.306249 -2.01081 0
M  V30 7837 C 798.297 1.09724 -1.58046 0
M  V30 7838 O 797.59 1.73923 -0.803834 0
M  V30 7839 C 797.784 -0.357302 -3.55609 0
M  V30 7840 C 797.613 -1.76421 -4.13649 0
M  V30 7841 C 796.383 -2.3787 -4.4581 0
M  V30 7842 C 798.581 -2.71942 -4.36523 0
M  V30 7843 N 796.563 -3.70614 -4.89406 0
M  V30 7844 C 797.934 -3.89437 -4.8243 0
M  V30 7845 C 799.989 -2.69579 -4.18607 0
M  V30 7846 C 798.692 -5.04917 -5.123 0
M  V30 7847 C 800.718 -3.8421 -4.49596 0
M  V30 7848 C 800.08 -5.00442 -4.95719 0
M  V30 7849 H 796.179 -0.158531 -0.765762 0
M  V30 7850 H 798.763 -0.972726 -1.6866 0
M  V30 7851 H 796.934 0.278865 -3.87398 0
M  V30 7852 H 798.666 0.100599 -4.04575 0
M  V30 7853 H 795.421 -1.8971 -4.33943 0
M  V30 7854 H 795.845 -4.38791 -5.1555 0
M  V30 7855 H 800.487 -1.80905 -3.82143 0
M  V30 7856 H 798.205 -5.94213 -5.47665 0
M  V30 7857 H 801.791 -3.83691 -4.37347 0
M  V30 7858 H 800.671 -5.87671 -5.19242 0
M  V30 7859 N 798.174 1.49689 -0.493057 0
M  V30 7860 C 799.137 2.27502 0.278485 0
M  V30 7861 C 800.137 1.33184 0.901037 0
M  V30 7862 O 801.327 1.56415 0.766801 0
M  V30 7863 C 798.459 3.10881 1.39878 0
M  V30 7864 H 799.652 2.97163 -0.404219 0
M  V30 7865 H 797.205 1.54324 -0.247774 0
M  V30 7866 H 797.94 2.45767 2.11587 0
M  V30 7867 H 797.725 3.80219 0.957924 0
M  V30 7868 H 799.215 3.69673 1.94247 0
M  V30 7869 N 799.652 0.226554 1.55963 0
M  V30 7870 C 800.584 -0.713907 2.17798 0
M  V30 7871 C 801.597 -1.15387 1.14846 0
M  V30 7872 O 802.786 -1.08416 1.41804 0
M  V30 7873 C 799.886 -1.97945 2.75084 0
M  V30 7874 C 799.059 -1.69424 4.03255 0
M  V30 7875 C 798.118 -2.80734 4.45056 0
M  V30 7876 O 797.144 -2.4899 5.11852 0
M  V30 7877 N 798.346 -4.09797 4.11152 0
M  V30 7878 H 801.111 -0.18494 2.99129 0
M  V30 7879 H 798.672 0.0457346 1.61835 0
M  V30 7880 H 800.664 -2.71611 3.00016 0
M  V30 7881 H 799.234 -2.41876 1.98027 0
M  V30 7882 H 798.454 -0.793767 3.86126 0
M  V30 7883 H 799.742 -1.47806 4.86858 0
M  V30 7884 H 799.14 -4.38429 3.57486 0
M  V30 7885 H 797.697 -4.79992 4.40966 0
M  V30 7886 N 801.13 -1.57531 -0.0467866 0
M  V30 7887 C 802.376 -1.89584 -0.736837 0
M  V30 7888 C 802.731 -0.82317 -1.73901 0
M  V30 7889 O 802.024 0.170098 -1.90843 0
M  V30 7890 C 802.218 -3.26091 -1.46285 0
M  V30 7891 C 802.047 -4.46536 -0.532502 0
M  V30 7892 C 800.817 -5.05046 -0.160109 0
M  V30 7893 C 803.015 -5.13979 0.181555 0
M  V30 7894 N 800.997 -6.09009 0.773349 0
M  V30 7895 C 802.368 -6.12345 0.971297 0
M  V30 7896 C 804.423 -4.9727 0.250382 0
M  V30 7897 C 803.126 -6.95802 1.82351 0
M  V30 7898 C 805.152 -5.81275 1.08965 0
M  V30 7899 C 804.514 -6.79197 1.86737 0
M  V30 7900 H 800.613 -0.742868 -0.244277 0
M  V30 7901 H 803.197 -1.947 0.0025481 0
M  V30 7902 H 801.368 -3.21938 -2.1728 0
M  V30 7903 H 803.1 -3.45715 -2.10389 0
M  V30 7904 H 799.855 -4.70754 -0.518457 0
M  V30 7905 H 800.279 -6.65658 1.23406 0
M  V30 7906 H 804.921 -4.21458 -0.336578 0
M  V30 7907 H 802.639 -7.70971 2.42134 0
M  V30 7908 H 806.225 -5.70397 1.14621 0
M  V30 7909 H 805.105 -7.4307 2.50631 0
M  V30 7910 N 802.608 0.318715 -1.54344 0
M  V30 7911 C 803.538 1.39751 -1.87061 0
M  V30 7912 C 804.519 1.53741 -0.727848 0
M  V30 7913 O 805.704 1.67541 -0.982016 0
M  V30 7914 C 802.834 2.76446 -2.10226 0
M  V30 7915 C 801.788 2.77239 -3.26071 0
M  V30 7916 C 801.114 4.17056 -3.34617 0
M  V30 7917 C 802.414 2.40555 -4.63606 0
M  V30 7918 H 804.108 1.12619 -2.77412 0
M  V30 7919 H 801.654 0.540318 -1.33479 0
M  V30 7920 H 803.607 3.51985 -2.31699 0
M  V30 7921 H 802.331 3.05066 -1.16629 0
M  V30 7922 H 800.99 2.04155 -3.04493 0
M  V30 7923 H 800.638 4.42824 -2.3857 0
M  V30 7924 H 800.338 4.18492 -4.12478 0
M  V30 7925 H 801.862 4.94401 -3.5833 0
M  V30 7926 H 803.276 3.05808 -4.84927 0
M  V30 7927 H 801.673 2.53234 -5.44052 0
M  V30 7928 H 802.743 1.35698 -4.65526 0
M  V30 7929 N 804.086 1.46499 0.581025 0
M  V30 7930 C 805.016 1.60052 1.70017 0
M  V30 7931 C 805.997 0.450788 1.64018 0
M  V30 7932 O 807.182 0.677237 1.82009 0
M  V30 7933 C 804.312 1.5921 3.08658 0
M  V30 7934 C 803.266 2.73169 3.29488 0
M  V30 7935 C 802.592 2.57389 4.68674 0
M  V30 7936 C 803.892 4.14978 3.1716 0
M  V30 7937 H 805.586 2.53735 1.5893 0
M  V30 7938 H 803.132 1.22113 0.763173 0
M  V30 7939 H 805.085 1.67285 3.86773 0
M  V30 7940 H 803.809 0.620718 3.20647 0
M  V30 7941 H 802.468 2.64566 2.53773 0
M  V30 7942 H 802.116 1.58331 4.77431 0
M  V30 7943 H 801.816 3.33826 4.83564 0
M  V30 7944 H 803.34 2.67358 5.48956 0
M  V30 7945 H 804.754 4.24684 3.85119 0
M  V30 7946 H 803.151 4.92016 3.4357 0
M  V30 7947 H 804.221 4.35016 2.14218 0
M  V30 7948 N 805.565 -0.825799 1.34232 0
M  V30 7949 C 806.976 -1.39835 1.23706 0
M  V30 7950 C 807.327 -1.95709 -0.138649 0
M  V30 7951 O 806.452 -1.89833 -1.03886 0
M  V30 7952 C 807.047 -2.54203 2.23978 0
M  V30 7953 C 805.606 -3.07374 2.17251 0
M  V30 7954 C 804.753 -1.80232 2.10741 0
M  V30 7955 H 807.704 -0.630442 1.4564 0
M  V30 7956 H 807.725 -3.32214 1.8551 0
M  V30 7957 H 807.237 -2.13506 3.24094 0
M  V30 7958 H 805.338 -3.52583 1.20483 0
M  V30 7959 H 805.451 -3.6666 3.08379 0
M  V30 7960 H 803.815 -2.01012 1.56417 0
M  V30 7961 H 804.598 -1.41713 3.12686 0
M  V30 7962 N 807.043 -1.17915 -1.04565 0
M  V30 7963 C 808.454 -0.976383 -1.59134 0
M  V30 7964 C 808.805 0.475267 -1.90357 0
M  V30 7965 O 807.93 1.35172 -1.6899 0
M  V30 7966 C 808.525 -1.76604 -2.89131 0
M  V30 7967 C 807.084 -1.60777 -3.40335 0
M  V30 7968 C 806.231 -1.76369 -2.13985 0
M  V30 7969 H 809.182 -1.32532 -0.872985 0
M  V30 7970 H 809.203 -1.25215 -3.59307 0
M  V30 7971 H 808.715 -2.82252 -2.66375 0
M  V30 7972 H 806.816 -0.576436 -3.68114 0
M  V30 7973 H 806.929 -2.40268 -4.14497 0
M  V30 7974 H 805.293 -1.19268 -2.25049 0
M  V30 7975 H 806.076 -2.83441 -1.9369 0
M  V30 7976 N 808.521 1.23394 -0.980386 0
M  V30 7977 C 809.767 1.92094 -0.650223 0
M  V30 7978 C 810.1 1.76309 0.814173 0
M  V30 7979 O 809.375 1.12406 1.5873 0
M  V30 7980 C 809.658 3.44713 -1.04139 0
M  V30 7981 C 809.511 3.69606 -2.56342 0
M  V30 7982 C 810.83 4.36191 -0.585296 0
M  V30 7983 H 807.949 0.697618 -0.237695 0
M  V30 7984 H 810.591 1.45517 -1.22167 0
M  V30 7985 H 808.741 3.84513 -0.55515 0
M  V30 7986 H 810.413 3.39288 -3.1254 0
M  V30 7987 H 808.656 3.14318 -2.98976 0
M  V30 7988 H 809.327 4.76441 -2.78762 0
M  V30 7989 H 811.803 4.03836 -1.00276 0
M  V30 7990 H 810.679 5.41679 -0.887428 0
M  V30 7991 H 810.94 4.39097 0.51438 0
M  V30 7992 N 809.999 0.752036 1.385 0
M  V30 7993 C 811.245 0.307958 2.00448 0
M  V30 7994 C 811.578 -1.10702 1.59558 0
M  V30 7995 O 810.853 -1.75788 0.832391 0
M  V30 7996 C 811.136 0.429092 3.57534 0
M  V30 7997 C 810.989 1.88507 4.08393 0
M  V30 7998 C 812.308 -0.178442 4.39738 0
M  V30 7999 H 809.427 0.113373 0.728228 0
M  V30 8000 H 812.069 0.951389 1.64465 0
M  V30 8001 H 810.219 -0.118695 3.88319 0
M  V30 8002 H 811.891 2.49104 3.88259 0
M  V30 8003 H 810.134 2.40066 3.61318 0
M  V30 8004 H 810.805 1.92099 5.17496 0
M  V30 8005 H 813.281 0.28872 4.15097 0
M  V30 8006 H 812.157 -0.0634349 5.48863 0
M  V30 8007 H 812.418 -1.26655 4.23569 0
M  V30 8008 N 811.477 -1.49425 0.500989 0
M  V30 8009 C 812.723 -2.03369 -0.0355945 0
M  V30 8010 C 813.078 -1.37387 -1.34694 0
M  V30 8011 O 812.371 -0.500516 -1.84947 0
M  V30 8012 C 812.565 -3.56562 -0.24463 0
M  V30 8013 C 812.394 -4.37392 1.04491 0
M  V30 8014 C 811.164 -4.7941 1.59669 0
M  V30 8015 C 813.362 -4.75974 1.94817 0
M  V30 8016 N 811.344 -5.44668 2.83214 0
M  V30 8017 C 812.715 -5.4095 3.0294 0
M  V30 8018 C 814.77 -4.57915 1.95495 0
M  V30 8019 C 813.473 -5.89779 4.11768 0
M  V30 8020 C 815.499 -5.07705 3.03298 0
M  V30 8021 C 814.861 -5.72682 4.1014 0
M  V30 8022 H 810.96 -0.781507 0.0277547 0
M  V30 8023 H 813.544 -1.82594 0.675844 0
M  V30 8024 H 811.715 -3.77221 -0.925126 0
M  V30 8025 H 813.447 -3.97147 -0.778219 0
M  V30 8026 H 810.202 -4.59629 1.14185 0
M  V30 8027 H 810.626 -5.81884 3.46035 0
M  V30 8028 H 815.268 -4.07085 1.14199 0
M  V30 8029 H 812.986 -6.3963 4.93862 0
M  V30 8030 H 816.572 -4.95542 3.04843 0
M  V30 8031 H 815.452 -6.10512 4.92184 0
M  V30 8032 N 812.955 -0.234822 -1.55841 0
M  V30 8033 C 813.885 0.664217 -2.23854 0
M  V30 8034 C 814.866 1.19076 -1.2147 0
M  V30 8035 O 816.051 1.23232 -1.50091 0
M  V30 8036 C 813.181 1.86666 -2.9287 0
M  V30 8037 C 812.135 1.47341 -4.01839 0
M  V30 8038 C 811.461 2.75571 -4.58219 0
M  V30 8039 C 812.761 0.653479 -5.18196 0
M  V30 8040 H 814.455 0.0971213 -2.99242 0
M  V30 8041 H 812.001 0.0452724 -1.43929 0
M  V30 8042 H 813.954 2.50116 -3.39146 0
M  V30 8043 H 812.678 2.45894 -2.1495 0
M  V30 8044 H 811.337 0.862314 -3.56314 0
M  V30 8045 H 810.985 3.32971 -3.77014 0
M  V30 8046 H 810.685 2.49987 -5.31771 0
M  V30 8047 H 812.209 3.39939 -5.07221 0
M  V30 8048 H 813.623 1.19198 -5.60771 0
M  V30 8049 H 812.02 0.494188 -5.98062 0
M  V30 8050 H 813.09 -0.337004 -4.83728 0
M  V30 8051 N 814.433 1.57553 0.0384317 0
M  V30 8052 C 815.363 2.0898 1.04161 0
M  V30 8053 C 816.344 0.99029 1.38301 0
M  V30 8054 O 817.529 1.26499 1.47349 0
M  V30 8055 C 814.659 2.56145 2.34536 0
M  V30 8056 C 813.613 3.70275 2.14663 0
M  V30 8057 C 812.939 4.03612 3.50715 0
M  V30 8058 C 814.239 4.99067 1.54045 0
M  V30 8059 H 815.933 2.93046 0.613548 0
M  V30 8060 H 813.479 1.40973 0.293684 0
M  V30 8061 H 815.432 2.90741 3.05037 0
M  V30 8062 H 814.156 1.6915 2.79385 0
M  V30 8063 H 812.815 3.36013 1.46597 0
M  V30 8064 H 812.463 3.13698 3.93195 0
M  V30 8065 H 812.163 4.80482 3.38247 0
M  V30 8066 H 813.687 4.40735 4.22593 0
M  V30 8067 H 815.101 5.3168 2.14451 0
M  V30 8068 H 813.498 5.80484 1.52178 0
M  V30 8069 H 814.568 4.8226 0.505259 0
M  V30 8070 N 815.911 -0.310526 1.54511 0
M  V30 8071 C 816.859 -1.40272 1.85544 0
M  V30 8072 C 817.853 -1.52941 0.728377 0
M  V30 8073 O 819.059 -1.55172 0.912234 0
M  V30 8074 H 815.434 -0.468355 0.588343 0
M  V30 8075 H 817.405 -1.11329 2.76855 0
M  V30 8076 C 816.154 -2.76279 2.11105 0
M  V30 8077 H 815.477 -2.67308 2.97298 0
M  V30 8078 H 816.917 -3.51736 2.36765 0
M  V30 8079 C 815.376 -3.24472 0.906618 0
M  V30 8080 O 815.906 -4.01514 0.122358 0
M  V30 8081 N 814.112 -2.81676 0.714632 0
M  V30 8082 H 813.659 -2.19143 1.35404 0
M  V30 8083 H 813.617 -3.14272 -0.089703 0
M  V30 8084 N 817.389 -1.46805 -0.573248 0
M  V30 8085 C 818.637 -1.52302 -1.32847 0
M  V30 8086 C 818.958 -0.180159 -1.94166 0
M  V30 8087 O 818.228 0.794291 -1.79075 0
M  V30 8088 H 816.808 -0.56097 -0.493276 0
M  V30 8089 H 819.47 -1.82998 -0.670642 0
M  V30 8090 H 818.566 -2.28089 -2.13031 0
M  V30 8091 N 818.867 0.818669 -1.34668 0
M  V30 8092 C 819.797 1.94468 -1.29245 0
M  V30 8093 C 820.778 1.69257 -0.169101 0
M  V30 8094 O 821.963 1.90794 -0.362143 0
M  V30 8095 C 819.093 3.31001 -1.05145 0
M  V30 8096 C 818.047 3.70663 -2.13992 0
M  V30 8097 C 817.373 5.05226 -1.75074 0
M  V30 8098 C 818.673 3.82312 -3.55858 0
M  V30 8099 H 820.367 1.99263 -2.2346 0
M  V30 8100 H 817.913 0.957304 -1.07572 0
M  V30 8101 H 819.866 4.09364 -0.999949 0
M  V30 8102 H 818.59 3.26517 -0.0737312 0
M  V30 8103 H 817.249 2.94578 -2.18219 0
M  V30 8104 H 816.897 4.97233 -0.759518 0
M  V30 8105 H 816.597 5.32734 -2.47928 0
M  V30 8106 H 818.121 5.86042 -1.71427 0
M  V30 8107 H 819.535 4.50935 -3.5402 0
M  V30 8108 H 817.932 4.21278 -4.2737 0
M  V30 8109 H 819.002 2.84193 -3.9289 0
M  V30 8110 N 820.346 1.18468 1.03938 0
M  V30 8111 C 821.276 0.936389 2.13902 0
M  V30 8112 C 822.257 -0.126381 1.6963 0
M  V30 8113 O 823.442 0.0264757 1.94182 0
M  V30 8114 C 820.572 0.462729 3.44204 0
M  V30 8115 C 819.526 1.46613 4.02105 0
M  V30 8116 C 818.852 0.84994 5.27902 0
M  V30 8117 C 820.152 2.84323 4.3813 0
M  V30 8118 H 821.846 1.85602 2.3493 0
M  V30 8119 H 819.392 0.893806 1.12903 0
M  V30 8120 H 821.345 0.276382 4.20493 0
M  V30 8121 H 820.069 -0.492477 3.22866 0
M  V30 8122 H 818.728 1.63944 3.27899 0
M  V30 8123 H 818.376 -0.112493 5.02874 0
M  V30 8124 H 818.076 1.51988 5.67603 0
M  V30 8125 H 819.6 0.674152 6.06867 0
M  V30 8126 H 821.014 2.70636 5.054 0
M  V30 8127 H 819.411 3.48012 4.88884 0
M  V30 8128 H 820.481 3.37776 3.47901 0
M  V30 8129 N 821.824 -1.22873 0.986916 0
M  V30 8130 C 823.07 -1.91746 0.660401 0
M  V30 8131 C 823.403 -1.76738 -0.804812 0
M  V30 8132 O 822.678 -1.13246 -1.58131 0
M  V30 8133 C 822.961 -3.44156 1.05966 0
M  V30 8134 C 822.814 -3.68242 2.58298 0
M  V30 8135 C 824.133 -4.35874 0.60842 0
M  V30 8136 H 821.252 -0.696347 0.241391 0
M  V30 8137 H 823.894 -1.44867 1.22937 0
M  V30 8138 H 822.044 -3.84213 0.575534 0
M  V30 8139 H 823.716 -3.37626 3.14335 0
M  V30 8140 H 821.959 -3.12728 3.00638 0
M  V30 8141 H 822.63 -4.74956 2.81285 0
M  V30 8142 H 825.106 -4.03299 1.02417 0
M  V30 8143 H 823.982 -5.41201 0.916142 0
M  V30 8144 H 824.243 -4.39364 -0.491086 0
M  V30 8145 N 823.302 -0.75937 -1.38099 0
M  V30 8146 C 824.232 -0.151077 -2.33011 0
M  V30 8147 C 825.213 0.697099 -1.5516 0
M  V30 8148 O 826.398 0.637101 -1.83452 0
M  V30 8149 C 823.528 0.738423 -3.39359 0
M  V30 8150 C 822.482 -0.0074741 -4.27999 0
M  V30 8151 C 821.808 1.00066 -5.25253 0
M  V30 8152 C 823.108 -1.17926 -5.08813 0
M  V30 8153 H 824.802 -0.943933 -2.84131 0
M  V30 8154 H 822.348 -0.455362 -1.36611 0
M  V30 8155 H 824.301 1.17369 -4.04725 0
M  V30 8156 H 823.025 1.56366 -2.86735 0
M  V30 8157 H 821.684 -0.423379 -3.64147 0
M  V30 8158 H 821.332 1.82012 -4.68914 0
M  V30 8159 H 821.032 0.506199 -5.85416 0
M  V30 8160 H 822.556 1.43512 -5.93495 0
M  V30 8161 H 823.97 -0.821262 -5.67387 0
M  V30 8162 H 822.367 -1.60497 -5.78239 0
M  V30 8163 H 823.437 -1.98938 -4.42212 0
M  V30 8164 N 824.78 1.49157 -0.508906 0
M  V30 8165 C 826.026 2.02773 0.0328469 0
M  V30 8166 C 826.359 1.38714 1.35912 0
M  V30 8167 O 825.634 0.525536 1.87266 0
M  V30 8168 C 825.917 3.59664 0.177088 0
M  V30 8169 C 825.77 4.34239 -1.17287 0
M  V30 8170 C 827.089 4.30505 0.913977 0
M  V30 8171 H 824.208 0.736926 0.0104631 0
M  V30 8172 H 826.85 1.781 -0.661851 0
M  V30 8173 H 825 3.80818 0.768774 0
M  V30 8174 H 826.672 4.24561 -1.80404 0
M  V30 8175 H 824.915 3.96486 -1.76016 0
M  V30 8176 H 825.586 5.42397 -1.02516 0
M  V30 8177 H 828.062 4.14054 0.412084 0
M  V30 8178 H 826.938 5.40012 0.983759 0
M  V30 8179 H 827.199 3.96302 1.95951 0
M  V30 8180 N 826.258 0.243083 1.55714 0
M  V30 8181 C 827.483 -0.389944 2.03701 0
M  V30 8182 C 827.908 -1.51025 1.12129 0
M  V30 8183 O 827.266 -1.80944 0.11352 0
M  V30 8184 C 827.314 -0.878649 3.49731 0
M  V30 8185 O 826.418 -1.98851 3.61292 0
M  V30 8186 H 825.759 -0.0855115 0.658471 0
M  V30 8187 H 828.289 0.368023 2.01263 0
M  V30 8188 H 828.299 -1.18287 3.90477 0
M  V30 8189 H 826.974 -0.0588107 4.15858 0
M  V30 8190 H 825.551 -1.68928 3.32442 0
M  V30 8191 N 827.736 -1.57571 -0.0300757 0
M  V30 8192 C 828.666 -2.0953 -1.03051 0
M  V30 8193 C 829.647 -0.99761 -1.37774 0
M  V30 8194 O 830.832 -1.27279 -1.46676 0
M  V30 8195 C 827.962 -2.57385 -2.33174 0
M  V30 8196 C 826.916 -3.71409 -2.12696 0
M  V30 8197 C 826.242 -4.05467 -3.4857 0
M  V30 8198 C 827.542 -4.99877 -1.51396 0
M  V30 8199 H 829.236 -2.93367 -0.597999 0
M  V30 8200 H 826.782 -1.41127 -0.286203 0
M  V30 8201 H 828.735 -2.92355 -3.03491 0
M  V30 8202 H 827.459 -1.70629 -2.78484 0
M  V30 8203 H 826.118 -3.36786 -1.44813 0
M  V30 8204 H 825.766 -3.15779 -3.91526 0
M  V30 8205 H 825.466 -4.82269 -3.35694 0
M  V30 8206 H 826.99 -4.4297 -4.2025 0
M  V30 8207 H 828.404 -5.3281 -2.11629 0
M  V30 8208 H 826.801 -5.81283 -1.49098 0
M  V30 8209 H 827.871 -4.82522 -0.479676 0
M  V30 8210 N 829.214 0.302327 -1.54673 0
M  V30 8211 C 830.46 1.03924 -1.74149 0
M  V30 8212 C 830.793 1.86968 -0.525041 0
M  V30 8213 O 830.068 1.88538 0.477868 0
M  V30 8214 C 830.351 1.94633 -3.02969 0
M  V30 8215 C 830.204 1.14778 -4.34909 0
M  V30 8216 C 831.523 2.93826 -3.27649 0
M  V30 8217 H 828.642 0.376405 -0.633631 0
M  V30 8218 H 831.284 0.314007 -1.87387 0
M  V30 8219 H 829.434 2.56471 -2.91813 0
M  V30 8220 H 831.106 0.552363 -4.57981 0
M  V30 8221 H 829.349 0.450462 -4.31455 0
M  V30 8222 H 830.02 1.81495 -5.21309 0
M  V30 8223 H 832.496 2.42117 -3.38406 0
M  V30 8224 H 831.372 3.54462 -4.19104 0
M  V30 8225 H 831.633 3.67416 -2.45882 0
M  V30 8226 N 830.692 1.47107 0.565454 0
M  V30 8227 C 831.622 1.61846 1.68309 0
M  V30 8228 C 832.603 0.468159 1.63531 0
M  V30 8229 O 833.788 0.696504 1.8128 0
M  V30 8230 C 830.918 1.62474 3.06952 0
M  V30 8231 C 829.872 2.76649 3.26572 0
M  V30 8232 C 829.198 2.62345 4.65917 0
M  V30 8233 C 830.498 4.18319 3.12741 0
M  V30 8234 H 832.192 2.55407 1.5623 0
M  V30 8235 H 829.738 1.22916 0.750179 0
M  V30 8236 H 831.691 1.71378 3.84977 0
M  V30 8237 H 830.415 0.654692 3.19971 0
M  V30 8238 H 829.074 2.67242 2.50952 0
M  V30 8239 H 828.722 1.63386 4.75725 0
M  V30 8240 H 828.422 3.38936 4.79996 0
M  V30 8241 H 829.946 2.73165 5.46089 0
M  V30 8242 H 831.36 4.28745 3.80593 0
M  V30 8243 H 829.757 4.95632 3.38333 0
M  V30 8244 H 830.827 4.37263 2.09592 0
M  V30 8245 N 832.17 -0.811516 1.35101 0
M  V30 8246 C 833.1 -1.9378 1.30275 0
M  V30 8247 C 834.081 -1.69165 0.178075 0
M  V30 8248 O 835.266 -1.90599 0.372256 0
M  V30 8249 C 832.396 -3.30439 1.06899 0
M  V30 8250 C 831.35 -3.69523 2.15955 0
M  V30 8251 C 830.676 -5.0429 1.77751 0
M  V30 8252 C 831.976 -3.80419 3.57881 0
M  V30 8253 H 833.67 -1.98075 2.24514 0
M  V30 8254 H 831.216 -0.951586 1.08078 0
M  V30 8255 H 833.169 -4.08828 1.02164 0
M  V30 8256 H 831.893 -3.26473 0.0910462 0
M  V30 8257 H 830.552 -2.93416 2.19778 0
M  V30 8258 H 830.2 -4.96823 0.785876 0
M  V30 8259 H 829.9 -5.31411 2.5075 0
M  V30 8260 H 831.424 -5.85125 1.74533 0
M  V30 8261 H 832.838 -4.49051 3.56407 0
M  V30 8262 H 831.235 -4.19005 4.29598 0
M  V30 8263 H 832.305 -2.82105 3.94391 0
M  V30 8264 N 833.648 -1.19017 -1.03309 0
M  V30 8265 C 834.895 -0.990214 -1.76638 0
M  V30 8266 C 835.223 0.479435 -1.88498 0
M  V30 8267 O 834.478 1.37223 -1.39529 0
M  V30 8268 C 834.777 -1.59927 -3.19622 0
M  V30 8269 C 834.443 -3.09632 -3.27779 0
M  V30 8270 C 833.105 -3.50491 -3.29712 0
M  V30 8271 C 835.457 -4.05644 -3.27264 0
M  V30 8272 C 832.785 -4.85921 -3.28782 0
M  V30 8273 C 835.137 -5.41 -3.27875 0
M  V30 8274 C 833.801 -5.81295 -3.28104 0
M  V30 8275 H 833.071 -0.362345 -0.646364 0
M  V30 8276 H 835.718 -1.48197 -1.21284 0
M  V30 8277 H 834.023 -1.0297 -3.78027 0
M  V30 8278 H 835.72 -1.41989 -3.7502 0
M  V30 8279 H 832.31 -2.77073 -3.26999 0
M  V30 8280 H 836.494 -3.75124 -3.24955 0
M  V30 8281 H 831.75 -5.16427 -3.27281 0
M  V30 8282 H 835.924 -6.15157 -3.26428 0
M  V30 8283 H 833.551 -6.86211 -3.27138 0
M  V30 8284 N 835.127 1.22348 -0.993418 0
M  V30 8285 C 836.373 1.91393 -0.67056 0
M  V30 8286 C 836.706 1.77163 0.795428 0
M  V30 8287 O 835.981 1.14084 1.57528 0
M  V30 8288 C 836.264 3.43589 -1.0779 0
M  V30 8289 C 836.117 3.66867 -2.60248 0
M  V30 8290 C 837.436 4.35545 -0.631527 0
M  V30 8291 H 834.555 0.695057 -0.24508 0
M  V30 8292 H 837.197 1.44213 -1.23703 0
M  V30 8293 H 835.347 3.83903 -0.595902 0
M  V30 8294 H 837.019 3.35954 -3.16121 0
M  V30 8295 H 835.262 3.1113 -3.02293 0
M  V30 8296 H 835.933 4.73457 -2.838 0
M  V30 8297 H 838.409 4.0275 -1.04554 0
M  V30 8298 H 837.285 5.40707 -0.944831 0
M  V30 8299 H 837.546 4.39618 0.467779 0
M  V30 8300 N 836.605 0.766683 1.37694 0
M  V30 8301 C 837.835 0.339446 2.03792 0
M  V30 8302 C 838.243 -1.04153 1.57952 0
M  V30 8303 O 837.586 -1.67521 0.753826 0
M  V30 8304 C 837.648 0.29822 3.58261 0
M  V30 8305 C 837.312 1.62293 4.27212 0
M  V30 8306 C 838.309 2.57447 4.51682 0
M  V30 8307 C 835.994 1.89597 4.65143 0
M  V30 8308 C 837.988 3.78117 5.13134 0
M  V30 8309 C 835.675 3.10538 5.26317 0
M  V30 8310 C 836.673 4.04617 5.50249 0
M  V30 8311 O 836.361 5.23429 6.10145 0
M  V30 8312 H 836.093 0.140952 0.661142 0
M  V30 8313 H 838.647 1.04022 1.77111 0
M  V30 8314 H 836.877 -0.458897 3.83967 0
M  V30 8315 H 838.566 -0.101263 4.05774 0
M  V30 8316 H 839.332 2.37633 4.22795 0
M  V30 8317 H 835.211 1.17199 4.45854 0
M  V30 8318 H 838.755 4.51563 5.3173 0
M  V30 8319 H 834.652 3.3024 5.54628 0
M  V30 8320 H 835.42 5.24187 6.28626 0
M  V30 8321 N 838.083 -1.48885 0.516809 0
M  V30 8322 C 839.331 -2.02088 -0.0220166 0
M  V30 8323 C 839.652 -1.39735 -1.36011 0
M  V30 8324 O 838.922 -0.558119 -1.87781 0
M  V30 8325 H 837.502 -0.746917 -0.0111255 0
M  V30 8326 H 840.164 -1.8274 0.677647 0
M  V30 8327 H 839.26 -3.11786 -0.140067 0
M  V30 8328 N 839.561 -0.251338 -1.55583 0
M  V30 8329 C 840.471 0.656978 -2.25213 0
M  V30 8330 C 841.487 1.18966 -1.26977 0
M  V30 8331 O 842.663 1.22499 -1.59862 0
M  V30 8332 C 839.728 1.83527 -2.94141 0
M  V30 8333 C 838.789 1.34162 -4.07798 0
M  V30 8334 C 838.022 2.46375 -4.73429 0
M  V30 8335 O 838.245 3.65205 -4.38157 0
M  V30 8336 O 837.179 2.15881 -5.61853 0
M  V30 8337 H 841.005 0.0936395 -3.03556 0
M  V30 8338 H 838.59 -0.0196638 -1.49387 0
M  V30 8339 H 840.472 2.52279 -3.3754 0
M  V30 8340 H 839.147 2.38614 -2.18735 0
M  V30 8341 H 838.054 0.621249 -3.68906 0
M  V30 8342 H 839.387 0.836779 -4.85035 0
M  V30 8343 N 841.039 1.57585 0.0217189 0
M  V30 8344 C 842.45 1.7787 0.567377 0
M  V30 8345 C 842.801 0.883337 1.7519 0
M  V30 8346 O 841.926 0.0800819 2.16252 0
M  V30 8347 C 842.521 3.2257 1.03606 0
M  V30 8348 C 841.08 3.44026 1.52718 0
M  V30 8349 C 840.227 2.73313 0.468545 0
M  V30 8350 H 843.178 1.57377 -0.2045 0
M  V30 8351 H 843.199 3.29488 1.9031 0
M  V30 8352 H 842.711 3.87711 0.173739 0
M  V30 8353 H 840.812 2.8407 2.41111 0
M  V30 8354 H 840.925 4.52659 1.56962 0
M  V30 8355 H 839.289 2.37299 0.925263 0
M  V30 8356 H 840.072 3.41141 -0.384438 0
M  V30 8357 N 842.517 -0.29412 1.54831 0
M  V30 8358 C 843.763 -1.02999 1.74697 0
M  V30 8359 C 844.096 -1.86687 0.534949 0
M  V30 8360 O 843.371 -1.88789 -0.467863 0
M  V30 8361 C 843.654 -1.93024 3.03996 0
M  V30 8362 C 843.507 -1.1247 4.35512 0
M  V30 8363 C 844.826 -2.92085 3.29203 0
M  V30 8364 H 841.945 -0.373039 0.635618 0
M  V30 8365 H 844.587 -0.304065 1.87551 0
M  V30 8366 H 842.737 -2.5492 2.93169 0
M  V30 8367 H 844.409 -0.528067 4.58268 0
M  V30 8368 H 842.652 -0.427574 4.31688 0
M  V30 8369 H 843.323 -1.78728 5.22265 0
M  V30 8370 H 845.799 -2.40319 3.39685 0
M  V30 8371 H 844.675 -3.52234 4.20978 0
M  V30 8372 H 844.936 -3.66107 2.47827 0
M  V30 8373 N 843.995 -1.47404 -0.557645 0
M  V30 8374 C 845.223 -1.57622 -1.34026 0
M  V30 8375 C 845.638 -0.226256 -1.87439 0
M  V30 8376 O 844.995 0.78043 -1.64971 0
M  V30 8377 C 845.046 -2.60111 -2.51047 0
M  V30 8378 O 844.767 -3.89866 -1.99841 0
M  V30 8379 C 846.268 -2.80508 -3.43264 0
M  V30 8380 H 843.488 -0.532271 -0.40857 0
M  V30 8381 H 846.032 -1.93019 -0.675555 0
M  V30 8382 H 844.187 -2.27648 -3.13457 0
M  V30 8383 H 844.601 -4.45864 -2.76234 0
M  V30 8384 H 846.075 -3.56084 -4.21792 0
M  V30 8385 H 846.552 -1.88314 -3.9678 0
M  V30 8386 H 847.158 -3.14166 -2.86671 0
M  V30 8387 N 845.473 0.80434 -1.35529 0
M  V30 8388 C 846.889 1.10023 -1.15616 0
M  V30 8389 C 847.089 2.01478 0.0298535 0
M  V30 8390 O 846.145 2.42609 0.699778 0
M  V30 8391 C 847.458 1.72905 -2.46017 0
M  V30 8392 C 849.006 1.85315 -2.52245 0
M  V30 8393 C 849.481 2.51612 -3.82695 0
M  V30 8394 N 850.972 2.59095 -3.83958 0
M  V30 8395 C 851.707 3.11167 -4.81625 0
M  V30 8396 N 851.203 3.63659 -5.89681 0
M  V30 8397 N 852.996 3.09741 -4.6906 0
M  V30 8398 H 845.147 0.196428 -2.1149 0
M  V30 8399 H 847.41 0.149735 -0.9361 0
M  V30 8400 H 847.116 1.13171 -3.32994 0
M  V30 8401 H 846.99 2.72579 -2.6073 0
M  V30 8402 H 849.377 2.44191 -1.65695 0
M  V30 8403 H 849.458 0.844886 -2.41444 0
M  V30 8404 H 849.102 1.93385 -4.69643 0
M  V30 8405 H 849.032 3.5298 -3.90785 0
M  V30 8406 H 851.523 2.21908 -3.05884 0
M  V30 8407 H 851.836 4.01699 -6.60195 0
M  V30 8408 H 850.181 3.61852 -5.9337 0
M  V30 8409 H 853.372 2.68011 -3.83781 0
M  V30 8410 H 853.545 3.50016 -5.45338 0
M  V30 8411 N 846.951 1.19563 1.02676 0
M  V30 8412 C 848.362 1.00158 1.57561 0
M  V30 8413 C 848.713 -0.444922 1.91089 0
M  V30 8414 O 847.838 -1.32466 1.71119 0
M  V30 8415 C 848.433 1.81181 2.86284 0
M  V30 8416 C 846.992 1.66171 3.37734 0
M  V30 8417 C 846.139 1.7975 2.11152 0
M  V30 8418 H 849.09 1.33904 0.85179 0
M  V30 8419 H 849.111 1.30916 3.57269 0
M  V30 8420 H 848.623 2.86454 2.6185 0
M  V30 8421 H 846.724 0.634927 3.6715 0
M  V30 8422 H 846.837 2.46832 4.10622 0
M  V30 8423 H 845.201 1.22833 2.23123 0
M  V30 8424 H 845.984 2.86487 1.89157 0
M  V30 8425 N 848.429 -1.21819 0.999893 0
M  V30 8426 C 849.379 -2.21823 0.527104 0
M  V30 8427 C 850.363 -1.55628 -0.408515 0
M  V30 8428 O 851.555 -1.75444 -0.234196 0
M  V30 8429 C 848.684 -3.42972 -0.149986 0
M  V30 8430 C 847.77 -4.16364 0.806349 0
M  V30 8431 N 848.161 -4.66403 1.95708 0
M  V30 8432 C 846.459 -4.41618 0.623672 0
M  V30 8433 C 847.16 -5.22443 2.5579 0
M  V30 8434 N 846.136 -5.11514 1.83995 0
M  V30 8435 H 849.938 -2.58161 1.40464 0
M  V30 8436 H 847.452 -1.37569 0.863054 0
M  V30 8437 H 849.449 -4.13816 -0.50613 0
M  V30 8438 H 848.109 -3.08145 -1.02357 0
M  V30 8439 H 849.12 -4.62142 2.33763 0
M  V30 8440 H 845.797 -4.17005 -0.203257 0
M  V30 8441 H 847.187 -5.7165 3.5308 0
M  V30 8442 N 849.908 -0.773975 -1.37286 0
M  V30 8443 C 851.133 -0.349561 -2.04433 0
M  V30 8444 C 851.558 1.02082 -1.5799 0
M  V30 8445 O 850.916 1.65458 -0.741172 0
M  V30 8446 C 850.964 -0.404292 -3.58326 0
M  V30 8447 O 850.068 0.594447 -4.08093 0
M  V30 8448 H 849.409 -0.150959 -0.646612 0
M  V30 8449 H 851.939 -1.05079 -1.75555 0
M  V30 8450 H 851.949 -0.262378 -4.07155 0
M  V30 8451 H 850.624 -1.40403 -3.91484 0
M  V30 8452 H 849.201 0.415468 -3.70578 0
M  V30 8453 N 851.386 1.48609 -0.524698 0
M  V30 8454 C 852.634 2.02097 0.0112991 0
M  V30 8455 C 852.955 1.40455 1.35268 0
M  V30 8456 O 852.225 0.56807 1.87483 0
M  V30 8457 H 850.805 0.746966 0.00716426 0
M  V30 8458 H 853.467 1.82378 -0.687329 0
M  V30 8459 H 852.563 3.11855 0.123531 0
M  V30 8460 N 852.864 0.259585 1.55447 0
M  V30 8461 C 854.275 -0.241165 1.85136 0
M  V30 8462 C 854.626 -1.56634 1.18153 0
M  V30 8463 O 853.751 -2.11359 0.464351 0
M  V30 8464 C 854.346 -0.444355 3.35873 0
M  V30 8465 C 852.905 -0.889354 3.65742 0
M  V30 8466 C 852.052 0.0262474 2.77288 0
M  V30 8467 H 855.003 0.481808 1.51209 0
M  V30 8468 H 855.024 -1.28517 3.58139 0
M  V30 8469 H 854.536 0.520289 3.84597 0
M  V30 8470 H 852.637 -1.86602 3.22507 0
M  V30 8471 H 852.75 -0.737432 4.73391 0
M  V30 8472 H 851.114 -0.487361 2.49994 0
M  V30 8473 H 851.897 0.986494 3.28821 0
M  V30 8474 N 854.342 -1.57594 -0.0133615 0
M  V30 8475 C 855.305 -2.06534 -0.993799 0
M  V30 8476 C 856.305 -0.972267 -1.28077 0
M  V30 8477 O 857.495 -1.23537 -1.22818 0
M  V30 8478 C 854.627 -2.49554 -2.3224 0
M  V30 8479 H 855.82 -2.94419 -0.570741 0
M  V30 8480 H 853.373 -1.54113 -0.260546 0
M  V30 8481 H 854.108 -1.64872 -2.79263 0
M  V30 8482 H 853.893 -3.29371 -2.12737 0
M  V30 8483 H 855.383 -2.8779 -3.026 0
M  V30 8484 N 855.82 0.285905 -1.54985 0
M  V30 8485 C 857.066 1.02071 -1.75241 0
M  V30 8486 C 857.399 1.864 -0.544842 0
M  V30 8487 O 856.674 1.89034 0.457844 0
M  V30 8488 C 856.957 1.91409 -3.05016 0
M  V30 8489 C 856.81 1.10158 -4.36102 0
M  V30 8490 C 858.129 2.90335 -3.30747 0
M  V30 8491 H 855.248 0.369663 -0.637588 0
M  V30 8492 H 857.89 0.294114 -1.8771 0
M  V30 8493 H 856.04 2.53362 -2.94517 0
M  V30 8494 H 857.712 0.503756 -4.58541 0
M  V30 8495 H 855.955 0.404675 -4.31908 0
M  V30 8496 H 856.626 1.75956 -5.23205 0
M  V30 8497 H 859.102 2.38514 -3.40955 0
M  V30 8498 H 857.978 3.49997 -4.2284 0
M  V30 8499 H 858.239 3.64787 -2.49765 0
M  V30 8500 N 857.298 1.47698 0.54982 0
M  V30 8501 C 858.528 1.58101 1.32995 0
M  V30 8502 C 858.936 0.232939 1.87761 0
M  V30 8503 O 858.279 -0.785058 1.6608 0
M  V30 8504 C 858.341 2.55228 2.53178 0
M  V30 8505 C 858.005 4.00756 2.19645 0
M  V30 8506 C 859.002 4.89025 1.76496 0
M  V30 8507 C 856.687 4.46147 2.30777 0
M  V30 8508 C 858.681 6.20707 1.44919 0
M  V30 8509 C 856.368 5.77856 1.98812 0
M  V30 8510 C 857.366 6.64957 1.55952 0
M  V30 8511 O 857.054 7.94217 1.24396 0
M  V30 8512 H 856.786 0.536362 0.411451 0
M  V30 8513 H 859.34 1.94092 0.67212 0
M  V30 8514 H 857.57 2.14319 3.21876 0
M  V30 8515 H 859.259 2.55678 3.15251 0
M  V30 8516 H 860.025 4.55201 1.67383 0
M  V30 8517 H 855.904 3.78552 2.63096 0
M  V30 8518 H 859.448 6.88649 1.11392 0
M  V30 8519 H 855.345 6.11219 2.0756 0
M  V30 8520 H 856.113 8.06789 1.37964 0
M  V30 8521 N 858.776 -0.797141 1.35954 0
M  V30 8522 C 860.023 -1.55468 1.29754 0
M  V30 8523 C 860.351 -1.94095 -0.125391 0
M  V30 8524 O 859.606 -1.62341 -1.09288 0
M  V30 8525 C 859.905 -2.84847 2.15863 0
M  V30 8526 C 859.571 -2.65394 3.64523 0
M  V30 8527 C 858.233 -2.59796 4.05042 0
M  V30 8528 C 860.585 -2.4727 4.58811 0
M  V30 8529 C 857.913 -2.3403 5.38002 0
M  V30 8530 C 860.265 -2.23032 5.91979 0
M  V30 8531 C 858.929 -2.15862 6.31633 0
M  V30 8532 H 858.199 -0.568897 0.474803 0
M  V30 8533 H 860.846 -0.920299 1.67937 0
M  V30 8534 H 859.151 -3.52712 1.70591 0
M  V30 8535 H 860.848 -3.42597 2.08395 0
M  V30 8536 H 857.438 -2.70602 3.32374 0
M  V30 8537 H 861.622 -2.506 4.28384 0
M  V30 8538 H 856.878 -2.26956 5.67715 0
M  V30 8539 H 861.052 -2.08001 6.64612 0
M  V30 8540 H 858.679 -1.9566 7.34589 0
M  V30 8541 N 860.254 -1.20106 -1.0204 0
M  V30 8542 C 861.5 -1.02042 -1.75951 0
M  V30 8543 C 861.855 0.443229 -1.87225 0
M  V30 8544 O 861.148 1.32477 -1.38421 0
M  V30 8545 C 861.342 -1.63308 -3.17908 0
M  V30 8546 C 861.171 -3.15478 -3.20474 0
M  V30 8547 C 859.941 -3.84432 -3.27933 0
M  V30 8548 C 862.139 -4.12747 -3.06829 0
M  V30 8549 N 860.121 -5.23925 -3.19963 0
M  V30 8550 C 861.492 -5.38892 -3.06586 0
M  V30 8551 C 863.547 -4.03996 -2.91018 0
M  V30 8552 C 862.25 -6.57296 -2.92154 0
M  V30 8553 C 864.276 -5.22019 -2.77938 0
M  V30 8554 C 863.638 -6.47067 -2.78358 0
M  V30 8555 H 859.737 -0.427602 -0.654737 0
M  V30 8556 H 862.321 -1.52216 -1.21402 0
M  V30 8557 H 860.492 -1.15723 -3.7076 0
M  V30 8558 H 862.224 -1.38597 -3.80227 0
M  V30 8559 H 858.979 -3.35269 -3.34502 0
M  V30 8560 H 859.403 -5.9694 -3.19362 0
M  V30 8561 H 864.045 -3.0813 -2.8951 0
M  V30 8562 H 861.763 -7.5334 -2.92412 0
M  V30 8563 H 865.349 -5.17057 -2.66728 0
M  V30 8564 H 864.229 -7.36857 -2.6835 0
M  V30 8565 N 861.732 1.21287 -1.00634 0
M  V30 8566 C 863.148 1.42467 -0.719389 0
M  V30 8567 C 863.348 1.88767 0.704927 0
M  V30 8568 O 862.404 2.05004 1.47409 0
M  V30 8569 C 863.717 2.455 -1.73639 0
M  V30 8570 C 865.265 2.59281 -1.75335 0
M  V30 8571 C 865.74 3.65547 -2.75934 0
M  V30 8572 N 867.231 3.73019 -2.74611 0
M  V30 8573 C 867.966 4.54873 -3.4911 0
M  V30 8574 N 867.462 5.40614 -4.33253 0
M  V30 8575 N 869.255 4.49309 -3.37754 0
M  V30 8576 H 861.406 0.895454 -1.92602 0
M  V30 8577 H 863.669 0.455491 -0.831404 0
M  V30 8578 H 863.375 2.18455 -2.75627 0
M  V30 8579 H 863.249 3.44325 -1.54014 0
M  V30 8580 H 865.636 2.85661 -0.740377 0
M  V30 8581 H 865.717 1.60685 -1.99032 0
M  V30 8582 H 865.361 3.39911 -3.77389 0
M  V30 8583 H 865.291 4.63741 -2.49503 0
M  V30 8584 H 867.782 3.11766 -2.13565 0
M  V30 8585 H 868.095 6.0013 -4.86892 0
M  V30 8586 H 866.44 5.40151 -4.37335 0
M  V30 8587 H 869.631 3.81357 -2.71449 0
M  V30 8588 H 869.804 5.12867 -3.9607 0
M  V30 8589 N 863.21 0.781244 1.36873 0
M  V30 8590 C 864.16 0.147313 2.27524 0
M  V30 8591 C 865.144 -0.663928 1.46563 0
M  V30 8592 O 866.336 -0.525343 1.69024 0
M  V30 8593 C 863.465 -0.723511 3.35589 0
M  V30 8594 C 862.551 0.0960763 4.23991 0
M  V30 8595 N 862.942 1.14649 4.92635 0
M  V30 8596 C 861.24 -0.126397 4.45821 0
M  V30 8597 C 861.941 1.64474 5.57964 0
M  V30 8598 N 860.917 0.955316 5.3514 0
M  V30 8599 H 864.719 0.951406 2.78075 0
M  V30 8600 H 862.233 0.619913 1.50103 0
M  V30 8601 H 864.23 -1.19351 3.99451 0
M  V30 8602 H 862.89 -1.52624 2.86594 0
M  V30 8603 H 863.901 1.5288 4.94821 0
M  V30 8604 H 860.578 -0.900284 4.07678 0
M  V30 8605 H 861.968 2.52124 6.22803 0
M  V30 8606 N 864.689 -1.48329 0.532571 0
M  V30 8607 C 866.105 -1.58458 0.190605 0
M  V30 8608 C 866.305 -1.53427 -1.30623 0
M  V30 8609 O 865.361 -1.4247 -2.08467 0
M  V30 8610 C 866.674 -2.89989 0.79543 0
M  V30 8611 C 868.222 -3.03523 0.7644 0
M  V30 8612 C 868.697 -4.37718 1.34785 0
M  V30 8613 N 870.188 -4.44292 1.30993 0
M  V30 8614 C 870.923 -5.4664 1.73124 0
M  V30 8615 N 870.419 -6.5593 2.22997 0
M  V30 8616 N 872.212 -5.37538 1.64346 0
M  V30 8617 H 864.363 -1.49842 1.50537 0
M  V30 8618 H 866.626 -0.71164 0.626316 0
M  V30 8619 H 866.332 -2.99333 1.84642 0
M  V30 8620 H 866.206 -3.76203 0.27403 0
M  V30 8621 H 868.593 -2.93789 -0.277831 0
M  V30 8622 H 868.674 -2.18912 1.3233 0
M  V30 8623 H 868.318 -4.48206 2.38902 0
M  V30 8624 H 868.248 -5.21019 0.764609 0
M  V30 8625 H 870.739 -3.65897 0.944868 0
M  V30 8626 H 871.052 -7.30167 2.53133 0
M  V30 8627 H 869.397 -6.56886 2.26992 0
M  V30 8628 H 872.588 -4.51052 1.25178 0
M  V30 8629 H 872.761 -6.17169 1.97501 0
M  V30 8630 N 866.167 -0.267825 -1.55308 0
M  V30 8631 C 867.114 0.6228 -2.22238 0
M  V30 8632 C 868.084 1.15536 -1.19334 0
M  V30 8633 O 869.269 1.206 -1.47852 0
M  V30 8634 C 866.409 1.80447 -2.94164 0
M  V30 8635 C 865.522 1.30646 -4.11771 0
M  V30 8636 C 864.657 2.44935 -4.7136 0
M  V30 8637 C 863.696 1.92099 -5.81175 0
M  V30 8638 N 862.833 2.99834 -6.34857 0
M  V30 8639 H 867.673 0.0453874 -2.97965 0
M  V30 8640 H 865.21 0.0106371 -1.47096 0
M  V30 8641 H 867.168 2.49896 -3.34078 0
M  V30 8642 H 865.798 2.35403 -2.20874 0
M  V30 8643 H 864.85 0.505314 -3.77029 0
M  V30 8644 H 866.162 0.879409 -4.90987 0
M  V30 8645 H 865.316 3.2239 -5.13955 0
M  V30 8646 H 864.055 2.90951 -3.91406 0
M  V30 8647 H 863.06 1.13122 -5.38037 0
M  V30 8648 H 864.285 1.47027 -6.62993 0
M  V30 8649 H 862.231 3.45246 -5.578 0
M  V30 8650 H 862.148 2.61524 -7.09324 0
M  V30 8651 H 863.416 3.77286 -6.82111 0
M  V30 8652 N 867.645 1.57599 0.00500368 0
M  V30 8653 C 868.577 2.04949 1.02609 0
M  V30 8654 C 869.59 0.966507 1.31006 0
M  V30 8655 O 870.779 1.2434 1.2807 0
M  V30 8656 C 867.879 2.43023 2.36206 0
M  V30 8657 C 867.052 3.73993 2.26821 0
M  V30 8658 C 866.111 3.9899 3.43065 0
M  V30 8659 O 865.137 4.69725 3.21477 0
M  V30 8660 N 866.339 3.46496 4.65748 0
M  V30 8661 H 869.104 2.93167 0.622336 0
M  V30 8662 H 866.665 1.60752 0.192488 0
M  V30 8663 H 868.657 2.56863 3.12735 0
M  V30 8664 H 867.227 1.60349 2.68341 0
M  V30 8665 H 866.447 3.70277 1.35235 0
M  V30 8666 H 867.735 4.59865 2.17719 0
M  V30 8667 H 867.133 2.89206 4.86186 0
M  V30 8668 H 865.69 3.65675 5.3956 0
M  V30 8669 N 869.123 -0.277682 1.55134 0
M  V30 8670 C 870.086 -1.32635 1.86924 0
M  V30 8671 C 871.086 -1.42578 0.743507 0
M  V30 8672 O 872.276 -1.4181 1.01171 0
M  V30 8673 C 869.408 -2.70832 2.07034 0
M  V30 8674 H 870.601 -1.0568 2.80663 0
M  V30 8675 H 868.154 -0.515517 1.47554 0
M  V30 8676 H 868.889 -3.02974 1.15661 0
M  V30 8677 H 868.674 -2.65001 2.88993 0
M  V30 8678 H 870.164 -3.46611 2.32918 0
M  V30 8679 N 870.601 -1.47988 -0.541979 0
M  V30 8680 C 871.878 -1.45878 -1.30303 0
M  V30 8681 C 872.258 -0.163931 -2.10463 0
M  V30 8682 O 871.606 0.854479 -2.11922 0
M  V30 8683 C 871.816 -2.71359 -2.19466 0
M  V30 8684 C 873.164 -3.19199 -2.79995 0
M  V30 8685 O 874.188 -2.72193 -2.2976 0
M  V30 8686 O 873.047 -4.00961 -3.71339 0
M  V30 8687 H 870.141 -0.582043 -0.587498 0
M  V30 8688 H 872.687 -1.60207 -0.559623 0
M  V30 8689 H 871.459 -3.57122 -1.59936 0
M  V30 8690 H 871.082 -2.59692 -3.01075 0
M  V30 8691 N 872.079 0.78992 -1.36375 0
M  V30 8692 C 873.009 1.91683 -1.33341 0
M  V30 8693 C 873.99 1.68861 -0.204965 0
M  V30 8694 O 875.175 1.89982 -0.402531 0
M  V30 8695 C 872.305 3.28696 -1.12143 0
M  V30 8696 C 871.259 3.66041 -2.21806 0
M  V30 8697 C 870.585 5.01399 -1.85751 0
M  V30 8698 C 871.885 3.74677 -3.63888 0
M  V30 8699 H 873.579 1.94478 -2.27637 0
M  V30 8700 H 871.125 0.934271 -1.09578 0
M  V30 8701 H 873.078 4.07151 -1.08656 0
M  V30 8702 H 871.802 3.26287 -0.142974 0
M  V30 8703 H 870.461 2.89883 -2.24418 0
M  V30 8704 H 870.109 4.9551 -0.864817 0
M  V30 8705 H 869.809 5.27355 -2.59173 0
M  V30 8706 H 871.333 5.82274 -1.83819 0
M  V30 8707 H 872.747 4.43324 -3.63506 0
M  V30 8708 H 871.144 4.12118 -4.3621 0
M  V30 8709 H 872.214 2.75795 -3.9883 0
M  V30 8710 N 873.557 1.20646 1.01402 0
M  V30 8711 C 874.834 0.927176 1.72229 0
M  V30 8712 C 875.214 -0.563382 2.03443 0
M  V30 8713 O 874.562 -1.52576 1.70096 0
M  V30 8714 C 874.772 1.80285 2.98828 0
M  V30 8715 C 876.12 2.04624 3.72041 0
M  V30 8716 O 877.144 1.77559 3.0879 0
M  V30 8717 O 876.003 2.50347 4.85787 0
M  V30 8718 H 873.097 0.346891 0.75073 0
M  V30 8719 H 875.643 1.31532 1.07227 0
M  V30 8720 H 874.415 2.81204 2.72102 0
M  V30 8721 H 874.038 1.41495 3.71571 0
M  V30 8722 N 875.035 -1.20752 1.01276 0
M  V30 8723 C 875.965 -2.25658 0.600064 0
M  V30 8724 C 876.946 -1.65733 -0.38298 0
M  V30 8725 O 878.131 -1.92324 -0.269256 0
M  V30 8726 C 875.261 -3.47237 -0.0663197 0
M  V30 8727 C 874.215 -4.1973 0.83731 0
M  V30 8728 C 873.541 -5.34687 0.0369102 0
M  V30 8729 C 874.841 -4.76286 2.14357 0
M  V30 8730 H 876.535 -2.60432 1.477 0
M  V30 8731 H 874.081 -1.25187 0.711634 0
M  V30 8732 H 876.034 -4.19803 -0.366563 0
M  V30 8733 H 874.758 -3.11615 -0.977944 0
M  V30 8734 H 873.417 -3.49024 1.1215 0
M  V30 8735 H 873.065 -4.95309 -0.876244 0
M  V30 8736 H 872.765 -5.84119 0.63865 0
M  V30 8737 H 874.289 -6.10059 -0.256968 0
M  V30 8738 H 875.703 -5.40691 1.90595 0
M  V30 8739 H 874.1 -5.36139 2.69583 0
M  V30 8740 H 875.17 -3.9524 2.80916 0
M  V30 8741 N 876.513 -0.788492 -1.36457 0
M  V30 8742 C 877.476 -0.192209 -2.28393 0
M  V30 8743 C 878.476 0.609916 -1.48784 0
M  V30 8744 O 879.666 0.431046 -1.68783 0
M  V30 8745 C 876.798 0.734096 -3.32902 0
M  V30 8746 H 877.991 -1.00284 -2.82636 0
M  V30 8747 H 875.544 -0.557852 -1.46006 0
M  V30 8748 H 876.279 1.5691 -2.83813 0
M  V30 8749 H 876.064 0.160875 -3.9177 0
M  V30 8750 H 877.554 1.1462 -4.01562 0
M  V30 8751 N 877.991 1.48044 -0.54043 0
M  V30 8752 C 879.407 1.58354 -0.199006 0
M  V30 8753 C 879.607 1.54118 1.29807 0
M  V30 8754 O 878.663 1.43573 2.07709 0
M  V30 8755 C 879.976 2.89563 -0.810797 0
M  V30 8756 C 881.524 3.03113 -0.780486 0
M  V30 8757 C 881.999 4.36997 -1.37104 0
M  V30 8758 N 883.49 4.43591 -1.33347 0
M  V30 8759 C 884.225 5.45714 -1.76021 0
M  V30 8760 N 883.721 6.54738 -2.26473 0
M  V30 8761 N 885.514 5.36659 -1.67194 0
M  V30 8762 H 877.665 1.49041 -1.51329 0
M  V30 8763 H 879.928 0.708309 -0.630081 0
M  V30 8764 H 879.634 2.9835 -1.86227 0
M  V30 8765 H 879.508 3.76053 -0.293977 0
M  V30 8766 H 881.895 2.93932 0.262246 0
M  V30 8767 H 881.976 2.18207 -1.33489 0
M  V30 8768 H 881.62 4.46932 -2.41276 0
M  V30 8769 H 881.55 5.20607 -0.792229 0
M  V30 8770 H 884.041 3.65391 -0.964259 0
M  V30 8771 H 884.354 7.28814 -2.57002 0
M  V30 8772 H 882.699 6.55673 -2.30473 0
M  V30 8773 H 885.89 4.50382 -1.27569 0
M  V30 8774 H 886.063 6.16113 -2.00771 0
M  V30 8775 N 879.47 0.276058 1.55163 0
M  V30 8776 C 880.718 -0.339782 1.99223 0
M  V30 8777 C 881.039 -1.56307 1.16589 0
M  V30 8778 O 880.309 -1.94225 0.25564 0
M  V30 8779 H 878.889 -0.128534 0.735859 0
M  V30 8780 H 881.551 0.381612 1.91128 0
M  V30 8781 H 880.647 -0.629 3.05696 0
M  V30 8782 N 880.948 -1.576 0.00335426 0
M  V30 8783 C 882.225 -1.81945 -0.718015 0
M  V30 8784 C 882.605 -0.881788 -1.91801 0
M  V30 8785 O 881.953 0.0687118 -2.28397 0
M  V30 8786 C 882.163 -3.30521 -1.12058 0
M  V30 8787 C 883.511 -3.96345 -1.52303 0
M  V30 8788 O 884.535 -3.34864 -1.21428 0
M  V30 8789 O 883.394 -5.04655 -2.09728 0
M  V30 8790 H 880.488 -0.749328 -0.34991 0
M  V30 8791 H 883.034 -1.69675 0.0290654 0
M  V30 8792 H 881.806 -3.90399 -0.265378 0
M  V30 8793 H 881.429 -3.47802 -1.92665 0
M  V30 8794 N 882.426 0.269451 -1.5528 0
M  V30 8795 C 883.673 1.00058 -1.76053 0
M  V30 8796 C 884.001 1.86156 -0.563592 0
M  V30 8797 O 883.256 1.90366 0.453806 0
M  V30 8798 C 883.555 1.91 -3.02082 0
M  V30 8799 C 883.221 1.20623 -4.34466 0
M  V30 8800 C 881.883 1.01165 -4.70446 0
M  V30 8801 C 884.235 0.705695 -5.164 0
M  V30 8802 C 881.563 0.303865 -5.85913 0
M  V30 8803 C 883.915 0.0114838 -6.32599 0
M  V30 8804 C 882.579 -0.19478 -6.67216 0
M  V30 8805 H 881.849 0.366138 -0.644223 0
M  V30 8806 H 884.496 0.272563 -1.8955 0
M  V30 8807 H 882.801 2.70435 -2.835 0
M  V30 8808 H 884.498 2.47698 -3.15352 0
M  V30 8809 H 881.088 1.36781 -4.06188 0
M  V30 8810 H 885.272 0.84364 -4.89077 0
M  V30 8811 H 880.528 0.133368 -6.11255 0
M  V30 8812 H 884.702 -0.384111 -6.9534 0
M  V30 8813 H 882.329 -0.745201 -7.56539 0
M  V30 8814 N 883.904 1.48273 0.534124 0
M  V30 8815 C 884.867 1.6201 1.62127 0
M  V30 8816 C 885.867 0.493653 1.53035 0
M  V30 8817 O 887.057 0.759337 1.56779 0
M  V30 8818 C 884.189 1.5864 3.01739 0
M  V30 8819 H 885.382 2.58944 1.51288 0
M  V30 8820 H 882.935 1.36808 0.755861 0
M  V30 8821 H 883.67 0.631685 3.18088 0
M  V30 8822 H 883.455 2.40415 3.09747 0
M  V30 8823 H 884.945 1.71438 3.80787 0
M  V30 8824 N 885.382 -0.782676 1.36792 0
M  V30 8825 C 886.314 -1.9044 1.27536 0
M  V30 8826 C 887.327 -1.61647 0.193426 0
M  V30 8827 O 888.516 -1.72769 0.448692 0
M  V30 8828 C 885.616 -3.2541 0.946641 0
M  V30 8829 C 884.789 -3.81932 2.13183 0
M  V30 8830 C 883.848 -4.95355 1.7751 0
M  V30 8831 O 882.874 -5.11517 2.49678 0
M  V30 8832 N 884.076 -5.76108 0.712755 0
M  V30 8833 H 886.841 -1.98899 2.24186 0
M  V30 8834 H 884.402 -0.96127 1.30274 0
M  V30 8835 H 886.394 -3.98791 0.689043 0
M  V30 8836 H 884.964 -3.12524 0.0690591 0
M  V30 8837 H 884.184 -3.00459 2.55183 0
M  V30 8838 H 885.472 -4.16426 2.92347 0
M  V30 8839 H 884.87 -5.65586 0.113662 0
M  V30 8840 H 883.427 -6.49762 0.514995 0
M  V30 8841 N 886.86 -1.21182 -1.00761 0
M  V30 8842 C 887.823 -0.970339 -2.07646 0
M  V30 8843 C 888.823 0.0576345 -1.60697 0
M  V30 8844 O 890.013 -0.179369 -1.73274 0
M  V30 8845 C 887.145 -0.462703 -3.37745 0
M  V30 8846 H 888.338 -1.91856 -2.30502 0
M  V30 8847 H 885.891 -1.02844 -1.17698 0
M  V30 8848 H 886.626 0.490559 -3.20568 0
M  V30 8849 H 886.411 -1.20416 -3.73152 0
M  V30 8850 H 887.901 -0.313531 -4.16421 0
M  V30 8851 N 888.338 1.20213 -1.01915 0
M  V30 8852 C 889.301 2.21307 -0.596327 0
M  V30 8853 C 890.301 1.57274 0.334879 0
M  V30 8854 O 891.491 1.73764 0.12322 0
M  V30 8855 C 888.623 3.40657 0.128808 0
M  V30 8856 H 889.816 2.60228 -1.49068 0
M  V30 8857 H 887.369 1.33721 -0.809226 0
M  V30 8858 H 888.104 3.07241 1.03796 0
M  V30 8859 H 887.889 3.88361 -0.540183 0
M  V30 8860 H 889.379 4.15564 0.411892 0
M  V30 8861 N 889.816 0.795718 1.36037 0
M  V30 8862 C 890.748 0.156336 2.28666 0
M  V30 8863 C 891.761 -0.638075 1.49775 0
M  V30 8864 O 892.95 -0.472222 1.7214 0
M  V30 8865 C 890.05 -0.801417 3.29288 0
M  V30 8866 C 889.223 -0.0557118 4.37365 0
M  V30 8867 C 888.282 -0.930338 5.1791 0
M  V30 8868 O 887.308 -0.385266 5.67895 0
M  V30 8869 N 888.51 -2.25382 5.34961 0
M  V30 8870 H 891.275 0.952033 2.84177 0
M  V30 8871 H 888.836 0.650189 1.48271 0
M  V30 8872 H 890.828 -1.39051 3.80062 0
M  V30 8873 H 889.398 -1.49796 2.74372 0
M  V30 8874 H 888.618 0.714508 3.87671 0
M  V30 8875 H 889.906 0.458633 5.06729 0
M  V30 8876 H 889.304 -2.72073 4.95977 0
M  V30 8877 H 887.861 -2.79241 5.88955 0
M  V30 8878 N 891.294 -1.47756 0.548274 0
M  V30 8879 C 892.226 -2.27921 -0.24177 0
M  V30 8880 C 893.239 -1.36471 -0.887658 0
M  V30 8881 O 894.428 -1.6137 -0.763016 0
M  V30 8882 C 891.528 -3.10449 -1.35922 0
M  V30 8883 C 890.701 -4.298 -0.811808 0
M  V30 8884 C 889.76 -4.93994 -1.81264 0
M  V30 8885 O 888.786 -5.52657 -1.3623 0
M  V30 8886 N 889.988 -4.87882 -3.14566 0
M  V30 8887 H 892.753 -2.96365 0.445848 0
M  V30 8888 H 890.314 -1.57286 0.383769 0
M  V30 8889 H 892.306 -3.50261 -2.02729 0
M  V30 8890 H 890.876 -2.44306 -1.95021 0
M  V30 8891 H 890.096 -3.94186 0.0327929 0
M  V30 8892 H 891.384 -5.0702 -0.425272 0
M  V30 8893 H 890.782 -4.41405 -3.53805 0
M  V30 8894 H 889.339 -5.3174 -3.76956 0
M  V30 8895 N 892.772 -0.284283 -1.55015 0
M  V30 8896 C 893.702 0.592663 -2.25853 0
M  V30 8897 C 894.683 1.15151 -1.25197 0
M  V30 8898 O 895.868 1.18395 -1.53936 0
M  V30 8899 C 892.998 1.77254 -2.98661 0
M  V30 8900 C 891.952 1.34482 -4.06323 0
M  V30 8901 C 891.278 2.60853 -4.66754 0
M  V30 8902 C 892.578 0.488288 -5.20013 0
M  V30 8903 H 894.272 0.00187041 -2.994 0
M  V30 8904 H 891.818 -0.000540402 -1.44 0
M  V30 8905 H 893.771 2.39199 -3.46932 0
M  V30 8906 H 892.495 2.38931 -2.22664 0
M  V30 8907 H 891.154 0.748519 -3.58877 0
M  V30 8908 H 890.802 3.20808 -3.87416 0
M  V30 8909 H 890.502 2.32942 -5.39455 0
M  V30 8910 H 892.026 3.23631 -5.1778 0
M  V30 8911 H 893.44 1.01298 -5.6428 0
M  V30 8912 H 891.837 0.303669 -5.99331 0
M  V30 8913 H 892.907 -0.490727 -4.8241 0
M  V30 8914 N 894.251 1.57596 -0.0117121 0
M  V30 8915 C 895.497 1.92189 0.665966 0
M  V30 8916 C 895.852 0.887145 1.70726 0
M  V30 8917 O 895.145 -0.099151 1.91343 0
M  V30 8918 C 895.339 3.31296 1.34082 0
M  V30 8919 C 895.168 4.48205 0.366406 0
M  V30 8920 C 893.938 5.05293 -0.0274458 0
M  V30 8921 C 896.136 5.12951 -0.37219 0
M  V30 8922 N 894.118 6.0572 -0.998846 0
M  V30 8923 C 895.489 6.08318 -1.1979 0
M  V30 8924 C 897.544 4.95998 -0.434768 0
M  V30 8925 C 896.247 6.88555 -2.0805 0
M  V30 8926 C 898.273 5.7683 -1.30464 0
M  V30 8927 C 897.635 6.71798 -2.11816 0
M  V30 8928 H 893.734 0.751422 0.216537 0
M  V30 8929 H 896.318 1.94556 -0.0748079 0
M  V30 8930 H 894.489 3.2978 2.05182 0
M  V30 8931 H 896.221 3.53285 1.97413 0
M  V30 8932 H 892.976 4.72354 0.343382 0
M  V30 8933 H 893.4 6.60619 -1.48027 0
M  V30 8934 H 898.042 4.22417 0.179925 0
M  V30 8935 H 895.76 7.61453 -2.70581 0
M  V30 8936 H 899.346 5.6575 -1.35712 0
M  V30 8937 H 898.226 7.33256 -2.78037 0
M  V30 8938 N 895.729 -0.261212 1.5542 0
M  V30 8939 C 896.659 -1.32712 1.92119 0
M  V30 8940 C 897.64 -1.50934 0.784406 0
M  V30 8941 O 898.825 -1.63781 1.04352 0
M  V30 8942 C 895.955 -2.68453 2.20341 0
M  V30 8943 C 894.909 -2.64947 3.36136 0
M  V30 8944 C 894.235 -4.04349 3.49865 0
M  V30 8945 C 895.535 -2.23182 4.72215 0
M  V30 8946 H 897.229 -1.02245 2.81401 0
M  V30 8947 H 894.775 -0.490406 1.35392 0
M  V30 8948 H 896.728 -3.43144 2.44603 0
M  V30 8949 H 895.452 -3.00527 1.27871 0
M  V30 8950 H 894.111 -1.92714 3.11861 0
M  V30 8951 H 893.759 -4.33665 2.5484 0
M  V30 8952 H 893.459 -4.02895 4.27726 0
M  V30 8953 H 894.983 -4.80761 3.76432 0
M  V30 8954 H 896.397 -2.87599 4.95943 0
M  V30 8955 H 894.794 -2.32867 5.53076 0
M  V30 8956 H 895.864 -1.18327 4.70241 0
M  V30 8957 N 897.207 -1.48554 -0.526253 0
M  V30 8958 C 898.17 -1.62868 -1.61266 0
M  V30 8959 C 899.17 -0.501762 -1.52771 0
M  V30 8960 O 900.36 -0.76764 -1.56374 0
M  V30 8961 C 897.492 -1.60238 -3.00893 0
M  V30 8962 H 898.685 -2.59742 -1.49913 0
M  V30 8963 H 896.238 -1.37207 -0.748595 0
M  V30 8964 H 896.973 -0.648545 -3.17749 0
M  V30 8965 H 896.758 -2.42054 -3.08468 0
M  V30 8966 H 898.248 -1.73455 -3.79872 0
M  V30 8967 N 898.685 0.775411 -1.37205 0
M  V30 8968 C 899.615 1.90258 -1.35367 0
M  V30 8969 C 900.596 1.68634 -0.222864 0
M  V30 8970 O 901.781 1.89545 -0.422659 0
M  V30 8971 C 898.911 3.27488 -1.15623 0
M  V30 8972 C 897.865 3.63668 -2.25676 0
M  V30 8973 C 897.191 4.994 -1.91059 0
M  V30 8974 C 898.491 3.70797 -3.67841 0
M  V30 8975 H 900.185 1.92053 -2.29687 0
M  V30 8976 H 897.731 0.922597 -1.10563 0
M  V30 8977 H 899.684 4.05976 -1.12968 0
M  V30 8978 H 898.408 3.26117 -0.177573 0
M  V30 8979 H 897.067 2.87486 -2.2748 0
M  V30 8980 H 896.715 4.94565 -0.917324 0
M  V30 8981 H 896.415 5.24576 -2.64751 0
M  V30 8982 H 897.939 5.80291 -1.89985 0
M  V30 8983 H 899.353 4.39444 -3.68187 0
M  V30 8984 H 897.75 4.07468 -4.40556 0
M  V30 8985 H 898.82 2.71549 -4.01732 0
M  V30 8986 N 900.163 1.21714 1.00117 0
M  V30 8987 C 901.579 0.97532 1.26332 0
M  V30 8988 C 901.779 -0.336029 1.98678 0
M  V30 8989 O 900.835 -1.06073 2.29139 0
M  V30 8990 C 902.148 2.16848 2.0832 0
M  V30 8991 C 903.696 2.21115 2.21533 0
M  V30 8992 C 904.171 3.3996 3.06906 0
M  V30 8993 N 905.662 3.40071 3.14494 0
M  V30 8994 C 906.397 4.28678 3.80818 0
M  V30 8995 N 905.893 5.2749 4.49139 0
M  V30 8996 N 907.686 4.16476 3.77497 0
M  V30 8997 H 899.837 2.06039 0.515897 0
M  V30 8998 H 902.1 0.902423 0.290408 0
M  V30 8999 H 901.806 3.119 1.62515 0
M  V30 9000 H 901.68 2.16226 3.09073 0
M  V30 9001 H 904.067 1.26616 2.66557 0
M  V30 9002 H 904.148 2.2578 1.20238 0
M  V30 9003 H 903.792 4.34755 2.62585 0
M  V30 9004 H 903.722 3.32534 4.08324 0
M  V30 9005 H 906.213 2.68563 2.65861 0
M  V30 9006 H 906.526 5.91397 4.97463 0
M  V30 9007 H 904.871 5.31412 4.47914 0
M  V30 9008 H 908.062 3.38539 3.23278 0
M  V30 9009 H 908.235 4.85739 4.28908 0
M  V30 9010 N 901.641 -1.19671 1.02551 0
M  V30 9011 C 902.604 -2.20987 0.608055 0
M  V30 9012 C 903.604 -1.5745 -0.326534 0
M  V30 9013 O 904.794 -1.73827 -0.114003 0
M  V30 9014 C 901.926 -3.4072 -0.11074 0
M  V30 9015 H 903.119 -2.59434 1.50446 0
M  V30 9016 H 900.672 -1.3329 0.816307 0
M  V30 9017 H 901.407 -3.07787 -1.02165 0
M  V30 9018 H 901.192 -3.88069 0.560772 0
M  V30 9019 H 902.682 -4.15776 -0.389848 0
M  V30 9020 N 903.119 -0.802921 -1.35613 0
M  V30 9021 C 904.049 -0.225131 -2.32412 0
M  V30 9022 C 905.03 0.647383 -1.57299 0
M  V30 9023 O 906.215 0.578414 -1.85386 0
M  V30 9024 C 903.345 0.630085 -3.41537 0
M  V30 9025 C 902.299 -0.143635 -4.27759 0
M  V30 9026 C 901.625 0.833046 -5.28171 0
M  V30 9027 C 902.925 -1.34054 -5.04804 0
M  V30 9028 H 904.619 -1.03385 -2.80984 0
M  V30 9029 H 902.165 -0.498593 -1.35093 0
M  V30 9030 H 904.118 1.04433 -4.08254 0
M  V30 9031 H 902.842 1.47165 -2.91565 0
M  V30 9032 H 901.501 -0.539015 -3.62616 0
M  V30 9033 H 901.149 1.67001 -4.74468 0
M  V30 9034 H 900.849 0.319697 -5.8673 0
M  V30 9035 H 902.373 1.24558 -5.97761 0
M  V30 9036 H 903.787 -1.00136 -5.64487 0
M  V30 9037 H 902.184 -1.78812 -5.72841 0
M  V30 9038 H 903.254 -2.12906 -4.35659 0
M  V30 9039 N 904.597 1.47463 -0.556102 0
M  V30 9040 C 905.845 2.02075 -0.0315712 0
M  V30 9041 C 906.166 1.43292 1.32259 0
M  V30 9042 O 905.436 0.60771 1.86236 0
M  V30 9043 H 904.016 0.74695 -0.0086816 0
M  V30 9044 H 906.678 1.80879 -0.725859 0
M  V30 9045 H 905.774 3.12047 0.0573538 0
M  V30 9046 N 906.075 0.2925 1.54862 0
M  V30 9047 C 907.491 -0.0611461 1.59483 0
M  V30 9048 C 907.691 -1.53141 1.30958 0
M  V30 9049 O 906.747 -2.28291 1.07887 0
M  V30 9050 C 908.06 0.329143 2.98893 0
M  V30 9051 C 909.608 0.2772 3.1177 0
M  V30 9052 C 910.083 0.642185 4.53475 0
M  V30 9053 N 911.574 0.594396 4.5937 0
M  V30 9054 C 912.309 0.849385 5.67074 0
M  V30 9055 N 911.805 1.1699 6.82851 0
M  V30 9056 N 913.598 0.777016 5.56704 0
M  V30 9057 H 905.749 1.25079 1.71665 0
M  V30 9058 H 908.012 0.506516 0.80134 0
M  V30 9059 H 907.718 1.35233 3.24661 0
M  V30 9060 H 907.592 -0.321442 3.75828 0
M  V30 9061 H 909.979 -0.736725 2.85756 0
M  V30 9062 H 910.06 0.962289 2.3701 0
M  V30 9063 H 909.704 1.65388 4.80218 0
M  V30 9064 H 909.634 -0.0648831 5.2656 0
M  V30 9065 H 912.125 0.357256 3.76208 0
M  V30 9066 H 912.438 1.35067 7.60905 0
M  V30 9067 H 910.783 1.20785 6.84424 0
M  V30 9068 H 913.974 0.526333 4.65132 0
M  V30 9069 H 914.147 0.979113 6.4056 0
M  V30 9070 N 907.553 -1.57587 0.0200696 0
M  V30 9071 C 908.964 -1.79312 -0.520019 0
M  V30 9072 C 909.315 -0.929475 -1.72787 0
M  V30 9073 O 908.44 -0.137389 -2.15963 0
M  V30 9074 C 909.035 -3.25203 -0.950172 0
M  V30 9075 C 907.594 -3.47954 -1.43543 0
M  V30 9076 C 906.741 -2.74459 -0.395917 0
M  V30 9077 H 909.692 -1.56779 0.246153 0
M  V30 9078 H 909.713 -3.34418 -1.81508 0
M  V30 9079 H 909.225 -3.88035 -0.070883 0
M  V30 9080 H 907.326 -2.90363 -2.33495 0
M  V30 9081 H 907.439 -4.56661 -1.44905 0
M  V30 9082 H 905.803 -2.39669 -0.862022 0
M  V30 9083 H 906.586 -3.40001 0.47475 0
M  V30 9084 N 909.032 0.252966 -1.55557 0
M  V30 9085 C 909.962 1.31691 -1.9282 0
M  V30 9086 C 910.943 1.50516 -0.7924 0
M  V30 9087 O 912.128 1.63225 -1.05219 0
M  V30 9088 C 909.258 2.67281 -2.21762 0
M  V30 9089 C 908.212 2.6316 -3.37536 0
M  V30 9090 C 907.538 4.02488 -3.52005 0
M  V30 9091 C 908.838 2.20675 -4.73392 0
M  V30 9092 H 910.532 1.00751 -2.81939 0
M  V30 9093 H 908.078 0.483219 -1.3565 0
M  V30 9094 H 910.031 3.41842 -2.46419 0
M  V30 9095 H 908.755 2.99845 -1.29463 0
M  V30 9096 H 907.414 1.91057 -3.12878 0
M  V30 9097 H 907.062 4.32307 -2.57137 0
M  V30 9098 H 906.762 4.00621 -4.29857 0
M  V30 9099 H 908.286 4.78758 -3.78977 0
M  V30 9100 H 909.7 2.84965 -4.97461 0
M  V30 9101 H 908.097 2.29931 -5.54303 0
M  V30 9102 H 909.167 1.15831 -4.70862 0
M  V30 9103 N 910.51 1.48831 0.518367 0
M  V30 9104 C 911.921 1.50842 1.10016 0
M  V30 9105 C 912.272 0.284744 1.94123 0
M  V30 9106 O 911.397 -0.607088 2.0771 0
M  V30 9107 C 911.992 2.73329 2.00191 0
M  V30 9108 C 910.551 2.78175 2.53566 0
M  V30 9109 C 909.698 2.4452 1.30786 0
M  V30 9110 H 912.649 1.55779 0.303073 0
M  V30 9111 H 912.67 2.52506 2.84642 0
M  V30 9112 H 912.182 3.62374 1.3895 0
M  V30 9113 H 910.283 1.93368 3.18496 0
M  V30 9114 H 910.396 3.79905 2.91906 0
M  V30 9115 H 908.76 1.95924 1.62744 0
M  V30 9116 H 909.543 3.35819 0.712797 0
M  V30 9117 N 911.988 -0.768124 1.37614 0
M  V30 9118 C 913.216 -1.55726 1.36224 0
M  V30 9119 C 913.631 -1.8873 -0.0515357 0
M  V30 9120 O 912.988 -1.51718 -1.0143 0
M  V30 9121 C 913.039 -2.86533 2.20412 0
M  V30 9122 O 912.76 -2.54942 3.56281 0
M  V30 9123 C 914.261 -3.80745 2.27041 0
M  V30 9124 H 911.481 -0.482325 0.46648 0
M  V30 9125 H 914.025 -0.95176 1.81002 0
M  V30 9126 H 912.18 -3.43496 1.79134 0
M  V30 9127 H 912.594 -3.38732 4.00451 0
M  V30 9128 H 914.068 -4.69523 2.90263 0
M  V30 9129 H 914.545 -4.20138 1.27987 0
M  V30 9130 H 915.151 -3.2971 2.68647 0
M  V30 9131 N 913.466 -1.22244 -0.994698 0
M  V30 9132 C 914.691 -1.07299 -1.77487 0
M  V30 9133 C 915.116 0.372302 -1.84379 0
M  V30 9134 O 914.474 1.2689 -1.29494 0
M  V30 9135 C 914.522 -1.68675 -3.18718 0
M  V30 9136 O 913.626 -0.939202 -4.01563 0
M  V30 9137 H 912.967 -0.376979 -0.546611 0
M  V30 9138 H 915.497 -1.62003 -1.24965 0
M  V30 9139 H 915.507 -1.73324 -3.69354 0
M  V30 9140 H 914.182 -2.73849 -3.13017 0
M  V30 9141 H 912.759 -0.968583 -3.60101 0
M  V30 9142 N 914.944 1.19125 -1.03184 0
M  V30 9143 C 915.894 2.20348 -0.585731 0
M  V30 9144 C 916.878 1.56656 0.367109 0
M  V30 9145 O 918.07 1.76003 0.187598 0
M  V30 9146 C 915.199 3.43249 0.0590006 0
M  V30 9147 C 914.285 4.1408 -0.916457 0
M  V30 9148 N 914.676 4.61051 -2.08005 0
M  V30 9149 C 912.974 4.39809 -0.74054 0
M  V30 9150 C 913.675 5.15477 -2.69552 0
M  V30 9151 N 912.651 5.06456 -1.97493 0
M  V30 9152 H 916.453 2.54346 -1.47259 0
M  V30 9153 H 913.967 1.35232 -0.899225 0
M  V30 9154 H 915.964 4.15013 0.396236 0
M  V30 9155 H 914.624 3.1075 0.941507 0
M  V30 9156 H 915.635 4.55782 -2.45934 0
M  V30 9157 H 912.312 4.17397 0.0926238 0
M  V30 9158 H 913.702 5.62088 -3.68112 0
M  V30 9159 N 916.422 0.810101 1.35185 0
M  V30 9160 C 917.352 0.237453 2.32289 0
M  V30 9161 C 918.333 -0.639032 1.5764 0
M  V30 9162 O 919.518 -0.568575 1.8569 0
M  V30 9163 C 916.648 -0.611964 3.41866 0
M  V30 9164 C 915.602 0.166318 4.27677 0
M  V30 9165 C 914.928 -0.805024 5.28605 0
M  V30 9166 C 916.228 1.36729 5.04086 0
M  V30 9167 H 917.922 1.04874 2.80432 0
M  V30 9168 H 915.468 0.505751 1.34826 0
M  V30 9169 H 917.421 -1.02267 4.08802 0
M  V30 9170 H 916.145 -1.45617 2.92341 0
M  V30 9171 H 914.804 0.558238 3.62325 0
M  V30 9172 H 914.452 -1.64483 4.75347 0
M  V30 9173 H 914.152 -0.288577 5.86891 0
M  V30 9174 H 915.676 -1.21386 5.98413 0
M  V30 9175 H 917.09 1.03128 5.63948 0
M  V30 9176 H 915.487 1.81848 5.71884 0
M  V30 9177 H 916.557 2.15214 4.34524 0
M  V30 9178 N 917.9 -1.47166 0.563914 0
M  V30 9179 C 919.177 -1.95586 -0.0236172 0
M  V30 9180 C 919.557 -1.50655 -1.47872 0
M  V30 9181 O 918.905 -0.748479 -2.15894 0
M  V30 9182 C 919.115 -3.48762 0.128841 0
M  V30 9183 C 920.463 -4.24598 -0.0130544 0
M  V30 9184 O 921.487 -3.56155 0.0567242 0
M  V30 9185 O 920.346 -5.46253 -0.164332 0
M  V30 9186 H 917.44 -0.824793 -0.0603789 0
M  V30 9187 H 919.986 -1.57536 0.63091 0
M  V30 9188 H 918.758 -3.74291 1.14113 0
M  V30 9189 H 918.381 -3.93594 -0.56299 0
M  V30 9190 N 919.378 -0.300708 -1.54705 0
M  V30 9191 C 920.308 0.568675 -2.26469 0
M  V30 9192 C 921.289 1.13817 -1.26411 0
M  V30 9193 O 922.474 1.16756 -1.55183 0
M  V30 9194 C 919.604 1.74077 -3.00524 0
M  V30 9195 C 918.558 1.30165 -4.07727 0
M  V30 9196 C 917.884 2.55888 -4.69495 0
M  V30 9197 C 919.184 0.433106 -5.20501 0
M  V30 9198 H 920.878 -0.0298851 -2.99385 0
M  V30 9199 H 918.424 -0.0158135 -1.43991 0
M  V30 9200 H 920.377 2.35506 -3.49449 0
M  V30 9201 H 919.101 2.36556 -2.25186 0
M  V30 9202 H 917.76 0.710414 -3.59651 0
M  V30 9203 H 917.408 3.16681 -3.90797 0
M  V30 9204 H 917.108 2.27207 -5.41895 0
M  V30 9205 H 918.632 3.18121 -5.21183 0
M  V30 9206 H 920.046 0.95307 -5.65322 0
M  V30 9207 H 918.443 0.240085 -5.9962 0
M  V30 9208 H 919.513 -0.541866 -4.81863 0
M  V30 9209 N 920.856 1.57574 -0.0284266 0
M  V30 9210 C 921.819 2.09096 0.938691 0
M  V30 9211 C 922.819 1.00588 1.25454 0
M  V30 9212 O 924.009 1.2675 1.19499 0
M  V30 9213 C 921.141 2.55624 2.25542 0
M  V30 9214 H 922.334 2.95829 0.49248 0
M  V30 9215 H 919.887 1.5475 0.219594 0
M  V30 9216 H 920.622 1.72218 2.74793 0
M  V30 9217 H 920.407 3.34896 2.03929 0
M  V30 9218 H 921.897 2.95712 2.94863 0
M  V30 9219 N 922.334 -0.244713 1.55689 0
M  V30 9220 C 923.574 -0.979776 1.79387 0
M  V30 9221 C 923.938 -1.8244 0.598298 0
M  V30 9222 O 925.139 -2.59141 0.7141 0
M  V30 9223 C 923.41 -1.81573 3.07841 0
M  V30 9224 S 924.969 -2.60959 3.52769 0
M  V30 9225 H 921.787 -0.329526 0.630027 0
M  V30 9226 H 924.389 -0.247435 1.93928 0
M  V30 9227 H 923.093 -1.18497 3.92921 0
M  V30 9228 H 922.624 -2.59078 2.96044 0
M  V30 9229 H 924.639 -3.83987 3.14275 0
M  V30 9230 N 923.813 -1.49104 -0.510467 0
M  V30 9231 C 925.038 -1.62068 -1.29417 0
M  V30 9232 C 925.463 -0.288432 -1.85875 0
M  V30 9233 O 924.821 0.742667 -1.65391 0
M  V30 9234 C 924.869 -2.68506 -2.40701 0
M  V30 9235 O 923.973 -2.27021 -3.4429 0
M  V30 9236 H 923.314 -0.542778 -0.382476 0
M  V30 9237 H 925.844 -1.95228 -0.612154 0
M  V30 9238 H 925.854 -2.90383 -2.86604 0
M  V30 9239 H 924.529 -3.65216 -1.98973 0
M  V30 9240 H 923.106 -2.15436 -3.04371 0
M  V30 9241 N 925.291 0.760815 -1.38019 0
M  V30 9242 C 926.221 1.88811 -1.37377 0
M  V30 9243 C 927.202 1.68388 -0.240737 0
M  V30 9244 O 928.387 1.89086 -0.442739 0
M  V30 9245 C 925.517 3.26244 -1.1909 0
M  V30 9246 C 924.471 3.61254 -2.29521 0
M  V30 9247 C 923.797 4.97346 -1.96345 0
M  V30 9248 C 925.097 3.66874 -3.71753 0
M  V30 9249 H 926.791 1.89606 -2.31711 0
M  V30 9250 H 924.337 0.910818 -1.11535 0
M  V30 9251 H 926.29 4.04755 -1.17267 0
M  V30 9252 H 925.014 3.2591 -0.212152 0
M  V30 9253 H 923.673 2.85057 -2.30517 0
M  V30 9254 H 923.321 4.93564 -0.969728 0
M  V30 9255 H 923.021 5.21739 -2.703 0
M  V30 9256 H 924.545 5.78244 -1.96129 0
M  V30 9257 H 925.959 4.35514 -3.72828 0
M  V30 9258 H 924.356 4.02772 -4.44853 0
M  V30 9259 H 925.426 2.67273 -4.0459 0
M  V30 9260 N 926.769 1.22769 0.988202 0
M  V30 9261 C 927.699 1.02627 2.09738 0
M  V30 9262 C 928.68 -0.0543211 1.70013 0
M  V30 9263 O 929.865 0.108811 1.93895 0
M  V30 9264 C 926.995 0.608302 3.41931 0
M  V30 9265 C 925.949 1.63536 3.95525 0
M  V30 9266 C 925.275 1.07308 5.23822 0
M  V30 9267 C 926.575 3.02649 4.25677 0
M  V30 9268 H 928.269 1.954 2.26847 0
M  V30 9269 H 925.815 0.940888 1.09011 0
M  V30 9270 H 927.768 0.454478 4.18942 0
M  V30 9271 H 926.492 -0.355095 3.24664 0
M  V30 9272 H 925.151 1.77704 3.20651 0
M  V30 9273 H 924.799 0.100894 5.02899 0
M  V30 9274 H 924.499 1.75925 5.60646 0
M  V30 9275 H 926.023 0.930938 6.03462 0
M  V30 9276 H 927.437 2.91828 4.93467 0
M  V30 9277 H 925.834 3.68434 4.73684 0
M  V30 9278 H 926.904 3.52228 3.33262 0
M  V30 9279 N 928.247 -1.18576 1.03814 0
M  V30 9280 C 929.493 -1.89032 0.750892 0
M  V30 9281 C 929.848 -1.78683 -0.713444 0
M  V30 9282 O 929.141 -1.1746 -1.51373 0
M  V30 9283 C 929.335 -3.38448 1.14837 0
M  V30 9284 C 929.164 -3.63339 2.64981 0
M  V30 9285 C 927.934 -3.80847 3.3209 0
M  V30 9286 C 930.132 -3.64131 3.63198 0
M  V30 9287 N 928.114 -3.93453 4.71241 0
M  V30 9288 C 929.485 -3.82421 4.88011 0
M  V30 9289 C 931.54 -3.47206 3.56865 0
M  V30 9290 C 930.243 -3.85538 6.0725 0
M  V30 9291 C 932.269 -3.51605 4.75529 0
M  V30 9292 C 931.631 -3.70388 5.99159 0
M  V30 9293 H 927.73 -0.710447 0.326786 0
M  V30 9294 H 930.314 -1.42444 1.32732 0
M  V30 9295 H 928.485 -3.83737 0.600058 0
M  V30 9296 H 930.217 -3.96462 0.812406 0
M  V30 9297 H 926.972 -3.80122 2.82496 0
M  V30 9298 H 927.396 -4.03584 5.43552 0
M  V30 9299 H 932.038 -3.31632 2.6226 0
M  V30 9300 H 929.756 -3.99901 7.02214 0
M  V30 9301 H 933.342 -3.39787 4.72267 0
M  V30 9302 H 932.222 -3.73679 6.89445 0
M  V30 9303 N 929.725 -0.817259 -1.34754 0
M  V30 9304 C 930.673 -0.223352 -2.31525 0
M  V30 9305 C 931.667 0.632785 -1.57137 0
M  V30 9306 O 932.873 0.524757 -1.72181 0
M  V30 9307 H 929.248 -0.0534765 -0.750096 0
M  V30 9308 H 931.219 -1.05446 -2.79148 0
M  V30 9309 C 929.968 0.604784 -3.424 0
M  V30 9310 H 929.291 -0.0446664 -3.99775 0
M  V30 9311 H 930.731 0.986543 -4.12363 0
M  V30 9312 C 929.19 1.77478 -2.86362 0
M  V30 9313 O 929.72 2.87273 -2.8078 0
M  V30 9314 N 927.926 1.58971 -2.43263 0
M  V30 9315 H 927.473 0.696598 -2.48003 0
M  V30 9316 H 927.431 2.37408 -2.06119 0
M  V30 9317 N 931.203 1.46865 -0.571711 0
M  V30 9318 C 932.133 2.3298 0.155795 0
M  V30 9319 C 933.114 1.44678 0.894553 0
M  V30 9320 O 934.299 1.73513 0.872176 0
M  V30 9321 C 931.429 3.26745 1.17708 0
M  V30 9322 C 930.383 4.24401 0.553863 0
M  V30 9323 C 929.709 5.07595 1.68083 0
M  V30 9324 C 931.009 5.19884 -0.501827 0
M  V30 9325 H 932.703 2.94056 -0.563176 0
M  V30 9326 H 930.249 1.41402 -0.27228 0
M  V30 9327 H 932.202 3.85838 1.6943 0
M  V30 9328 H 930.926 2.63753 1.92618 0
M  V30 9329 H 929.585 3.66554 0.057815 0
M  V30 9330 H 929.233 4.40996 2.41933 0
M  V30 9331 H 928.933 5.73722 1.26953 0
M  V30 9332 H 930.457 5.6955 2.20103 0
M  V30 9333 H 931.871 5.73257 -0.0701057 0
M  V30 9334 H 930.268 5.94293 -0.832815 0
M  V30 9335 H 931.338 4.64482 -1.39229 0
M  V30 9336 N 932.681 0.308908 1.54543 0
M  V30 9337 C 933.93 -0.298854 1.99474 0
M  V30 9338 C 934.243 -1.54393 1.20093 0
M  V30 9339 O 935.449 -2.22677 1.55329 0
M  V30 9340 C 933.905 -0.58303 3.55146 0
M  V30 9341 C 933.513 0.644157 4.43345 0
M  V30 9342 C 935.257 -1.15155 4.08582 0
M  V30 9343 C 933.164 0.332694 5.90463 0
M  V30 9344 H 932.094 -0.115445 0.74511 0
M  V30 9345 H 934.745 0.418848 1.78656 0
M  V30 9346 H 933.127 -1.36053 3.71894 0
M  V30 9347 H 934.301 1.42012 4.38371 0
M  V30 9348 H 932.616 1.13186 4.00722 0
M  V30 9349 H 935.213 -1.39896 5.16075 0
M  V30 9350 H 935.556 -2.09632 3.59667 0
M  V30 9351 H 936.089 -0.435571 3.95408 0
M  V30 9352 H 932.828 1.24624 6.43544 0
M  V30 9353 H 932.348 -0.405844 5.98425 0
M  V30 9354 H 934.027 -0.0628545 6.46969 0
M  V30 9355 N 934.159 -1.57557 0.0367827 0
M  V30 9356 C 935.575 -1.56366 -0.31967 0
M  V30 9357 C 935.775 -1.04313 -1.72398 0
M  V30 9358 O 934.831 -0.693278 -2.42796 0
M  V30 9359 C 936.144 -3.00267 -0.161274 0
M  V30 9360 C 937.692 -3.12128 -0.233464 0
M  V30 9361 C 938.167 -4.57882 -0.103767 0
M  V30 9362 N 939.658 -4.62922 -0.160506 0
M  V30 9363 C 940.393 -5.73338 -0.0840493 0
M  V30 9364 N 939.889 -6.92786 0.043933 0
M  V30 9365 N 941.682 -5.61929 -0.138592 0
M  V30 9366 H 933.833 -1.8972 0.954996 0
M  V30 9367 H 936.096 -0.87304 0.369467 0
M  V30 9368 H 935.802 -3.42331 0.80639 0
M  V30 9369 H 935.676 -3.65599 -0.928304 0
M  V30 9370 H 938.063 -2.69972 -1.19159 0
M  V30 9371 H 938.144 -2.49503 0.564075 0
M  V30 9372 H 937.788 -5.0072 0.850973 0
M  V30 9373 H 937.718 -5.18496 -0.920268 0
M  V30 9374 H 940.209 -3.7701 -0.259257 0
M  V30 9375 H 940.522 -7.72741 0.095372 0
M  V30 9376 H 938.867 -6.94955 0.0788211 0
M  V30 9377 H 942.058 -4.67499 -0.237031 0
M  V30 9378 H 942.231 -6.47956 -0.075546 0
M  V30 9379 N 935.637 0.236453 -1.55816 0
M  V30 9380 C 936.587 1.29603 -1.87582 0
M  V30 9381 C 937.571 1.42999 -0.737566 0
M  V30 9382 O 938.763 1.46065 -0.999701 0
M  V30 9383 C 935.892 2.64945 -2.1831 0
M  V30 9384 C 934.978 2.55511 -3.38489 0
M  V30 9385 N 935.369 2.15716 -4.57494 0
M  V30 9386 C 933.667 2.86502 -3.41808 0
M  V30 9387 C 934.368 2.17169 -5.39641 0
M  V30 9388 N 933.344 2.5708 -4.78969 0
M  V30 9389 H 937.146 0.979016 -2.77115 0
M  V30 9390 H 934.66 0.445058 -1.56183 0
M  V30 9391 H 936.657 3.41426 -2.39236 0
M  V30 9392 H 935.317 2.97504 -1.30082 0
M  V30 9393 H 936.328 1.87089 -4.82927 0
M  V30 9394 H 933.005 3.23533 -2.6388 0
M  V30 9395 H 934.395 1.88653 -6.44872 0
M  V30 9396 N 937.115 1.49373 0.502552 0
M  V30 9397 C 938.045 1.68839 1.61294 0
M  V30 9398 C 939.026 0.537096 1.61398 0
M  V30 9399 O 940.211 0.772764 1.78163 0
M  V30 9400 C 937.341 1.75347 2.99784 0
M  V30 9401 C 936.295 2.90251 3.14545 0
M  V30 9402 C 935.621 2.8187 4.54371 0
M  V30 9403 C 936.921 4.31207 2.94717 0
M  V30 9404 H 938.615 2.61803 1.45257 0
M  V30 9405 H 936.161 1.25987 0.697371 0
M  V30 9406 H 938.114 1.87552 3.77362 0
M  V30 9407 H 936.838 0.789814 3.16906 0
M  V30 9408 H 935.497 2.77646 2.39392 0
M  V30 9409 H 935.145 1.83416 4.68367 0
M  V30 9410 H 934.845 3.5899 4.65188 0
M  V30 9411 H 936.369 2.96081 5.34012 0
M  V30 9412 H 937.783 4.44501 3.62065 0
M  V30 9413 H 936.18 5.09536 3.17007 0
M  V30 9414 H 937.25 4.45759 1.90857 0
M  V30 9415 N 938.594 -0.753485 1.38421 0
M  V30 9416 C 939.524 -1.8808 1.38377 0
M  V30 9417 C 940.505 -1.68258 0.249664 0
M  V30 9418 O 941.69 -1.88848 0.45276 0
M  V30 9419 C 938.82 -3.25608 1.20818 0
M  V30 9420 C 937.774 -3.60032 2.31433 0
M  V30 9421 C 937.1 -4.96297 1.9898 0
M  V30 9422 C 938.4 -3.64898 3.73694 0
M  V30 9423 H 940.094 -1.88375 2.32713 0
M  V30 9424 H 937.64 -0.90489 1.12017 0
M  V30 9425 H 939.593 -4.04127 1.19412 0
M  V30 9426 H 938.317 -3.25793 0.229433 0
M  V30 9427 H 936.976 -2.83831 2.32025 0
M  V30 9428 H 936.624 -4.93043 0.995889 0
M  V30 9429 H 936.324 -5.20298 2.73063 0
M  V30 9430 H 937.848 -5.77196 1.99193 0
M  V30 9431 H 939.262 -4.33531 3.75132 0
M  V30 9432 H 937.659 -4.00407 4.46983 0
M  V30 9433 H 938.729 -2.65124 4.06002 0
M  V30 9434 N 940.072 -1.23292 -0.981677 0
M  V30 9435 C 941.004 -0.970782 -2.07626 0
M  V30 9436 C 942.017 0.0547506 -1.62708 0
M  V30 9437 O 943.206 -0.180623 -1.77584 0
M  V30 9438 C 940.306 -0.44055 -3.36024 0
M  V30 9439 C 939.479 -1.52595 -4.09919 0
M  V30 9440 C 938.538 -1.00082 -5.16595 0
M  V30 9441 O 937.564 -1.68951 -5.43548 0
M  V30 9442 N 938.766 0.172017 -5.80245 0
M  V30 9443 H 941.531 -1.91316 -2.30691 0
M  V30 9444 H 939.092 -1.14133 -1.14828 0
M  V30 9445 H 941.084 -0.0743111 -4.04632 0
M  V30 9446 H 939.654 0.407211 -3.09936 0
M  V30 9447 H 938.874 -2.06501 -3.35784 0
M  V30 9448 H 940.162 -2.2559 -4.56055 0
M  V30 9449 H 939.56 0.748129 -5.60731 0
M  V30 9450 H 938.117 0.479532 -6.50034 0
M  V30 9451 N 941.55 1.18024 -1.04442 0
M  V30 9452 C 942.966 1.40107 -0.76435 0
M  V30 9453 C 943.166 1.90914 0.644516 0
M  V30 9454 O 942.222 2.0959 1.40813 0
M  V30 9455 C 943.535 2.39851 -1.81361 0
M  V30 9456 C 945.083 2.53571 -1.83496 0
M  V30 9457 C 945.558 3.56583 -2.87424 0
M  V30 9458 N 947.049 3.64094 -2.86339 0
M  V30 9459 C 947.784 4.43537 -3.63405 0
M  V30 9460 N 947.28 5.26557 -4.50233 0
M  V30 9461 N 949.073 4.38336 -3.51877 0
M  V30 9462 H 941.224 0.833726 -1.95353 0
M  V30 9463 H 943.487 0.42881 -0.845474 0
M  V30 9464 H 943.193 2.09576 -2.82438 0
M  V30 9465 H 943.067 3.39251 -1.6489 0
M  V30 9466 H 945.454 2.83161 -0.830883 0
M  V30 9467 H 945.535 1.54272 -2.04044 0
M  V30 9468 H 945.179 3.27733 -3.88012 0
M  V30 9469 H 945.109 4.55569 -2.6413 0
M  V30 9470 H 947.6 3.04814 -2.23376 0
M  V30 9471 H 947.913 5.84336 -5.05738 0
M  V30 9472 H 946.258 5.25964 -4.54298 0
M  V30 9473 H 949.449 3.72528 -2.83444 0
M  V30 9474 H 949.622 5.00007 -4.12186 0
M  V30 9475 N 943.028 0.824394 1.34319 0
M  V30 9476 C 943.958 0.262077 2.32025 0
M  V30 9477 C 944.939 -0.622277 1.58309 0
M  V30 9478 O 946.124 -0.548848 1.86283 0
M  V30 9479 C 943.254 -0.57567 3.42496 0
M  V30 9480 C 942.208 0.21167 4.27476 0
M  V30 9481 C 941.534 -0.748913 5.29429 0
M  V30 9482 C 942.834 1.42068 5.02607 0
M  V30 9483 H 944.528 1.07842 2.79304 0
M  V30 9484 H 942.074 0.520022 1.34282 0
M  V30 9485 H 944.027 -0.979251 4.09864 0
M  V30 9486 H 942.751 -1.42508 2.93869 0
M  V30 9487 H 941.41 0.596636 3.61712 0
M  V30 9488 H 941.058 -1.59432 4.77064 0
M  V30 9489 H 940.758 -0.226313 5.87164 0
M  V30 9490 H 942.282 -1.15032 5.99667 0
M  V30 9491 H 943.696 1.09103 5.62823 0
M  V30 9492 H 942.093 1.87903 5.69923 0
M  V30 9493 H 943.163 2.1981 4.32217 0
M  V30 9494 N 944.506 -1.46559 0.579492 0
M  V30 9495 C 945.752 -2.03272 0.0722569 0
M  V30 9496 C 946.107 -1.44334 -1.27222 0
M  V30 9497 O 945.4 -0.597848 -1.82034 0
M  V30 9498 C 945.594 -3.57357 -0.0552803 0
M  V30 9499 C 945.423 -4.31238 1.27529 0
M  V30 9500 C 944.193 -4.70272 1.84857 0
M  V30 9501 C 946.391 -4.64978 2.19773 0
M  V30 9502 N 944.373 -5.2889 3.11687 0
M  V30 9503 C 945.744 -5.24132 3.31189 0
M  V30 9504 C 947.799 -4.46908 2.19493 0
M  V30 9505 C 946.502 -5.67123 4.42452 0
M  V30 9506 C 948.528 -4.90914 3.29784 0
M  V30 9507 C 947.89 -5.50136 4.3992 0
M  V30 9508 H 943.989 -0.778937 0.0691416 0
M  V30 9509 H 946.573 -1.78754 0.771683 0
M  V30 9510 H 944.744 -3.81595 -0.723868 0
M  V30 9511 H 946.476 -4.00714 -0.566606 0
M  V30 9512 H 943.231 -4.5293 1.38388 0
M  V30 9513 H 943.655 -5.62723 3.76393 0
M  V30 9514 H 948.297 -4.00459 1.35617 0
M  V30 9515 H 946.015 -6.12552 5.27073 0
M  V30 9516 H 949.601 -4.78687 3.30682 0
M  V30 9517 H 948.481 -5.83564 5.23854 0
M  V30 9518 N 945.984 -0.3171 -1.54377 0
M  V30 9519 C 947.23 0.287836 -2.00747 0
M  V30 9520 C 947.563 1.52292 -1.20502 0
M  V30 9521 O 946.838 1.92391 -0.285626 0
M  V30 9522 C 947.121 0.628423 -3.54574 0
M  V30 9523 C 946.974 -0.616922 -4.45549 0
M  V30 9524 C 948.293 1.44862 -4.15575 0
M  V30 9525 H 945.412 0.103144 -0.729747 0
M  V30 9526 H 948.054 -0.432396 -1.85014 0
M  V30 9527 H 946.204 1.24203 -3.68111 0
M  V30 9528 H 947.876 -1.25526 -4.43893 0
M  V30 9529 H 946.119 -1.24706 -4.15489 0
M  V30 9530 H 946.79 -0.334243 -5.50987 0
M  V30 9531 H 949.266 0.930015 -4.05574 0
M  V30 9532 H 948.142 1.6557 -5.23333 0
M  V30 9533 H 948.403 2.44279 -3.68484 0
M  V30 9534 N 947.462 1.57535 -0.0451378 0
M  V30 9535 C 948.71 1.92071 0.628743 0
M  V30 9536 C 949.031 0.923635 1.71738 0
M  V30 9537 O 948.301 -0.0324376 1.95873 0
M  V30 9538 H 946.881 0.708995 0.235233 0
M  V30 9539 H 949.543 1.9466 -0.0967177 0
M  V30 9540 H 948.639 2.9314 1.07123 0
M  V30 9541 N 948.94 -0.228186 1.55939 0
M  V30 9542 C 950.356 -0.577583 1.48782 0
M  V30 9543 C 950.556 -1.87461 0.738972 0
M  V30 9544 O 949.612 -2.50988 0.275929 0
M  V30 9545 C 950.925 -0.662961 2.93301 0
M  V30 9546 C 952.473 -0.754035 3.03782 0
M  V30 9547 C 952.948 -0.870815 4.49645 0
M  V30 9548 N 954.439 -0.935208 4.53661 0
M  V30 9549 C 955.174 -1.04516 5.63794 0
M  V30 9550 N 954.67 -1.11948 6.83696 0
M  V30 9551 N 956.463 -1.07978 5.51631 0
M  V30 9552 H 948.614 0.623018 2.03057 0
M  V30 9553 H 950.877 0.217692 0.922667 0
M  V30 9554 H 950.583 0.220375 3.51009 0
M  V30 9555 H 950.457 -1.52876 3.44831 0
M  V30 9556 H 952.844 -1.62782 2.46143 0
M  V30 9557 H 952.925 0.137301 2.55431 0
M  V30 9558 H 952.569 -0.0015186 5.079 0
M  V30 9559 H 952.499 -1.77747 4.95695 0
M  V30 9560 H 954.99 -0.88836 3.6731 0
M  V30 9561 H 955.303 -1.20297 7.6338 0
M  V30 9562 H 953.648 -1.08873 6.8642 0
M  V30 9563 H 956.839 -1.01833 4.56889 0
M  V30 9564 H 957.012 -1.16202 6.37496 0
M  V30 9565 N 950.418 -1.49637 -0.494624 0
M  V30 9566 C 951.664 -1.60654 -1.24747 0
M  V30 9567 C 952.019 -0.292376 -1.90166 0
M  V30 9568 O 951.312 0.707918 -1.78042 0
M  V30 9569 C 951.506 -2.70749 -2.33302 0
M  V30 9570 C 951.335 -4.12744 -1.7853 0
M  V30 9571 C 950.105 -4.79451 -1.59546 0
M  V30 9572 C 952.303 -4.97767 -1.29353 0
M  V30 9573 N 950.285 -6.05738 -0.997702 0
M  V30 9574 C 951.656 -6.14587 -0.817517 0
M  V30 9575 C 953.711 -4.83719 -1.17986 0
M  V30 9576 C 952.414 -7.18903 -0.23907 0
M  V30 9577 C 954.44 -5.8819 -0.615375 0
M  V30 9578 C 953.802 -7.04241 -0.149622 0
M  V30 9579 H 949.901 -0.642198 -0.446213 0
M  V30 9580 H 952.485 -1.86668 -0.553469 0
M  V30 9581 H 950.656 -2.46497 -3.00156 0
M  V30 9582 H 952.388 -2.71253 -3.0034 0
M  V30 9583 H 949.143 -4.36354 -1.84098 0
M  V30 9584 H 949.567 -6.73183 -0.717911 0
M  V30 9585 H 954.209 -3.94304 -1.52592 0
M  V30 9586 H 951.927 -8.08012 0.11925 0
M  V30 9587 H 955.513 -5.7938 -0.530114 0
M  V30 9588 H 954.393 -7.83699 0.280349 0
M  V30 9589 N 951.896 0.746133 -1.38819 0
M  V30 9590 C 952.826 1.87344 -1.39372 0
M  V30 9591 C 953.807 1.68123 -0.258583 0
M  V30 9592 O 954.992 1.88606 -0.462769 0
M  V30 9593 C 952.122 3.24962 -1.22543 0
M  V30 9594 C 951.076 3.58799 -2.33339 0
M  V30 9595 C 950.402 4.95235 -2.01609 0
M  V30 9596 C 951.702 3.62911 -3.75624 0
M  V30 9597 H 953.396 1.87138 -2.33709 0
M  V30 9598 H 950.942 0.898937 -1.12495 0
M  V30 9599 H 952.895 4.03488 -1.21554 0
M  V30 9600 H 951.619 3.25667 -0.246707 0
M  V30 9601 H 950.278 2.82596 -2.33527 0
M  V30 9602 H 949.926 4.92508 -1.02202 0
M  V30 9603 H 949.626 5.18843 -2.75819 0
M  V30 9604 H 951.15 5.76131 -2.02251 0
M  V30 9605 H 952.564 4.31535 -3.77426 0
M  V30 9606 H 950.961 3.98031 -4.491 0
M  V30 9607 H 952.031 2.62967 -4.07402 0
M  V30 9608 N 953.375 1.23811 0.975125 0
M  V30 9609 C 954.338 1.02505 2.05001 0
M  V30 9610 C 955.338 -0.0150084 1.60793 0
M  V30 9611 O 956.528 0.225246 1.72738 0
M  V30 9612 C 953.66 0.552087 3.364 0
M  V30 9613 H 954.853 1.979 2.25335 0
M  V30 9614 H 952.406 1.05929 1.1493 0
M  V30 9615 H 953.141 -0.405394 3.21756 0
M  V30 9616 H 952.926 1.30267 3.69828 0
M  V30 9617 H 954.416 0.423828 4.15444 0
M  V30 9618 N 954.853 -1.17469 1.05066 0
M  V30 9619 C 956.101 -1.87327 0.758485 0
M  V30 9620 C 956.422 -1.81358 -0.716549 0
M  V30 9621 O 955.692 -1.23868 -1.51768 0
M  V30 9622 H 954.272 -0.693512 0.277579 0
M  V30 9623 H 956.934 -1.4251 1.32954 0
M  V30 9624 H 956.03 -2.93101 1.0723 0
M  V30 9625 N 956.331 -0.831506 -1.3388 0
M  V30 9626 C 957.747 -0.518349 -1.50948 0
M  V30 9627 C 957.947 0.955807 -1.77388 0
M  V30 9628 O 957.003 1.73993 -1.82983 0
M  V30 9629 C 958.316 -1.38531 -2.66889 0
M  V30 9630 C 959.864 -1.38332 -2.80772 0
M  V30 9631 C 960.339 -2.23497 -3.99766 0
M  V30 9632 N 961.83 -2.21167 -4.06988 0
M  V30 9633 C 962.565 -2.83805 -4.98239 0
M  V30 9634 N 962.061 -3.55468 -5.94655 0
M  V30 9635 N 963.854 -2.73314 -4.91178 0
M  V30 9636 H 956.005 -1.78588 -1.14978 0
M  V30 9637 H 958.268 -0.761508 -0.564633 0
M  V30 9638 H 957.974 -2.43255 -2.54007 0
M  V30 9639 H 957.848 -1.05611 -3.62114 0
M  V30 9640 H 960.235 -0.343832 -2.9309 0
M  V30 9641 H 960.316 -1.75256 -1.86331 0
M  V30 9642 H 959.96 -3.27501 -3.88208 0
M  V30 9643 H 959.89 -1.83919 -4.93438 0
M  V30 9644 H 962.381 -1.69046 -3.37982 0
M  V30 9645 H 962.694 -4.00487 -6.60931 0
M  V30 9646 H 961.039 -3.59575 -5.94753 0
M  V30 9647 H 964.23 -2.16897 -4.14817 0
M  V30 9648 H 964.403 -3.22416 -5.62096 0
M  V30 9649 N 957.809 1.4625 -0.587256 0
M  V30 9650 C 958.772 2.28812 0.133238 0
M  V30 9651 C 959.772 1.38645 0.814513 0
M  V30 9652 O 960.962 1.60975 0.665774 0
M  V30 9653 C 958.094 3.19147 1.19824 0
M  V30 9654 H 959.287 2.93991 -0.592386 0
M  V30 9655 H 956.84 1.52435 -0.345416 0
M  V30 9656 H 957.575 2.58725 1.95529 0
M  V30 9657 H 957.36 3.85541 0.71418 0
M  V30 9658 H 958.85 3.81278 1.70344 0
M  V30 9659 N 959.287 0.325282 1.54207 0
M  V30 9660 C 960.535 -0.276229 2.00203 0
M  V30 9661 C 960.856 -1.52519 1.21503 0
M  V30 9662 O 960.126 -1.93313 0.317302 0
M  V30 9663 H 958.706 -0.105059 0.739575 0
M  V30 9664 H 961.368 0.442225 1.89817 0
M  V30 9665 H 960.464 -0.531427 3.07542 0
M  V30 9666 N 960.765 -1.57509 0.0534917 0
M  V30 9667 C 962.013 -1.92402 -0.618548 0
M  V30 9668 C 962.334 -0.93273 -1.71246 0
M  V30 9669 O 961.604 0.0220495 -1.95888 0
M  V30 9670 H 960.184 -0.710233 -0.23147 0
M  V30 9671 H 962.846 -1.94606 0.10704 0
M  V30 9672 H 961.942 -2.93704 -1.05566 0
M  V30 9673 N 962.243 0.219913 -1.56058 0
M  V30 9674 C 963.173 1.27572 -1.9557 0
M  V30 9675 C 964.154 1.48801 -0.824148 0
M  V30 9676 O 965.339 1.60957 -1.08658 0
M  V30 9677 C 962.469 2.62517 -2.27381 0
M  V30 9678 C 961.423 2.55941 -3.43042 0
M  V30 9679 C 960.749 3.94931 -3.60463 0
M  V30 9680 C 962.049 2.10584 -4.77966 0
M  V30 9681 H 963.743 0.947482 -2.84013 0
M  V30 9682 H 961.289 0.454337 -1.36645 0
M  V30 9683 H 963.242 3.36538 -2.53615 0
M  V30 9684 H 961.966 2.97031 -1.35794 0
M  V30 9685 H 960.625 1.84377 -3.1686 0
M  V30 9686 H 960.273 4.26756 -2.66249 0
M  V30 9687 H 959.973 3.91413 -4.38258 0
M  V30 9688 H 961.497 4.70611 -3.89046 0
M  V30 9689 H 962.911 2.74349 -5.03394 0
M  V30 9690 H 961.308 2.18122 -5.59055 0
M  V30 9691 H 962.378 1.05818 -4.73213 0
M  V30 9692 N 963.721 1.49897 0.486681 0
M  V30 9693 C 964.653 1.63755 1.60365 0
M  V30 9694 C 965.666 0.519614 1.54285 0
M  V30 9695 O 966.855 0.792219 1.59957 0
M  V30 9696 C 963.955 1.59153 2.99205 0
M  V30 9697 C 963.128 2.8672 3.30319 0
M  V30 9698 C 962.187 2.74974 4.48638 0
M  V30 9699 O 961.213 3.48922 4.49714 0
M  V30 9700 N 962.415 1.87479 5.49392 0
M  V30 9701 H 965.18 2.60094 1.48899 0
M  V30 9702 H 962.741 1.47166 0.674825 0
M  V30 9703 H 964.733 1.4893 3.76301 0
M  V30 9704 H 963.303 0.706133 3.0452 0
M  V30 9705 H 962.523 3.11188 2.41983 0
M  V30 9706 H 963.811 3.71262 3.47911 0
M  V30 9707 H 963.209 1.26684 5.51333 0
M  V30 9708 H 961.766 1.83169 6.25534 0
M  V30 9709 N 965.199 -0.738761 1.39212 0
M  V30 9710 C 966.131 -1.86286 1.3353 0
M  V30 9711 C 967.144 -1.6095 0.244755 0
M  V30 9712 O 968.333 -1.71254 0.50343 0
M  V30 9713 C 965.433 -3.22234 1.04969 0
M  V30 9714 C 964.606 -3.74956 2.25226 0
M  V30 9715 C 963.665 -4.89457 1.9318 0
M  V30 9716 O 962.691 -5.03314 2.65826 0
M  V30 9717 N 963.893 -5.73548 0.895679 0
M  V30 9718 H 966.658 -1.91666 2.304 0
M  V30 9719 H 964.219 -0.919338 1.33266 0
M  V30 9720 H 966.211 -3.96397 0.815566 0
M  V30 9721 H 964.781 -3.12146 0.168451 0
M  V30 9722 H 964.001 -2.92188 2.64612 0
M  V30 9723 H 965.289 -4.06914 3.05448 0
M  V30 9724 H 964.687 -5.64938 0.293541 0
M  V30 9725 H 963.244 -6.47795 0.721451 0
M  V30 9726 N 966.677 -1.24326 -0.968545 0
M  V30 9727 C 967.954 -0.990459 -1.68669 0
M  V30 9728 C 968.334 0.487487 -2.05394 0
M  V30 9729 O 967.682 1.46158 -1.75642 0
M  V30 9730 C 967.892 -1.91251 -2.91931 0
M  V30 9731 C 969.24 -2.18291 -3.6419 0
M  V30 9732 O 970.264 -1.88897 -3.01987 0
M  V30 9733 O 969.123 -2.68204 -4.76161 0
M  V30 9734 H 966.217 -0.374515 -0.737338 0
M  V30 9735 H 968.763 -1.35421 -1.02271 0
M  V30 9736 H 967.535 -2.9111 -2.61478 0
M  V30 9737 H 967.158 -1.55188 -3.66064 0
M  V30 9738 N 968.156 1.1691 -1.05688 0
M  V30 9739 C 969.396 1.88972 -0.779044 0
M  V30 9740 C 969.76 1.7949 0.681708 0
M  V30 9741 O 970.961 2.46418 1.07386 0
M  V30 9742 C 969.232 3.34737 -1.25242 0
M  V30 9743 S 970.791 4.24718 -1.10272 0
M  V30 9744 H 967.609 0.652349 -0.282776 0
M  V30 9745 H 970.211 1.41162 -1.35254 0
M  V30 9746 H 968.915 3.39175 -2.3106 0
M  V30 9747 H 968.446 3.87593 -0.673417 0
M  V30 9748 H 970.461 4.96191 -0.0299004 0
M  V30 9749 N 969.634 0.838594 1.33437 0
M  V30 9750 C 970.597 0.276843 2.27522 0
M  V30 9751 C 971.597 -0.554275 1.50945 0
M  V30 9752 O 972.787 -0.368107 1.70266 0
M  V30 9753 C 969.919 -0.610036 3.35397 0
M  V30 9754 H 971.112 1.10705 2.78719 0
M  V30 9755 H 968.665 0.611657 1.43835 0
M  V30 9756 H 969.4 -1.46269 2.89441 0
M  V30 9757 H 969.185 -0.0153615 3.92097 0
M  V30 9758 H 970.675 -0.996368 4.05539 0
M  V30 9759 N 971.112 -1.45937 0.595003 0
M  V30 9760 C 972.042 -2.33198 -0.11871 0
M  V30 9761 C 973.023 -1.46083 -0.871423 0
M  V30 9762 O 974.208 -1.74879 -0.844461 0
M  V30 9763 C 971.338 -3.28576 -1.12495 0
M  V30 9764 C 970.292 -4.25229 -0.486275 0
M  V30 9765 C 969.618 -5.10204 -1.59986 0
M  V30 9766 C 970.918 -5.19019 0.584473 0
M  V30 9767 H 972.612 -2.93122 0.609886 0
M  V30 9768 H 970.158 -1.40951 0.294742 0
M  V30 9769 H 972.111 -3.88485 -1.6327 0
M  V30 9770 H 970.835 -2.66784 -1.88398 0
M  V30 9771 H 969.494 -3.666 0.000507962 0
M  V30 9772 H 969.142 -4.44789 -2.34886 0
M  V30 9773 H 968.842 -5.75669 -1.1781 0
M  V30 9774 H 970.366 -5.7298 -2.11014 0
M  V30 9775 H 971.78 -5.73073 0.161297 0
M  V30 9776 H 970.177 -5.92893 0.927256 0
M  V30 9777 H 971.247 -4.62208 1.46601 0
M  V30 9778 N 972.59 -0.333456 -1.54032 0
M  V30 9779 C 974.006 0.0188405 -1.59589 0
M  V30 9780 C 974.206 1.49615 -1.34972 0
M  V30 9781 O 973.262 2.2535 -1.13901 0
M  V30 9782 C 974.575 -0.408273 -2.97915 0
M  V30 9783 C 976.123 -0.359763 -3.10926 0
M  V30 9784 C 976.598 -0.76219 -4.51613 0
M  V30 9785 N 978.089 -0.715981 -4.57633 0
M  V30 9786 C 978.824 -0.999436 -5.64623 0
M  V30 9787 N 978.32 -1.35053 -6.79509 0
M  V30 9788 N 980.113 -0.924343 -5.54448 0
M  V30 9789 H 972.264 -1.29587 -1.68289 0
M  V30 9790 H 974.527 -0.527584 -0.787629 0
M  V30 9791 H 974.233 -1.43793 -3.20962 0
M  V30 9792 H 974.107 0.221685 -3.76548 0
M  V30 9793 H 976.494 0.660703 -2.87609 0
M  V30 9794 H 976.575 -1.02479 -2.34375 0
M  V30 9795 H 976.219 -1.78062 -4.75664 0
M  V30 9796 H 976.149 -0.0747478 -5.26547 0
M  V30 9797 H 978.64 -0.456875 -3.75128 0
M  V30 9798 H 978.953 -1.55194 -7.57057 0
M  V30 9799 H 977.298 -1.38889 -6.80981 0
M  V30 9800 H 980.489 -0.649469 -4.63573 0
M  V30 9801 H 980.662 -1.1486 -6.37739 0
M  V30 9802 N 974.068 1.57479 -0.061844 0
M  V30 9803 C 975.314 1.93395 0.610443 0
M  V30 9804 C 975.647 0.941334 1.6986 0
M  V30 9805 O 974.922 -0.0310262 1.94475 0
M  V30 9806 C 975.205 3.39636 1.19664 0
M  V30 9807 C 975.058 4.49651 0.115805 0
M  V30 9808 C 976.377 3.86488 2.10512 0
M  V30 9809 H 973.496 0.703262 0.220436 0
M  V30 9810 H 976.138 1.89583 -0.125785 0
M  V30 9811 H 974.288 3.43015 1.82409 0
M  V30 9812 H 975.96 4.58397 -0.516728 0
M  V30 9813 H 974.203 4.30237 -0.55483 0
M  V30 9814 H 974.874 5.49089 0.566176 0
M  V30 9815 H 977.35 3.85052 1.57715 0
M  V30 9816 H 976.226 4.89444 2.48466 0
M  V30 9817 H 976.487 3.23856 3.00948 0
M  V30 9818 N 975.546 -0.211634 1.56173 0
M  V30 9819 C 976.823 -0.959467 1.70451 0
M  V30 9820 C 977.203 -2.02036 0.611942 0
M  V30 9821 O 976.551 -2.25325 -0.37959 0
M  V30 9822 C 976.761 -1.56092 3.12148 0
M  V30 9823 C 978.109 -2.04939 3.71867 0
M  V30 9824 O 979.133 -1.65966 3.15172 0
M  V30 9825 O 977.992 -2.766 4.71333 0
M  V30 9826 H 975.086 -0.448844 0.6946 0
M  V30 9827 H 977.632 -0.202633 1.68486 0
M  V30 9828 H 976.404 -0.79538 3.83131 0
M  V30 9829 H 976.027 -2.38303 3.18273 0
M  V30 9830 N 977.024 -1.50153 -0.478725 0
M  V30 9831 C 977.987 -1.67916 -1.56003 0
M  V30 9832 C 978.987 -0.550111 -1.51097 0
M  V30 9833 O 980.177 -0.817001 -1.53853 0
M  V30 9834 C 977.309 -1.6973 -2.95643 0
M  V30 9835 H 978.502 -2.6438 -1.41573 0
M  V30 9836 H 976.055 -1.39519 -0.704565 0
M  V30 9837 H 976.79 -0.749306 -3.15525 0
M  V30 9838 H 976.575 -2.51745 -3.00611 0
M  V30 9839 H 978.065 -1.85453 -3.74162 0
M  V30 9840 N 978.502 0.731368 -1.39602 0
M  V30 9841 C 979.727 1.52567 -1.40492 0
M  V30 9842 C 980.152 1.881 -0.00228828 0
M  V30 9843 O 979.51 1.52167 0.985643 0
M  V30 9844 C 979.558 2.78749 -2.2876 0
M  V30 9845 O 978.662 3.7482 -1.71999 0
M  V30 9846 H 978.003 0.460601 -0.478271 0
M  V30 9847 H 980.533 0.902042 -1.83642 0
M  V30 9848 H 980.543 3.27446 -2.43399 0
M  V30 9849 H 979.218 2.5222 -3.30693 0
M  V30 9850 H 977.795 3.33604 -1.66622 0
M  V30 9851 N 979.98 1.24838 0.961938 0
M  V30 9852 C 980.943 1.04674 2.03902 0
M  V30 9853 C 981.943 0.00204674 1.608 0
M  V30 9854 O 983.133 0.243555 1.72489 0
M  V30 9855 C 980.265 0.587736 3.35795 0
M  V30 9856 H 981.458 2.00278 2.23223 0
M  V30 9857 H 979.011 1.07142 1.138 0
M  V30 9858 H 979.746 -0.371244 3.22168 0
M  V30 9859 H 979.531 1.34182 3.68426 0
M  V30 9860 H 981.021 0.467867 4.14971 0
M  V30 9861 N 981.458 -1.16348 1.06306 0
M  V30 9862 C 982.683 -1.91323 0.800636 0
M  V30 9863 C 983.108 -1.7691 -0.639105 0
M  V30 9864 O 982.466 -1.0945 -1.44535 0
M  V30 9865 C 982.514 -3.40038 1.20027 0
M  V30 9866 O 981.618 -4.11003 0.339142 0
M  V30 9867 H 980.959 -0.596057 0.292595 0
M  V30 9868 H 983.489 -1.47406 1.41889 0
M  V30 9869 H 983.499 -3.90808 1.17188 0
M  V30 9870 H 982.174 -3.49848 2.24898 0
M  V30 9871 H 980.751 -3.70423 0.42911 0
M  V30 9872 N 982.937 -0.845659 -1.3299 0
M  V30 9873 C 983.9 -0.288905 -2.27372 0
M  V30 9874 C 984.9 0.546263 -1.51237 0
M  V30 9875 O 986.09 0.359072 -1.70459 0
M  V30 9876 C 983.222 0.59224 -3.35716 0
M  V30 9877 H 984.415 -1.12181 -2.78128 0
M  V30 9878 H 981.968 -0.619276 -1.43508 0
M  V30 9879 H 982.703 1.44732 -2.90212 0
M  V30 9880 H 982.488 -0.00543255 -3.921 0
M  V30 9881 H 983.978 0.974848 -4.06062 0
M  V30 9882 N 984.415 1.45619 -0.602734 0
M  V30 9883 C 985.831 1.57368 -0.26599 0
M  V30 9884 C 986.031 1.59485 1.23154 0
M  V30 9885 O 985.087 1.52254 2.01432 0
M  V30 9886 C 986.4 2.85863 -0.932881 0
M  V30 9887 C 987.948 2.9953 -0.908344 0
M  V30 9888 C 988.423 4.30789 -1.55515 0
M  V30 9889 N 989.914 4.37536 -1.52042 0
M  V30 9890 C 990.649 5.37758 -1.99008 0
M  V30 9891 N 990.145 6.44544 -2.54038 0
M  V30 9892 N 991.938 5.29085 -1.89805 0
M  V30 9893 H 984.089 1.42489 -1.57514 0
M  V30 9894 H 986.352 0.680948 -0.659556 0
M  V30 9895 H 986.058 2.90183 -1.98713 0
M  V30 9896 H 985.932 3.74467 -0.453209 0
M  V30 9897 H 988.319 2.9478 0.137344 0
M  V30 9898 H 988.4 2.12349 -1.42623 0
M  V30 9899 H 988.044 4.36297 -2.60014 0
M  V30 9900 H 987.974 5.16778 -1.01232 0
M  V30 9901 H 990.465 3.60972 -1.11837 0
M  V30 9902 H 990.778 7.17258 -2.87682 0
M  V30 9903 H 989.123 6.45308 -2.58075 0
M  V30 9904 H 992.314 4.44566 -1.46556 0
M  V30 9905 H 992.487 6.07043 -2.26722 0
M  V30 9906 N 985.893 0.34162 1.53853 0
M  V30 9907 C 987.17 -0.310664 1.93117 0
M  V30 9908 C 987.55 -1.68398 1.273 0
M  V30 9909 O 986.898 -2.24546 0.423225 0
M  V30 9910 C 987.108 -0.384867 3.46871 0
M  V30 9911 C 988.456 -0.636621 4.198 0
M  V30 9912 O 989.48 -0.467061 3.53125 0
M  V30 9913 O 988.339 -0.964962 5.37913 0
M  V30 9914 H 985.433 -0.180881 0.806977 0
M  V30 9915 H 987.979 0.392656 1.65095 0
M  V30 9916 H 986.751 0.57894 3.86994 0
M  V30 9917 H 986.374 -1.13505 3.81054 0
M  V30 9918 N 987.371 -1.57444 0.0701946 0
M  V30 9919 C 988.334 -2.11511 -0.882923 0
M  V30 9920 C 989.334 -1.03879 -1.22743 0
M  V30 9921 O 990.524 -1.29874 -1.16097 0
M  V30 9922 C 987.656 -2.61514 -2.18686 0
M  V30 9923 H 988.849 -2.9703 -0.413873 0
M  V30 9924 H 986.402 -1.55278 -0.178488 0
M  V30 9925 H 987.137 -1.79443 -2.70131 0
M  V30 9926 H 986.922 -3.40185 -1.94978 0
M  V30 9927 H 988.412 -3.03425 -2.86919 0
M  V30 9928 N 988.849 0.203349 -1.56283 0
M  V30 9929 C 989.812 1.23566 -1.93039 0
M  V30 9930 C 990.812 1.38869 -0.810687 0
M  V30 9931 O 992.002 1.36822 -1.07821 0
M  V30 9932 C 989.134 2.60645 -2.1972 0
M  V30 9933 H 990.327 0.921692 -2.85385 0
M  V30 9934 H 987.88 0.44453 -1.49845 0
M  V30 9935 H 988.615 2.9711 -1.29985 0
M  V30 9936 H 988.4 2.50911 -3.01307 0
M  V30 9937 H 989.89 3.35103 -2.4919 0
M  V30 9938 N 990.327 1.50405 0.470755 0
M  V30 9939 C 991.257 1.72222 1.57676 0
M  V30 9940 C 992.238 0.57121 1.60222 0
M  V30 9941 O 993.423 0.810381 1.76484 0
M  V30 9942 C 990.553 1.81666 2.95998 0
M  V30 9943 C 989.507 2.96857 3.08318 0
M  V30 9944 C 988.833 2.91445 4.4829 0
M  V30 9945 C 990.133 4.37361 2.85504 0
M  V30 9946 H 991.827 2.64825 1.39671 0
M  V30 9947 H 989.373 1.27438 0.67049 0
M  V30 9948 H 991.326 1.95514 3.73299 0
M  V30 9949 H 990.05 0.856856 3.1516 0
M  V30 9950 H 988.709 2.82661 2.33449 0
M  V30 9951 H 988.357 1.93309 4.64371 0
M  V30 9952 H 988.057 3.68776 4.57469 0
M  V30 9953 H 989.581 3.07341 5.27611 0
M  V30 9954 H 990.995 4.52081 3.52555 0
M  V30 9955 H 989.392 5.16145 3.06127 0
M  V30 9956 H 990.462 4.49708 1.81359 0
M  V30 9957 N 991.805 -0.723954 1.39988 0
M  V30 9958 C 993.051 -1.48591 1.38017 0
M  V30 9959 C 993.384 -1.94189 -0.0203522 0
M  V30 9960 O 992.659 -1.67572 -0.987422 0
M  V30 9961 C 992.942 -2.71786 2.36229 0
M  V30 9962 C 992.795 -2.32136 3.8527 0
M  V30 9963 C 994.114 -3.73921 2.32102 0
M  V30 9964 H 991.233 -0.538993 0.502648 0
M  V30 9965 H 993.875 -0.826908 1.71062 0
M  V30 9966 H 992.025 -3.28015 2.0818 0
M  V30 9967 H 993.697 -1.81454 4.24113 0
M  V30 9968 H 991.94 -1.64234 4.01509 0
M  V30 9969 H 992.611 -3.20406 4.49493 0
M  V30 9970 H 995.087 -3.27303 2.56928 0
M  V30 9971 H 993.963 -4.5777 3.02882 0
M  V30 9972 H 994.224 -4.21627 1.32979 0
M  V30 9973 N 993.283 -1.25346 -0.955304 0
M  V30 9974 C 994.513 -1.12629 -1.732 0
M  V30 9975 C 994.921 0.322748 -1.86427 0
M  V30 9976 O 994.264 1.23381 -1.36099 0
M  V30 9977 C 994.326 -1.7064 -3.16421 0
M  V30 9978 C 993.99 -3.19632 -3.26626 0
M  V30 9979 C 994.987 -4.1663 -3.10991 0
M  V30 9980 C 992.672 -3.59829 -3.50468 0
M  V30 9981 C 994.666 -5.51806 -3.19043 0
M  V30 9982 C 992.353 -4.95143 -3.58157 0
M  V30 9983 C 993.351 -5.90941 -3.42459 0
M  V30 9984 O 993.039 -7.23792 -3.49828 0
M  V30 9985 H 992.771 -0.393646 -0.549562 0
M  V30 9986 H 995.325 -1.66184 -1.20715 0
M  V30 9987 H 993.555 -1.11532 -3.70267 0
M  V30 9988 H 995.244 -1.53032 -3.75947 0
M  V30 9989 H 996.01 -3.86915 -2.92441 0
M  V30 9990 H 991.889 -2.8576 -3.61749 0
M  V30 9991 H 995.433 -6.26559 -3.06707 0
M  V30 9992 H 991.33 -5.24525 -3.76224 0
M  V30 9993 H 992.098 -7.31879 -3.66463 0
M  V30 9994 N 994.761 1.15782 -1.06922 0
M  V30 9995 C 995.711 2.18373 -0.655537 0
M  V30 9996 C 996.695 1.57745 0.317084 0
M  V30 9997 O 997.887 1.76511 0.131509 0
M  V30 9998 C 995.016 3.43263 -0.0502314 0
M  V30 9999 C 994.102 4.10954 -1.04773 0
M  V30 10000 N 994.493 4.542 -2.22567 0
M  V30 10001 C 992.791 4.3723 -0.880087 0
M  V30 10002 C 993.492 5.06641 -2.85815 0
M  V30 10003 N 992.468 4.99917 -2.13505 0
M  V30 10004 H 996.27 2.49533 -1.55276 0
M  V30 10005 H 993.784 1.32303 -0.941793 0
M  V30 10006 H 995.781 4.16063 0.264003 0
M  V30 10007 H 994.441 3.13588 0.842167 0
M  V30 10008 H 995.452 4.47727 -2.60309 0
M  V30 10009 H 992.129 4.17481 -0.0402148 0
M  V30 10010 H 993.519 5.50092 -3.85808 0
M  V30 10011 N 996.239 0.8527 1.3254 0
M  V30 10012 C 997.186 0.293905 2.28921 0
M  V30 10013 C 998.156 -0.598027 1.54961 0
M  V30 10014 O 999.341 -0.533355 1.83194 0
M  V30 10015 C 996.481 -0.513361 3.4126 0
M  V30 10016 C 995.594 0.404144 4.30105 0
M  V30 10017 C 994.729 -0.415564 5.29572 0
M  V30 10018 C 993.768 0.499461 6.10059 0
M  V30 10019 N 992.905 -0.282949 7.0153 0
M  V30 10020 H 997.745 1.12107 2.76109 0
M  V30 10021 H 995.282 0.564272 1.35847 0
M  V30 10022 H 997.24 -0.997008 4.05112 0
M  V30 10023 H 995.87 -1.30537 2.95229 0
M  V30 10024 H 994.922 1.00617 3.66852 0
M  V30 10025 H 996.234 1.10648 4.86373 0
M  V30 10026 H 995.388 -0.962458 5.99017 0
M  V30 10027 H 994.127 -1.15127 4.73917 0
M  V30 10028 H 993.132 1.05825 5.39519 0
M  V30 10029 H 994.357 1.23375 6.67799 0
M  V30 10030 H 992.303 -1.00179 6.48306 0
M  V30 10031 H 992.22 0.36039 7.55141 0
M  V30 10032 H 993.488 -0.811632 7.75263 0
M  V30 10033 N 997.718 -1.45297 0.610449 0
M  V30 10034 C 998.648 -2.33311 -0.0939698 0
M  V30 10035 C 999.629 -1.46999 -0.85588 0
M  V30 10036 O 1000.81 -1.75764 -0.825865 0
M  V30 10037 C 997.944 -3.29751 -1.09003 0
M  V30 10038 C 996.898 -4.2572 -0.441146 0
M  V30 10039 C 996.224 -5.11873 -1.54566 0
M  V30 10040 C 997.524 -5.1837 0.639489 0
M  V30 10041 H 999.218 -2.92459 0.640941 0
M  V30 10042 H 996.764 -1.40631 0.309675 0
M  V30 10043 H 998.717 -3.90195 -1.59141 0
M  V30 10044 H 997.441 -2.68768 -1.85557 0
M  V30 10045 H 996.1 -3.66579 0.0393908 0
M  V30 10046 H 995.748 -4.47256 -2.30155 0
M  V30 10047 H 995.448 -5.76886 -1.11698 0
M  V30 10048 H 996.972 -5.75185 -2.04925 0
M  V30 10049 H 998.386 -5.7287 0.22207 0
M  V30 10050 H 996.783 -5.91876 0.990089 0
M  V30 10051 H 997.853 -4.60627 1.51495 0
M  V30 10052 N 999.196 -0.349774 -1.5367 0
M  V30 10053 C 1000.15 0.52023 -2.21986 0
M  V30 10054 C 1001.13 1.06119 -1.20944 0
M  V30 10055 O 1002.32 0.993857 -1.46463 0
M  V30 10056 C 999.451 1.66751 -3.00082 0
M  V30 10057 C 998.537 1.14019 -4.08486 0
M  V30 10058 N 998.928 0.334588 -5.04692 0
M  V30 10059 C 997.226 1.4165 -4.22908 0
M  V30 10060 C 997.927 0.0476906 -5.8168 0
M  V30 10061 N 996.903 0.641032 -5.39807 0
M  V30 10062 H 1000.7 -0.102261 -2.93722 0
M  V30 10063 H 998.219 -0.15696 -1.6164 0
M  V30 10064 H 1000.22 2.30281 -3.47529 0
M  V30 10065 H 998.876 2.29322 -2.29873 0
M  V30 10066 H 999.887 -0.0248665 -5.17894 0
M  V30 10067 H 996.564 2.04615 -3.63922 0
M  V30 10068 H 997.954 -0.602565 -6.69193 0
M  V30 10069 N 1000.67 1.57404 -0.0785433 0
M  V30 10070 C 1001.61 2.101 0.916013 0
M  V30 10071 C 1002.62 1.03459 1.25698 0
M  V30 10072 O 1003.81 1.30954 1.21299 0
M  V30 10073 C 1000.91 2.55202 2.22992 0
M  V30 10074 C 1000.08 3.85491 2.06678 0
M  V30 10075 C 999.14 4.16614 3.21433 0
M  V30 10076 O 998.166 4.86105 2.96126 0
M  V30 10077 N 999.368 3.70697 4.46726 0
M  V30 10078 H 1002.13 2.96054 0.466059 0
M  V30 10079 H 999.694 1.61546 0.107006 0
M  V30 10080 H 1001.69 2.7308 2.9868 0
M  V30 10081 H 1000.26 1.74348 2.59464 0
M  V30 10082 H 999.476 3.76925 1.15417 0
M  V30 10083 H 1000.76 4.70759 1.93036 0
M  V30 10084 H 1000.16 3.14571 4.70172 0
M  V30 10085 H 998.719 3.93762 5.19418 0
M  V30 10086 N 1002.15 -0.195058 1.56388 0
M  V30 10087 C 1003.08 -1.24444 1.97575 0
M  V30 10088 C 1004.06 -1.47471 0.847717 0
M  V30 10089 O 1005.25 -1.59208 1.11205 0
M  V30 10090 C 1002.38 -2.58866 2.31529 0
M  V30 10091 C 1001.33 -2.50451 3.47071 0
M  V30 10092 C 1000.66 -3.89146 3.667 0
M  V30 10093 C 1001.96 -2.02953 4.81256 0
M  V30 10094 H 1003.65 -0.902178 2.85484 0
M  V30 10095 H 1001.2 -0.43254 1.3735 0
M  V30 10096 H 1003.15 -3.3246 2.58936 0
M  V30 10097 H 1001.87 -2.94833 1.40502 0
M  V30 10098 H 1000.53 -1.79313 3.19754 0
M  V30 10099 H 1000.18 -4.22466 2.73004 0
M  V30 10100 H 999.882 -3.84391 4.44429 0
M  V30 10101 H 1001.41 -4.64363 3.96484 0
M  V30 10102 H 1002.82 -2.66306 5.07695 0
M  V30 10103 H 1001.22 -2.092 5.62455 0
M  V30 10104 H 1002.29 -0.982757 4.74837 0
M  V30 10105 N 1003.63 -1.50653 -0.462772 0
M  V30 10106 C 1004.58 -1.66509 -1.55752 0
M  V30 10107 C 1005.56 -0.519508 -1.52282 0
M  V30 10108 O 1006.76 -0.774296 -1.59166 0
M  V30 10109 C 1003.88 -1.77023 -2.94139 0
M  V30 10110 C 1002.97 -2.97284 -3.02461 0
M  V30 10111 N 1003.36 -4.20843 -2.80579 0
M  V30 10112 C 1001.66 -2.96014 -3.33604 0
M  V30 10113 C 1002.36 -5.01886 -2.94084 0
M  V30 10114 N 1001.34 -4.3601 -3.24648 0
M  V30 10115 H 1005.14 -2.59727 -1.37546 0
M  V30 10116 H 1002.65 -1.47951 -0.669653 0
M  V30 10117 H 1004.65 -1.86488 -3.72864 0
M  V30 10118 H 1003.31 -0.849688 -3.13385 0
M  V30 10119 H 1004.32 -4.50206 -2.55998 0
M  V30 10120 H 1001 -2.13493 -3.58786 0
M  V30 10121 H 1002.39 -6.10164 -2.81334 0
M  V30 10122 N 1005.11 0.71652 -1.4037 0
M  V30 10123 C 1006.34 1.50563 -1.4191 0
M  V30 10124 C 1006.75 1.88791 -0.0185456 0
M  V30 10125 O 1006.11 1.55378 0.957289 0
M  V30 10126 C 1006.16 2.78155 -2.30894 0
M  V30 10127 O 1005.88 2.41543 -3.65497 0
M  V30 10128 C 1007.38 3.72057 -2.41016 0
M  V30 10129 H 1004.6 0.464679 -0.48406 0
M  V30 10130 H 1007.15 0.883927 -1.8441 0
M  V30 10131 H 1005.3 3.36611 -1.91759 0
M  V30 10132 H 1005.71 3.23636 -4.12747 0
M  V30 10133 H 1007.19 4.58426 -3.07489 0
M  V30 10134 H 1007.67 4.15098 -1.43492 0
M  V30 10135 H 1008.27 3.19512 -2.80699 0
M  V30 10136 N 1006.59 1.25851 0.948643 0
M  V30 10137 C 1007.52 1.0108 2.04593 0
M  V30 10138 C 1008.5 -0.0619691 1.62482 0
M  V30 10139 O 1009.68 0.0789196 1.88335 0
M  V30 10140 C 1006.81 0.529174 3.34541 0
M  V30 10141 C 1005.85 1.59337 3.95618 0
M  V30 10142 S 1006.69 3.18026 4.30836 0
M  V30 10143 C 1007.84 2.71613 5.63895 0
M  V30 10144 H 1008.08 1.93988 2.2529 0
M  V30 10145 H 1005.61 1.09448 1.08906 0
M  V30 10146 H 1007.57 0.25795 4.09689 0
M  V30 10147 H 1006.23 -0.37951 3.11799 0
M  V30 10148 H 1005.42 1.20722 4.89328 0
M  V30 10149 H 1005.02 1.81559 3.26975 0
M  V30 10150 H 1007.32 2.15612 6.42275 0
M  V30 10151 H 1008.26 3.63986 6.07387 0
M  V30 10152 H 1008.67 2.11417 5.23415 0
M  V30 10153 N 1008.06 -1.15214 1.07534 0
M  V30 10154 C 1009.31 -1.85676 0.79805 0
M  V30 10155 C 1009.63 -1.82837 -0.677919 0
M  V30 10156 O 1008.9 -1.27059 -1.49107 0
M  V30 10157 H 1007.48 -0.687468 0.292227 0
M  V30 10158 H 1010.15 -1.39658 1.35947 0
M  V30 10159 H 1009.24 -2.9076 1.13423 0
M  V30 10160 N 1009.54 -0.859717 -1.32086 0
M  V30 10161 C 1010.49 -0.306042 -2.28762 0
M  V30 10162 C 1011.46 0.589801 -1.55276 0
M  V30 10163 O 1012.64 0.523633 -1.83474 0
M  V30 10164 C 1009.78 0.495256 -3.41528 0
M  V30 10165 C 1008.9 -0.426947 -4.29885 0
M  V30 10166 C 1008.03 0.387474 -5.29785 0
M  V30 10167 C 1007.07 -0.531807 -6.09785 0
M  V30 10168 N 1006.21 0.245741 -7.0167 0
M  V30 10169 H 1011.05 -1.1357 -2.7551 0
M  V30 10170 H 1008.59 -0.571468 -1.35546 0
M  V30 10171 H 1010.54 0.97551 -4.05635 0
M  V30 10172 H 1009.17 1.28969 -2.95917 0
M  V30 10173 H 1008.23 -1.02561 -3.66313 0
M  V30 10174 H 1009.54 -1.13226 -4.85779 0
M  V30 10175 H 1008.69 0.930677 -5.99519 0
M  V30 10176 H 1007.43 1.12612 -4.74521 0
M  V30 10177 H 1006.44 -1.08685 -5.3895 0
M  V30 10178 H 1007.66 -1.26915 -6.67135 0
M  V30 10179 H 1005.61 0.967391 -6.48828 0
M  V30 10180 H 1005.52 -0.400432 -7.54939 0
M  V30 10181 H 1006.79 0.770507 -7.75683 0
M  V30 10182 N 1011.02 1.44971 -0.618145 0
M  V30 10183 C 1011.97 2.27704 0.116119 0
M  V30 10184 C 1012.95 1.37927 0.828558 0
M  V30 10185 O 1014.15 1.61836 0.716806 0
M  V30 10186 C 1011.28 3.25004 1.10578 0
M  V30 10187 C 1010.36 4.22269 0.39364 0
M  V30 10188 N 1010.75 5.02571 -0.570581 0
M  V30 10189 C 1009.05 4.41387 0.639809 0
M  V30 10190 C 1009.75 5.73211 -0.990144 0
M  V30 10191 N 1008.73 5.42587 -0.331653 0
M  V30 10192 H 1012.53 2.87193 -0.624295 0
M  V30 10193 H 1010.04 1.56252 -0.442631 0
M  V30 10194 H 1012.04 3.83017 1.64631 0
M  V30 10195 H 1010.7 2.67075 1.84664 0
M  V30 10196 H 1011.71 5.09153 -0.947814 0
M  V30 10197 H 1008.39 3.94572 1.36453 0
M  V30 10198 H 1009.78 6.47728 -1.78601 0
M  V30 10199 N 1012.5 0.357919 1.53482 0
M  V30 10200 C 1013.73 -0.23514 2.05559 0
M  V30 10201 C 1014.14 -1.43068 1.23195 0
M  V30 10202 O 1013.5 -1.80481 0.270741 0
M  V30 10203 C 1013.55 -0.636147 3.55859 0
M  V30 10204 O 1013.27 0.511864 4.35099 0
M  V30 10205 C 1014.77 -1.28841 4.24164 0
M  V30 10206 H 1011.99 -0.0428446 0.669631 0
M  V30 10207 H 1014.54 0.51407 1.97933 0
M  V30 10208 H 1012.69 -1.33528 3.63661 0
M  V30 10209 H 1013.1 0.189328 5.24158 0
M  V30 10210 H 1014.58 -1.51962 5.30671 0
M  V30 10211 H 1015.06 -2.24638 3.77405 0
M  V30 10212 H 1015.66 -0.630914 4.20594 0
M  V30 10213 N 1013.98 -1.5736 0.0868897 0
M  V30 10214 C 1015.22 -1.9367 -0.577598 0
M  V30 10215 C 1015.55 -0.968844 -1.69229 0
M  V30 10216 O 1014.82 -0.0195061 -1.9589 0
M  V30 10217 H 1013.4 -0.714983 -0.216353 0
M  V30 10218 H 1016.06 -1.94335 0.148294 0
M  V30 10219 H 1015.15 -2.95877 -0.993128 0
M  V30 10220 N 1015.45 0.186762 -1.56489 0
M  V30 10221 C 1016.7 0.904063 -1.80752 0
M  V30 10222 C 1017.02 1.83443 -0.661343 0
M  V30 10223 O 1016.29 1.93272 0.319811 0
M  V30 10224 H 1014.87 0.336828 -0.66675 0
M  V30 10225 H 1017.54 0.190275 -1.93969 0
M  V30 10226 H 1016.63 1.49021 -2.74225 0
M  V30 10227 N 1016.93 1.50896 0.454776 0
M  V30 10228 C 1017.88 1.67333 1.54867 0
M  V30 10229 C 1018.87 0.527576 1.52005 0
M  V30 10230 O 1020.06 0.782726 1.58753 0
M  V30 10231 C 1017.19 1.7858 2.93196 0
M  V30 10232 C 1016.27 2.98884 3.0088 0
M  V30 10233 N 1016.66 4.22326 2.78343 0
M  V30 10234 C 1014.96 2.97779 3.32029 0
M  V30 10235 C 1015.66 5.03439 2.91418 0
M  V30 10236 N 1014.64 4.37725 3.22332 0
M  V30 10237 H 1018.44 2.60453 1.36167 0
M  V30 10238 H 1015.96 1.48304 0.661797 0
M  V30 10239 H 1017.95 1.88463 3.7187 0
M  V30 10240 H 1016.61 0.866296 3.1293 0
M  V30 10241 H 1017.62 4.51557 2.53607 0
M  V30 10242 H 1014.3 2.15393 3.57648 0
M  V30 10243 H 1015.69 6.11648 2.78095 0
M  V30 10244 N 1018.41 -0.709066 1.40748 0
M  V30 10245 C 1019.34 -1.83583 1.4429 0
M  V30 10246 C 1020.32 -1.67378 0.303067 0
M  V30 10247 O 1021.51 -1.87312 0.512612 0
M  V30 10248 C 1018.64 -3.21599 1.31116 0
M  V30 10249 C 1017.59 -3.52486 2.4277 0
M  V30 10250 C 1016.92 -4.89716 2.14668 0
M  V30 10251 C 1018.22 -3.52824 3.85113 0
M  V30 10252 H 1019.91 -1.80876 2.38588 0
M  V30 10253 H 1017.46 -0.868795 1.14839 0
M  V30 10254 H 1019.41 -4.00123 1.32209 0
M  V30 10255 H 1018.13 -3.24898 0.332965 0
M  V30 10256 H 1016.79 -2.76305 2.40937 0
M  V30 10257 H 1016.44 -4.89625 1.15224 0
M  V30 10258 H 1016.14 -5.11347 2.89478 0
M  V30 10259 H 1017.66 -5.70566 2.17455 0
M  V30 10260 H 1019.08 -4.21377 3.88734 0
M  V30 10261 H 1017.48 -3.85984 4.59496 0
M  V30 10262 H 1018.55 -2.52073 4.14231 0
M  V30 10263 N 1019.89 -1.26353 -0.941956 0
M  V30 10264 C 1021.12 -1.14626 -1.72245 0
M  V30 10265 C 1021.53 0.298588 -1.86424 0
M  V30 10266 O 1020.89 1.2045 -1.37106 0
M  V30 10267 C 1020.94 -1.80933 -3.12963 0
M  V30 10268 O 1020.66 -3.19771 -2.99463 0
M  V30 10269 C 1022.16 -1.7515 -4.07231 0
M  V30 10270 H 1019.38 -0.3992 -0.539333 0
M  V30 10271 H 1021.93 -1.66958 -1.1809 0
M  V30 10272 H 1020.08 -1.32541 -3.64021 0
M  V30 10273 H 1020.5 -3.52571 -3.88322 0
M  V30 10274 H 1021.97 -2.26183 -5.03533 0
M  V30 10275 H 1022.45 -0.717855 -4.33294 0
M  V30 10276 H 1023.05 -2.2309 -3.62093 0
M  V30 10277 N 1021.37 1.14642 -1.08144 0
M  V30 10278 C 1022.33 2.17834 -0.712799 0
M  V30 10279 C 1023.33 1.58828 0.251041 0
M  V30 10280 O 1024.52 1.74173 0.0309381 0
M  V30 10281 C 1021.65 3.4086 -0.0519477 0
M  V30 10282 H 1022.85 2.51961 -1.62653 0
M  V30 10283 H 1020.4 1.29243 -0.878971 0
M  V30 10284 H 1021.13 3.12311 0.873636 0
M  V30 10285 H 1020.92 3.84952 -0.745286 0
M  V30 10286 H 1022.41 4.17163 0.191031 0
M  V30 10287 N 1022.85 0.866709 1.31628 0
M  V30 10288 C 1024.07 0.49039 2.01004 0
M  V30 10289 C 1024.49 -0.916244 1.65077 0
M  V30 10290 O 1023.85 -1.59975 0.8783 0
M  V30 10291 C 1023.9 0.634011 3.55897 0
M  V30 10292 O 1023.62 1.98525 3.90537 0
M  V30 10293 C 1025.12 0.258277 4.42547 0
M  V30 10294 H 1022.34 0.191421 0.643117 0
M  V30 10295 H 1024.88 1.16698 1.67934 0
M  V30 10296 H 1023.04 0.00501801 3.874 0
M  V30 10297 H 1023.45 1.99067 4.85255 0
M  V30 10298 H 1024.93 0.409733 5.50477 0
M  V30 10299 H 1025.4 -0.802301 4.3181 0
M  V30 10300 H 1026.01 0.862837 4.16456 0
M  V30 10301 N 1024.32 -1.44642 0.625825 0
M  V30 10302 C 1025.27 -2.32408 -0.0945221 0
M  V30 10303 C 1026.27 -1.47038 -0.841198 0
M  V30 10304 O 1027.47 -1.63415 -0.754698 0
M  V30 10305 H 1023.85 -0.75038 -0.0493321 0
M  V30 10306 H 1025.82 -2.90922 0.663863 0
M  V30 10307 C 1024.57 -3.30951 -1.06615 0
M  V30 10308 H 1023.89 -3.96648 -0.501021 0
M  V30 10309 H 1025.33 -3.95054 -1.53976 0
M  V30 10310 C 1023.79 -2.59479 -2.14877 0
M  V30 10311 O 1024.32 -2.38974 -3.22885 0
M  V30 10312 N 1022.52 -2.19307 -1.90665 0
M  V30 10313 H 1022.07 -2.36184 -1.02835 0
M  V30 10314 H 1022.03 -1.71811 -2.63303 0
M  V30 10315 N 1025.8 -0.366053 -1.5329 0
M  V30 10316 C 1026.73 0.47211 -2.28677 0
M  V30 10317 C 1027.71 1.08353 -1.31125 0
M  V30 10318 O 1028.9 1.10069 -1.59995 0
M  V30 10319 C 1026.03 1.61174 -3.07637 0
M  V30 10320 C 1024.98 1.12755 -4.12881 0
M  V30 10321 C 1024.31 2.35745 -4.79925 0
M  V30 10322 C 1025.61 0.211954 -5.2187 0
M  V30 10323 H 1027.3 -0.156838 -2.98989 0
M  V30 10324 H 1024.85 -0.0768709 -1.43795 0
M  V30 10325 H 1026.8 2.20473 -3.59123 0
M  V30 10326 H 1025.52 2.26793 -2.35016 0
M  V30 10327 H 1024.18 0.557234 -3.6234 0
M  V30 10328 H 1023.83 2.99821 -4.03877 0
M  V30 10329 H 1023.53 2.04019 -5.51044 0
M  V30 10330 H 1025.06 2.95729 -5.34207 0
M  V30 10331 H 1026.47 0.71244 -5.68856 0
M  V30 10332 H 1024.87 -0.0144501 -6.00098 0
M  V30 10333 H 1025.94 -0.745753 -4.79131 0
M  V30 10334 N 1027.28 1.57312 -0.0952337 0
M  V30 10335 C 1028.24 2.12889 0.849161 0
M  V30 10336 C 1029.24 1.05819 1.21075 0
M  V30 10337 O 1030.43 1.31704 1.14016 0
M  V30 10338 C 1027.56 2.6496 2.14498 0
M  V30 10339 H 1028.76 2.97651 0.366566 0
M  V30 10340 H 1026.31 1.55542 0.153762 0
M  V30 10341 H 1027.05 1.83718 2.67242 0
M  V30 10342 H 1026.83 3.43244 1.89542 0
M  V30 10343 H 1028.32 3.07952 2.82056 0
M  V30 10344 N 1028.76 -0.17846 1.56586 0
M  V30 10345 C 1029.69 -1.22342 1.98884 0
M  V30 10346 C 1030.67 -1.46564 0.86331 0
M  V30 10347 O 1031.85 -1.58019 1.12887 0
M  V30 10348 C 1028.98 -2.56396 2.34261 0
M  V30 10349 C 1027.94 -2.46756 3.49708 0
M  V30 10350 C 1027.26 -3.85235 3.70807 0
M  V30 10351 C 1028.56 -1.97838 4.83381 0
M  V30 10352 H 1030.26 -0.871848 2.86425 0
M  V30 10353 H 1027.8 -0.417948 1.37801 0
M  V30 10354 H 1029.76 -3.29695 2.62448 0
M  V30 10355 H 1028.48 -2.93327 1.43621 0
M  V30 10356 H 1027.14 -1.75912 3.21637 0
M  V30 10357 H 1026.79 -4.19547 2.7747 0
M  V30 10358 H 1026.49 -3.79655 4.48481 0
M  V30 10359 H 1028.01 -4.60131 4.01387 0
M  V30 10360 H 1029.43 -2.60906 5.10491 0
M  V30 10361 H 1027.82 -2.03223 5.64642 0
M  V30 10362 H 1028.89 -0.932339 4.75852 0
M  V30 10363 N 1030.24 -1.51135 -0.446768 0
M  V30 10364 C 1031.46 -1.67411 -1.22427 0
M  V30 10365 C 1031.89 -0.367009 -1.84485 0
M  V30 10366 O 1031.24 0.67185 -1.68392 0
M  V30 10367 C 1031.29 -2.78473 -2.29096 0
M  V30 10368 O 1030.4 -2.41419 -3.34351 0
M  V30 10369 H 1029.74 -0.558512 -0.359111 0
M  V30 10370 H 1032.27 -1.97648 -0.5288 0
M  V30 10371 H 1032.28 -3.02277 -2.7403 0
M  V30 10372 H 1030.95 -3.73326 -1.83304 0
M  V30 10373 H 1029.53 -2.28152 -2.9496 0
M  V30 10374 N 1031.71 0.701592 -1.41122 0
M  V30 10375 C 1032.68 1.79733 -1.42227 0
M  V30 10376 C 1033.68 1.57708 -0.313831 0
M  V30 10377 O 1034.87 1.64492 -0.573423 0
M  V30 10378 C 1032 3.18024 -1.22775 0
M  V30 10379 H 1033.19 1.80148 -2.39764 0
M  V30 10380 H 1030.74 0.908624 -1.27176 0
M  V30 10381 H 1031.48 3.23252 -0.260552 0
M  V30 10382 H 1031.26 3.35411 -2.0308 0
M  V30 10383 H 1032.75 3.98021 -1.2637 0
M  V30 10384 N 1033.19 1.2685 0.935242 0
M  V30 10385 C 1034.12 1.1143 2.05196 0
M  V30 10386 C 1035.1 0.0178362 1.70091 0
M  V30 10387 O 1036.29 0.190951 1.93259 0
M  V30 10388 C 1033.42 0.752779 3.39044 0
M  V30 10389 C 1032.37 1.80164 3.88233 0
M  V30 10390 C 1031.7 1.29428 5.18799 0
M  V30 10391 C 1033 3.20431 4.12457 0
M  V30 10392 H 1034.69 2.04845 2.18355 0
M  V30 10393 H 1032.24 0.986276 1.04922 0
M  V30 10394 H 1034.19 0.631757 4.16637 0
M  V30 10395 H 1032.91 -0.217075 3.25878 0
M  V30 10396 H 1031.57 1.91144 3.12825 0
M  V30 10397 H 1031.22 0.3141 5.02018 0
M  V30 10398 H 1030.92 1.99546 5.5268 0
M  V30 10399 H 1032.45 1.18605 5.9897 0
M  V30 10400 H 1033.86 3.12495 4.80645 0
M  V30 10401 H 1032.26 3.88193 4.57631 0
M  V30 10402 H 1033.33 3.66046 3.18023 0
M  V30 10403 N 1034.67 -1.14067 1.0875 0
M  V30 10404 C 1035.62 -2.21332 0.715195 0
M  V30 10405 C 1036.61 -1.67059 -0.280679 0
M  V30 10406 O 1037.82 -1.79432 -0.142874 0
M  V30 10407 H 1034.19 -0.721126 0.213264 0
M  V30 10408 H 1036.16 -2.50002 1.62916 0
M  V30 10409 C 1034.91 -3.474 0.144401 0
M  V30 10410 H 1034.24 -3.89495 0.901884 0
M  V30 10411 H 1035.68 -4.23928 -0.0782564 0
M  V30 10412 C 1034.14 -3.17787 -1.11862 0
M  V30 10413 O 1034.67 -3.35906 -2.20295 0
M  V30 10414 N 1032.87 -2.71719 -1.03039 0
M  V30 10415 H 1032.42 -2.57175 -0.14793 0
M  V30 10416 H 1032.38 -2.52281 -1.87621 0
M  V30 10417 N 1036.15 -0.873678 -1.31166 0
M  V30 10418 C 1037.08 -0.348011 -2.30892 0
M  V30 10419 C 1038.06 0.563092 -1.60509 0
M  V30 10420 O 1039.24 0.479332 -1.88192 0
M  V30 10421 C 1036.37 0.448158 -3.44396 0
M  V30 10422 C 1035.33 -0.370179 -4.26396 0
M  V30 10423 C 1034.65 0.551903 -5.31844 0
M  V30 10424 C 1035.95 -1.60624 -4.96988 0
M  V30 10425 H 1037.65 -1.18134 -2.75109 0
M  V30 10426 H 1035.19 -0.569502 -1.3226 0
M  V30 10427 H 1037.15 0.826458 -4.13216 0
M  V30 10428 H 1035.87 1.31503 -2.98956 0
M  V30 10429 H 1034.53 -0.730472 -3.59249 0
M  V30 10430 H 1034.18 1.41616 -4.82653 0
M  V30 10431 H 1033.88 0.00823478 -5.87599 0
M  V30 10432 H 1035.4 0.926965 -6.03523 0
M  V30 10433 H 1036.82 -1.29917 -5.58386 0
M  V30 10434 H 1035.21 -2.08926 -5.62557 0
M  V30 10435 H 1036.28 -2.357 -4.23761 0
M  V30 10436 N 1037.63 1.44308 -0.633487 0
M  V30 10437 C 1038.59 2.2912 0.060376 0
M  V30 10438 C 1039.59 1.41166 0.769992 0
M  V30 10439 O 1040.78 1.63012 0.614224 0
M  V30 10440 C 1037.91 3.22798 1.0961 0
M  V30 10441 H 1039.1 2.91958 -0.685617 0
M  V30 10442 H 1036.66 1.51259 -0.393738 0
M  V30 10443 H 1037.39 2.64815 1.87199 0
M  V30 10444 H 1037.18 3.87618 0.591161 0
M  V30 10445 H 1038.67 3.86504 1.58127 0
M  V30 10446 N 1039.1 0.374177 1.53094 0
M  V30 10447 C 1040.01 -0.475935 2.29722 0
M  V30 10448 C 1041.03 -1.085 1.36029 0
M  V30 10449 O 1042.21 -1.09408 1.69091 0
M  V30 10450 C 1039.27 -1.59572 3.07795 0
M  V30 10451 C 1038.33 -1.01332 4.17169 0
M  V30 10452 C 1037.57 -2.07975 4.9151 0
M  V30 10453 O 1037.79 -3.29232 4.65793 0
M  V30 10454 O 1036.72 -1.7055 5.77232 0
M  V30 10455 H 1040.55 0.147877 3.0334 0
M  V30 10456 H 1038.13 0.138312 1.48758 0
M  V30 10457 H 1040.02 -2.24658 3.5652 0
M  V30 10458 H 1038.69 -2.20478 2.37005 0
M  V30 10459 H 1037.6 -0.326133 3.72676 0
M  V30 10460 H 1038.93 -0.4487 4.90151 0
M  V30 10461 N 1040.58 -1.57259 0.103575 0
M  V30 10462 C 1041.82 -1.96539 -0.561398 0
M  V30 10463 C 1042.19 -0.984775 -1.64822 0
M  V30 10464 O 1043.39 -1.26638 -2.371 0
M  V30 10465 C 1041.66 -3.40229 -1.09447 0
M  V30 10466 S 1043.22 -4.01512 -1.77013 0
M  V30 10467 H 1040.04 -0.687061 -0.182944 0
M  V30 10468 H 1042.64 -1.94623 0.184993 0
M  V30 10469 H 1041.34 -4.09359 -0.292091 0
M  V30 10470 H 1040.87 -3.45762 -1.8765 0
M  V30 10471 H 1042.89 -3.91009 -3.05494 0
M  V30 10472 N 1042.06 0.170153 -1.56679 0
M  V30 10473 C 1043.02 1.19443 -1.95617 0
M  V30 10474 C 1044.02 1.37118 -0.83996 0
M  V30 10475 O 1045.21 1.34504 -1.10699 0
M  V30 10476 C 1042.35 2.55926 -2.25199 0
M  V30 10477 H 1043.54 0.86095 -2.87276 0
M  V30 10478 H 1041.09 0.412646 -1.50755 0
M  V30 10479 H 1041.83 2.94286 -1.36257 0
M  V30 10480 H 1041.61 2.44464 -3.06562 0
M  V30 10481 H 1043.1 3.29742 -2.56242 0
M  V30 10482 N 1043.54 1.5137 0.438746 0
M  V30 10483 C 1044.79 1.63645 1.18595 0
M  V30 10484 C 1045.11 0.354241 1.91755 0
M  V30 10485 O 1044.38 -0.629838 1.85499 0
M  V30 10486 H 1042.96 0.603103 0.440767 0
M  V30 10487 H 1045.62 1.88293 0.503159 0
M  V30 10488 H 1044.72 2.46342 1.9163 0
M  V30 10489 N 1045.02 -0.694098 1.41492 0
M  V30 10490 C 1046.29 -1.44875 1.31418 0
M  V30 10491 C 1046.67 -2.11022 -0.0575538 0
M  V30 10492 O 1046.02 -2.01799 -1.07188 0
M  V30 10493 C 1046.23 -2.46698 2.46863 0
M  V30 10494 C 1047.58 -3.11907 2.88095 0
M  V30 10495 O 1048.6 -2.57022 2.46613 0
M  V30 10496 O 1047.46 -4.11318 3.59833 0
M  V30 10497 H 1044.56 -0.645266 0.517263 0
M  V30 10498 H 1047.1 -0.724452 1.53459 0
M  V30 10499 H 1045.87 -1.96485 3.38392 0
M  V30 10500 H 1045.5 -3.26634 2.26706 0
M  V30 10501 N 1046.49 -1.27344 -0.928501 0
M  V30 10502 C 1047.46 -1.10043 -2.01055 0
M  V30 10503 C 1048.46 -0.0446793 -1.60738 0
M  V30 10504 O 1049.65 -0.289202 -1.71783 0
M  V30 10505 C 1046.78 -0.676559 -3.34119 0
M  V30 10506 H 1047.97 -2.06126 -2.17835 0
M  V30 10507 H 1045.53 -1.10121 -1.10919 0
M  V30 10508 H 1046.26 0.285697 -3.23039 0
M  V30 10509 H 1046.05 -1.43903 -3.64739 0
M  V30 10510 H 1047.54 -0.577725 -4.13584 0
M  V30 10511 N 1047.97 1.13488 -1.09353 0
M  V30 10512 C 1049.22 1.85022 -0.830354 0
M  V30 10513 C 1049.55 1.83266 0.64242 0
M  V30 10514 O 1048.83 1.27024 1.47293 0
M  V30 10515 C 1049.11 3.33218 -1.36521 0
M  V30 10516 C 1048.96 3.43491 -2.90404 0
M  V30 10517 C 1050.28 4.28626 -0.998381 0
M  V30 10518 H 1047.4 0.671786 -0.303105 0
M  V30 10519 H 1050.04 1.33211 -1.3548 0
M  V30 10520 H 1048.19 3.77471 -0.919117 0
M  V30 10521 H 1049.86 3.07954 -3.43456 0
M  V30 10522 H 1048.11 2.84391 -3.27573 0
M  V30 10523 H 1048.78 4.47702 -3.22905 0
M  V30 10524 H 1051.25 3.9244 -1.38311 0
M  V30 10525 H 1050.13 5.30754 -1.39968 0
M  V30 10526 H 1050.39 4.42001 0.093517 0
M  V30 10527 N 1049.45 0.880621 1.30701 0
M  V30 10528 C 1050.68 0.510909 2.01009 0
M  V30 10529 C 1051.1 -0.892041 1.65603 0
M  V30 10530 O 1050.46 -1.59045 0.870309 0
M  V30 10531 C 1050.51 0.687759 3.53981 0
M  V30 10532 O 1049.61 -0.268275 4.11526 0
M  V30 10533 H 1048.95 0.201864 0.632572 0
M  V30 10534 H 1051.48 1.18697 1.6665 0
M  V30 10535 H 1051.49 0.585095 4.03783 0
M  V30 10536 H 1050.17 1.71068 3.79089 0
M  V30 10537 H 1048.74 -0.119673 3.72708 0
M  V30 10538 N 1050.93 -1.4397 0.641131 0
M  V30 10539 C 1052.18 -2.02246 0.14985 0
M  V30 10540 C 1052.51 -1.50387 -1.22871 0
M  V30 10541 O 1051.78 -0.692003 -1.81773 0
M  V30 10542 C 1052.07 -3.59798 0.147449 0
M  V30 10543 C 1051.92 -4.21916 1.55907 0
M  V30 10544 C 1053.24 -4.36985 -0.522667 0
M  V30 10545 H 1050.36 -0.734875 0.0559274 0
M  V30 10546 H 1053 -1.71418 0.819513 0
M  V30 10547 H 1051.15 -3.86193 -0.422789 0
M  V30 10548 H 1052.82 -4.06594 2.17896 0
M  V30 10549 H 1051.06 -3.79028 2.10998 0
M  V30 10550 H 1051.74 -5.30964 1.50934 0
M  V30 10551 H 1054.21 -4.16083 -0.0376226 0
M  V30 10552 H 1053.09 -5.46676 -0.493572 0
M  V30 10553 H 1053.35 -4.12335 -1.59475 0
M  V30 10554 N 1052.41 -0.382291 -1.52893 0
M  V30 10555 C 1053.37 0.44408 -2.24857 0
M  V30 10556 C 1054.37 0.996004 -1.26239 0
M  V30 10557 O 1055.56 0.879114 -1.5039 0
M  V30 10558 C 1052.69 1.62234 -2.99822 0
M  V30 10559 H 1053.89 -0.185862 -2.99324 0
M  V30 10560 H 1051.44 -0.134275 -1.55722 0
M  V30 10561 H 1052.17 2.28991 -2.29638 0
M  V30 10562 H 1051.96 1.23336 -3.72197 0
M  V30 10563 H 1053.45 2.20756 -3.54481 0
M  V30 10564 N 1053.89 1.57202 -0.111913 0
M  V30 10565 C 1055.11 1.99297 0.555713 0
M  V30 10566 C 1055.53 0.991444 1.60673 0
M  V30 10567 O 1054.89 -0.0166672 1.82492 0
M  V30 10568 C 1054.94 3.41413 1.18826 0
M  V30 10569 O 1054.66 4.37733 0.179261 0
M  V30 10570 C 1056.16 3.98602 1.93989 0
M  V30 10571 H 1053.38 0.654543 0.147695 0
M  V30 10572 H 1055.92 2.03557 -0.196163 0
M  V30 10573 H 1054.08 3.38115 1.89096 0
M  V30 10574 H 1054.49 5.20606 0.637935 0
M  V30 10575 H 1055.97 5.00143 2.33584 0
M  V30 10576 H 1056.44 3.37349 2.81233 0
M  V30 10577 H 1057.05 4.05424 1.28497 0
M  V30 10578 N 1055.36 -0.161842 1.56767 0
M  V30 10579 C 1056.29 -1.20226 2.0017 0
M  V30 10580 C 1057.27 -1.4564 0.878807 0
M  V30 10581 O 1058.46 -1.56813 1.14557 0
M  V30 10582 C 1055.59 -2.53897 2.36968 0
M  V30 10583 C 1054.54 -2.43033 3.52305 0
M  V30 10584 C 1053.87 -3.81281 3.74872 0
M  V30 10585 C 1055.17 -1.927 4.85453 0
M  V30 10586 H 1056.86 -0.84142 2.87333 0
M  V30 10587 H 1054.41 -0.403309 1.38237 0
M  V30 10588 H 1056.36 -3.26893 2.6593 0
M  V30 10589 H 1055.09 -2.91787 1.46724 0
M  V30 10590 H 1053.75 -1.7249 3.23485 0
M  V30 10591 H 1053.39 -4.1658 2.81904 0
M  V30 10592 H 1053.09 -3.74877 4.52483 0
M  V30 10593 H 1054.62 -4.55848 4.06245 0
M  V30 10594 H 1056.03 -2.55477 5.13229 0
M  V30 10595 H 1054.43 -1.97222 5.66766 0
M  V30 10596 H 1055.5 -0.881816 4.76814 0
M  V30 10597 N 1056.84 -1.516 -0.430713 0
M  V30 10598 C 1057.8 -1.72794 -1.50582 0
M  V30 10599 C 1058.8 -0.597903 -1.49271 0
M  V30 10600 O 1059.99 -0.865535 -1.51176 0
M  V30 10601 C 1057.13 -1.79049 -2.90093 0
M  V30 10602 H 1058.32 -2.68751 -1.33091 0
M  V30 10603 H 1055.87 -1.4169 -0.659822 0
M  V30 10604 H 1056.61 -0.849309 -3.12981 0
M  V30 10605 H 1056.39 -2.61181 -2.92449 0
M  V30 10606 H 1057.88 -1.97262 -3.68072 0
M  V30 10607 N 1058.32 0.686584 -1.41858 0
M  V30 10608 C 1059.23 1.83002 -1.46791 0
M  V30 10609 C 1060.25 1.70284 -0.357675 0
M  V30 10610 O 1061.42 1.92042 -0.606781 0
M  V30 10611 C 1058.49 3.19056 -1.35661 0
M  V30 10612 C 1057.55 3.43817 -2.57077 0
M  V30 10613 C 1056.78 4.7338 -2.46469 0
M  V30 10614 O 1057 5.50483 -1.49413 0
M  V30 10615 O 1055.94 4.99124 -3.36391 0
M  V30 10616 H 1059.76 1.81797 -2.43277 0
M  V30 10617 H 1057.35 0.840812 -1.23494 0
M  V30 10618 H 1059.23 4.00267 -1.31773 0
M  V30 10619 H 1057.91 3.20925 -0.422951 0
M  V30 10620 H 1056.81 2.625 -2.66541 0
M  V30 10621 H 1058.15 3.4677 -3.49302 0
M  V30 10622 N 1059.8 1.27835 0.921735 0
M  V30 10623 C 1061.05 1.13904 1.6646 0
M  V30 10624 C 1061.36 -0.313379 1.93073 0
M  V30 10625 O 1062.57 -0.573687 2.6537 0
M  V30 10626 C 1061.02 1.99064 2.99836 0
M  V30 10627 C 1060.63 3.48998 2.80899 0
M  V30 10628 C 1062.37 1.93797 3.77681 0
M  V30 10629 C 1060.28 4.26337 4.09867 0
M  V30 10630 H 1059.21 0.422681 0.624385 0
M  V30 10631 H 1061.86 1.52303 1.02352 0
M  V30 10632 H 1060.24 1.53514 3.65034 0
M  V30 10633 H 1061.42 4.02452 2.24431 0
M  V30 10634 H 1059.73 3.55707 2.16476 0
M  V30 10635 H 1062.33 2.48852 4.73262 0
M  V30 10636 H 1062.67 0.912928 4.06167 0
M  V30 10637 H 1063.21 2.37275 3.19289 0
M  V30 10638 H 1059.94 5.2939 3.86557 0
M  V30 10639 H 1059.46 3.77659 4.65976 0
M  V30 10640 H 1061.14 4.3583 4.78185 0
M  V30 10641 N 1061.28 -1.12907 1.09954 0
M  V30 10642 C 1062.51 -1.87866 0.859656 0
M  V30 10643 C 1062.91 -1.79664 -0.593096 0
M  V30 10644 O 1062.26 -1.16499 -1.42034 0
M  V30 10645 C 1062.32 -3.38055 1.22308 0
M  V30 10646 C 1061.98 -3.70035 2.68185 0
M  V30 10647 C 1062.98 -3.68817 3.66428 0
M  V30 10648 C 1060.66 -3.99523 3.04444 0
M  V30 10649 C 1062.66 -3.96639 4.98955 0
M  V30 10650 C 1060.35 -4.27006 4.37161 0
M  V30 10651 C 1061.34 -4.25549 5.34225 0
M  V30 10652 O 1061.03 -4.52354 6.64553 0
M  V30 10653 H 1060.76 -0.601425 0.308649 0
M  V30 10654 H 1063.32 -1.43817 1.46649 0
M  V30 10655 H 1061.55 -3.82634 0.559322 0
M  V30 10656 H 1063.24 -3.94348 0.961479 0
M  V30 10657 H 1064 -3.46104 3.3976 0
M  V30 10658 H 1059.88 -3.99801 2.29521 0
M  V30 10659 H 1063.43 -3.95418 5.74709 0
M  V30 10660 H 1059.32 -4.49192 4.6357 0
M  V30 10661 H 1060.09 -4.69997 6.70108 0
M  V30 10662 N 1062.75 -0.88754 -1.30232 0
M  V30 10663 C 1064 -0.508031 -1.96334 0
M  V30 10664 C 1064.33 0.940905 -1.69884 0
M  V30 10665 O 1063.61 1.66523 -1.005 0
M  V30 10666 C 1063.89 -0.786566 -3.51405 0
M  V30 10667 C 1063.74 -2.28632 -3.8736 0
M  V30 10668 C 1065.06 -0.264803 -4.39303 0
M  V30 10669 H 1062.18 -0.186051 -0.71313 0
M  V30 10670 H 1064.82 -1.112 -1.5406 0
M  V30 10671 H 1062.97 -0.272523 -3.87543 0
M  V30 10672 H 1064.65 -2.86896 -3.61231 0
M  V30 10673 H 1062.89 -2.75194 -3.35337 0
M  V30 10674 H 1063.56 -2.43181 -4.95547 0
M  V30 10675 H 1066.04 -0.704809 -4.10087 0
M  V30 10676 H 1064.91 -0.488998 -5.46717 0
M  V30 10677 H 1065.17 0.834055 -4.34161 0
M  V30 10678 N 1064.23 1.43628 -0.648757 0
M  V30 10679 C 1065.2 2.29172 0.0360713 0
M  V30 10680 C 1066.2 1.41974 0.754976 0
M  V30 10681 O 1067.39 1.63654 0.5969 0
M  V30 10682 C 1064.52 3.23942 1.0618 0
M  V30 10683 H 1065.71 2.91214 -0.716544 0
M  V30 10684 H 1063.26 1.50833 -0.409759 0
M  V30 10685 H 1064 2.66786 1.8438 0
M  V30 10686 H 1063.78 3.88223 0.550016 0
M  V30 10687 H 1065.27 3.8816 1.54019 0
M  V30 10688 N 1065.71 0.390394 1.52688 0
M  V30 10689 C 1066.67 -0.432149 2.25089 0
M  V30 10690 C 1067.67 -0.989296 1.26766 0
M  V30 10691 O 1068.86 -0.871126 1.50854 0
M  V30 10692 C 1066 -1.60642 3.00678 0
M  V30 10693 H 1067.19 0.201734 2.99221 0
M  V30 10694 H 1064.74 0.142531 1.55649 0
M  V30 10695 H 1065.48 -2.2777 2.3085 0
M  V30 10696 H 1065.26 -1.21361 3.72846 0
M  V30 10697 H 1066.75 -2.18873 3.55647 0
M  V30 10698 N 1067.19 -1.57141 0.120249 0
M  V30 10699 C 1068.15 -2.14213 -0.815185 0
M  V30 10700 C 1069.15 -1.07731 -1.19376 0
M  V30 10701 O 1070.34 -1.33502 -1.11906 0
M  V30 10702 C 1067.47 -2.68339 -2.10255 0
M  V30 10703 H 1068.67 -2.98197 -0.319166 0
M  V30 10704 H 1066.22 -1.55767 -0.128997 0
M  V30 10705 H 1066.95 -1.87946 -2.64285 0
M  V30 10706 H 1066.74 -3.46216 -1.84057 0
M  V30 10707 H 1068.23 -3.124 -2.77121 0
M  V30 10708 N 1068.67 0.153526 -1.5685 0
M  V30 10709 C 1069.6 1.19162 -2.00805 0
M  V30 10710 C 1070.58 1.45172 -0.886518 0
M  V30 10711 O 1071.76 1.56203 -1.15387 0
M  V30 10712 C 1068.89 2.52637 -2.38311 0
M  V30 10713 C 1067.85 2.41161 -3.53589 0
M  V30 10714 C 1067.17 3.79287 -3.76889 0
M  V30 10715 C 1068.47 1.90122 -4.86468 0
M  V30 10716 H 1070.17 0.82617 -2.87776 0
M  V30 10717 H 1067.71 0.395972 -1.38449 0
M  V30 10718 H 1069.67 3.25478 -2.6766 0
M  V30 10719 H 1068.39 2.91005 -1.4827 0
M  V30 10720 H 1067.05 1.70772 -3.24395 0
M  V30 10721 H 1066.7 4.15079 -2.84109 0
M  V30 10722 H 1066.4 3.72472 -4.54465 0
M  V30 10723 H 1067.92 4.53687 -4.08657 0
M  V30 10724 H 1069.33 2.52752 -5.14577 0
M  V30 10725 H 1067.73 1.94214 -5.67804 0
M  V30 10726 H 1068.8 0.856517 -4.77275 0
M  V30 10727 N 1070.14 1.51827 0.422667 0
M  V30 10728 C 1071.56 1.40328 0.760275 0
M  V30 10729 C 1071.76 0.497119 1.95272 0
M  V30 10730 O 1070.82 -0.0422083 2.52465 0
M  V30 10731 C 1072.13 2.82622 1.02689 0
M  V30 10732 C 1073.68 2.91874 1.13044 0
M  V30 10733 C 1074.15 4.35107 1.4299 0
M  V30 10734 N 1075.64 4.3828 1.49883 0
M  V30 10735 C 1076.38 5.46153 1.74655 0
M  V30 10736 N 1075.87 6.64165 1.9712 0
M  V30 10737 N 1077.67 5.33651 1.76558 0
M  V30 10738 H 1069.82 2.09285 -0.362455 0
M  V30 10739 H 1072.08 0.94273 -0.0998161 0
M  V30 10740 H 1071.79 3.50991 0.223226 0
M  V30 10741 H 1071.66 3.22844 1.95068 0
M  V30 10742 H 1074.05 2.23694 1.92471 0
M  V30 10743 H 1074.13 2.55128 0.185326 0
M  V30 10744 H 1073.77 5.03841 0.640848 0
M  V30 10745 H 1073.7 4.69377 2.38731 0
M  V30 10746 H 1076.19 3.53206 1.34366 0
M  V30 10747 H 1076.51 7.42165 2.15434 0
M  V30 10748 H 1074.85 6.67255 1.94413 0
M  V30 10749 H 1078.04 4.40436 1.58536 0
M  V30 10750 H 1078.22 6.17798 1.95525 0
M  V30 10751 N 1071.62 -0.679052 1.4222 0
M  V30 10752 C 1072.87 -1.44125 1.42674 0
M  V30 10753 C 1073.2 -1.94156 0.041438 0
M  V30 10754 O 1072.48 -1.70628 -0.93361 0
M  V30 10755 C 1072.76 -2.64133 2.44756 0
M  V30 10756 C 1072.61 -2.19761 3.9246 0
M  V30 10757 C 1073.93 -3.66347 2.43881 0
M  V30 10758 H 1071.05 -0.522729 0.519541 0
M  V30 10759 H 1073.69 -0.772067 1.73606 0
M  V30 10760 H 1071.84 -3.21225 2.1851 0
M  V30 10761 H 1073.51 -1.67869 4.29671 0
M  V30 10762 H 1071.76 -1.51377 4.06531 0
M  V30 10763 H 1072.43 -3.05944 4.59459 0
M  V30 10764 H 1074.9 -3.18963 2.67211 0
M  V30 10765 H 1073.78 -4.47902 3.17293 0
M  V30 10766 H 1074.04 -4.17183 1.46325 0
M  V30 10767 N 1073.1 -1.28322 -0.914942 0
M  V30 10768 C 1074.05 -1.12146 -2.01722 0
M  V30 10769 C 1075.02 -0.0189279 -1.66089 0
M  V30 10770 O 1076.2 -0.183638 -1.89914 0
M  V30 10771 C 1073.34 -0.78808 -3.35981 0
M  V30 10772 C 1072.46 -1.96954 -3.84491 0
M  V30 10773 C 1071.59 -1.57688 -5.07255 0
M  V30 10774 C 1070.63 -2.72506 -5.48094 0
M  V30 10775 N 1069.77 -2.33741 -6.62049 0
M  V30 10776 H 1074.61 -2.06461 -2.1489 0
M  V30 10777 H 1072.14 -1.0276 -1.05256 0
M  V30 10778 H 1074.1 -0.575546 -4.13211 0
M  V30 10779 H 1072.73 0.118132 -3.22584 0
M  V30 10780 H 1071.78 -2.29423 -3.03429 0
M  V30 10781 H 1073.1 -2.8304 -4.10719 0
M  V30 10782 H 1072.25 -1.32634 -5.92025 0
M  V30 10783 H 1070.99 -0.687291 -4.82833 0
M  V30 10784 H 1069.99 -2.9826 -4.61867 0
M  V30 10785 H 1071.22 -3.62106 -5.74505 0
M  V30 10786 H 1069.16 -1.4725 -6.3926 0
M  V30 10787 H 1069.08 -3.13364 -6.87997 0
M  V30 10788 H 1070.35 -2.11968 -7.50127 0
M  V30 10789 N 1074.58 1.12322 -1.10551 0
M  V30 10790 C 1075.81 1.87679 -0.87087 0
M  V30 10791 C 1076.22 1.79711 0.578733 0
M  V30 10792 O 1075.58 1.17185 1.39907 0
M  V30 10793 C 1075.63 3.36846 -1.31213 0
M  V30 10794 O 1075.35 3.44626 -2.70489 0
M  V30 10795 C 1076.85 4.29138 -1.11156 0
M  V30 10796 H 1074.07 0.593788 -0.3125 0
M  V30 10797 H 1076.62 1.42116 -1.47048 0
M  V30 10798 H 1074.77 3.79948 -0.756169 0
M  V30 10799 H 1075.18 4.37441 -2.89389 0
M  V30 10800 H 1076.66 5.32082 -1.46944 0
M  V30 10801 H 1077.14 4.39171 -0.0502963 0
M  V30 10802 H 1077.74 3.91818 -1.65405 0
M  V30 10803 N 1076.06 0.894434 1.2976 0
M  V30 10804 C 1077.28 0.5322 2.00455 0
M  V30 10805 C 1077.71 -0.874427 1.66539 0
M  V30 10806 O 1077.06 -1.58113 0.887129 0
M  V30 10807 C 1077.11 0.725264 3.53231 0
M  V30 10808 O 1076.22 -0.224612 4.11788 0
M  V30 10809 H 1075.56 0.208562 0.630395 0
M  V30 10810 H 1078.09 1.20458 1.65382 0
M  V30 10811 H 1078.1 0.627889 4.0314 0
M  V30 10812 H 1076.77 1.75079 3.77253 0
M  V30 10813 H 1075.35 -0.0801361 3.72814 0
M  V30 10814 N 1077.53 -1.43282 0.656365 0
M  V30 10815 C 1078.46 -2.33492 -0.0196962 0
M  V30 10816 C 1079.45 -1.49647 -0.80868 0
M  V30 10817 O 1080.63 -1.78303 -0.769529 0
M  V30 10818 C 1077.76 -3.33052 -0.984574 0
M  V30 10819 C 1076.71 -4.26908 -0.305483 0
M  V30 10820 C 1076.04 -5.16531 -1.38202 0
M  V30 10821 C 1077.34 -5.16073 0.804081 0
M  V30 10822 H 1079.03 -2.90272 0.733661 0
M  V30 10823 H 1076.58 -1.39574 0.354259 0
M  V30 10824 H 1078.53 -3.9506 -1.46647 0
M  V30 10825 H 1077.26 -2.74535 -1.76913 0
M  V30 10826 H 1075.92 -3.66268 0.155995 0
M  V30 10827 H 1075.56 -4.54351 -2.1581 0
M  V30 10828 H 1075.26 -5.80148 -0.932878 0
M  V30 10829 H 1076.79 -5.81414 -1.86522 0
M  V30 10830 H 1078.2 -5.71873 0.404212 0
M  V30 10831 H 1076.6 -5.88427 1.17789 0
M  V30 10832 H 1077.67 -4.55574 1.66073 0
M  V30 10833 N 1079.01 -0.398486 -1.52479 0
M  V30 10834 C 1080.42 0.0735015 -1.86555 0
M  V30 10835 C 1080.78 1.45361 -1.31775 0
M  V30 10836 O 1079.9 2.0632 -0.652759 0
M  V30 10837 C 1080.5 0.140152 -3.3851 0
M  V30 10838 C 1079.05 0.556451 -3.72264 0
M  V30 10839 C 1078.2 -0.275792 -2.75925 0
M  V30 10840 H 1081.15 -0.615991 -1.46257 0
M  V30 10841 H 1081.17 0.957507 -3.68255 0
M  V30 10842 H 1080.69 -0.864442 -3.7835 0
M  V30 10843 H 1078.79 1.56808 -3.37997 0
M  V30 10844 H 1078.9 0.308227 -4.78107 0
M  V30 10845 H 1077.26 0.260304 -2.53366 0
M  V30 10846 H 1078.05 -1.27854 -3.18604 0
M  V30 10847 N 1080.49 1.57075 -0.12858 0
M  V30 10848 C 1081.91 1.57964 0.227961 0
M  V30 10849 C 1082.11 1.14186 1.66023 0
M  V30 10850 O 1081.16 0.833655 2.38341 0
M  V30 10851 C 1082.48 3.00697 -0.0140648 0
M  V30 10852 C 1084.02 3.12958 0.0510876 0
M  V30 10853 C 1084.5 4.57709 -0.163368 0
M  V30 10854 N 1085.99 4.6307 -0.109663 0
M  V30 10855 C 1086.73 5.72853 -0.250366 0
M  V30 10856 N 1086.22 6.91351 -0.447772 0
M  V30 10857 N 1088.01 5.61781 -0.189265 0
M  V30 10858 H 1080.17 1.83829 -1.06398 0
M  V30 10859 H 1082.43 0.850014 -0.419739 0
M  V30 10860 H 1082.13 3.37047 -1.00461 0
M  V30 10861 H 1082.01 3.70389 0.713571 0
M  V30 10862 H 1084.4 2.7646 1.03216 0
M  V30 10863 H 1084.48 2.4579 -0.708583 0
M  V30 10864 H 1084.12 4.94907 -1.14146 0
M  V30 10865 H 1084.05 5.2298 0.616405 0
M  V30 10866 H 1086.54 3.7788 0.0390086 0
M  V30 10867 H 1086.85 7.70871 -0.54574 0
M  V30 10868 H 1085.2 6.93314 -0.483866 0
M  V30 10869 H 1088.39 4.68086 -0.0359374 0
M  V30 10870 H 1088.56 6.47294 -0.302359 0
M  V30 10871 N 1081.97 -0.145205 1.5693 0
M  V30 10872 C 1082.93 -1.16316 1.97492 0
M  V30 10873 C 1083.93 -1.35764 0.861668 0
M  V30 10874 O 1085.12 -1.32726 1.12825 0
M  V30 10875 C 1082.25 -2.52311 2.29242 0
M  V30 10876 H 1083.45 -0.815138 2.8861 0
M  V30 10877 H 1081 -0.38861 1.51392 0
M  V30 10878 H 1081.74 -2.92081 1.40922 0
M  V30 10879 H 1081.52 -2.39555 3.10412 0
M  V30 10880 H 1083.01 -3.25624 2.61456 0
M  V30 10881 N 1083.45 -1.52049 -0.414609 0
M  V30 10882 C 1084.38 -1.77956 -1.51175 0
M  V30 10883 C 1085.36 -0.630282 -1.57992 0
M  V30 10884 O 1086.54 -0.875324 -1.73354 0
M  V30 10885 C 1083.67 -1.92527 -2.89051 0
M  V30 10886 C 1082.63 -3.08096 -2.97087 0
M  V30 10887 C 1081.95 -3.07882 -4.37164 0
M  V30 10888 C 1083.25 -4.47656 -2.69075 0
M  V30 10889 H 1084.95 -2.69827 -1.29746 0
M  V30 10890 H 1082.49 -1.29839 -0.62273 0
M  V30 10891 H 1084.45 -2.09234 -3.65786 0
M  V30 10892 H 1083.17 -0.973235 -3.11762 0
M  V30 10893 H 1081.83 -2.91131 -2.22797 0
M  V30 10894 H 1081.48 -2.10411 -4.56877 0
M  V30 10895 H 1081.18 -3.85501 -4.43467 0
M  V30 10896 H 1082.7 -3.26712 -5.15841 0
M  V30 10897 H 1084.12 -4.64855 -3.35534 0
M  V30 10898 H 1082.51 -5.27151 -2.8676 0
M  V30 10899 H 1083.58 -4.56129 -1.64544 0
M  V30 10900 N 1084.93 0.6715 -1.42579 0
M  V30 10901 C 1085.88 1.77767 -1.42769 0
M  V30 10902 C 1086.86 1.58106 -0.298568 0
M  V30 10903 O 1088.05 1.68528 -0.541037 0
M  V30 10904 C 1085.18 3.16248 -1.33574 0
M  V30 10905 C 1084.27 3.41521 -2.51445 0
M  V30 10906 N 1084.66 3.37361 -3.76857 0
M  V30 10907 C 1082.96 3.7217 -2.45776 0
M  V30 10908 C 1083.66 3.62209 -4.5517 0
M  V30 10909 N 1082.63 3.83134 -3.85628 0
M  V30 10910 H 1086.43 1.72949 -2.37626 0
M  V30 10911 H 1083.95 0.872467 -1.36974 0
M  V30 10912 H 1085.95 3.9552 -1.31793 0
M  V30 10913 H 1084.61 3.22261 -0.397223 0
M  V30 10914 H 1085.62 3.17187 -4.09406 0
M  V30 10915 H 1082.29 3.85408 -1.6052 0
M  V30 10916 H 1083.68 3.64925 -5.64162 0
M  V30 10917 N 1086.4 1.28806 0.908124 0
M  V30 10918 C 1087.65 1.16287 1.65781 0
M  V30 10919 C 1087.98 -0.287389 1.92365 0
M  V30 10920 O 1087.23 -1.22491 1.52625 0
M  V30 10921 C 1087.53 1.91267 3.01914 0
M  V30 10922 C 1087.2 3.41033 2.9497 0
M  V30 10923 C 1085.86 3.81879 2.92783 0
M  V30 10924 C 1088.21 4.36507 2.848 0
M  V30 10925 C 1085.54 5.16529 2.78235 0
M  V30 10926 C 1087.89 5.71237 2.71792 0
M  V30 10927 C 1086.56 6.11351 2.67967 0
M  V30 10928 H 1085.83 0.425526 0.606637 0
M  V30 10929 H 1088.47 1.59646 1.05762 0
M  V30 10930 H 1086.78 1.40474 3.65752 0
M  V30 10931 H 1088.48 1.78992 3.58835 0
M  V30 10932 H 1085.07 3.08561 2.97469 0
M  V30 10933 H 1089.25 4.05909 2.85573 0
M  V30 10934 H 1084.51 5.4673 2.73672 0
M  V30 10935 H 1088.68 6.44872 2.62892 0
M  V30 10936 H 1086.31 7.15637 2.56451 0
M  V30 10937 N 1087.88 -1.11734 1.11145 0
M  V30 10938 C 1088.81 -2.1976 0.789152 0
M  V30 10939 C 1089.79 -1.68382 -0.241143 0
M  V30 10940 O 1090.98 -1.93914 -0.105292 0
M  V30 10941 C 1088.11 -3.46549 0.228204 0
M  V30 10942 C 1087.06 -4.11123 1.19002 0
M  V30 10943 C 1086.39 -5.32451 0.489928 0
M  V30 10944 C 1087.69 -4.56406 2.53951 0
M  V30 10945 H 1089.38 -2.46978 1.69241 0
M  V30 10946 H 1086.93 -1.18705 0.81517 0
M  V30 10947 H 1088.88 -4.21399 -0.00945908 0
M  V30 10948 H 1087.6 -3.18782 -0.71033 0
M  V30 10949 H 1086.26 -3.38264 1.41326 0
M  V30 10950 H 1085.91 -5.00953 -0.453315 0
M  V30 10951 H 1085.61 -5.76605 1.1314 0
M  V30 10952 H 1087.14 -6.10042 0.260984 0
M  V30 10953 H 1088.55 -5.22592 2.35733 0
M  V30 10954 H 1086.95 -5.11363 3.14051 0
M  V30 10955 H 1088.02 -3.7001 3.13402 0
M  V30 10956 N 1089.36 -0.901303 -1.29284 0
M  V30 10957 C 1090.59 -0.543511 -1.99634 0
M  V30 10958 C 1091 0.872154 -1.67448 0
M  V30 10959 O 1090.36 1.57591 -0.920406 0
M  V30 10960 C 1090.41 -0.728148 -3.54091 0
M  V30 10961 O 1090.13 -2.08809 -3.85137 0
M  V30 10962 C 1091.63 -0.375519 -4.41707 0
M  V30 10963 H 1088.85 -0.208405 -0.637815 0
M  V30 10964 H 1091.4 -1.21109 -1.64781 0
M  V30 10965 H 1089.55 -0.107728 -3.8725 0
M  V30 10966 H 1089.97 -2.11863 -4.79807 0
M  V30 10967 H 1091.44 -0.555538 -5.49197 0
M  V30 10968 H 1091.92 0.687532 -4.33785 0
M  V30 10969 H 1092.52 -0.972949 -4.14021 0
M  V30 10970 N 1090.84 1.42931 -0.663954 0
M  V30 10971 C 1092.25 1.56098 -0.332496 0
M  V30 10972 C 1092.45 1.64564 1.16279 0
M  V30 10973 O 1091.51 1.6066 1.94794 0
M  V30 10974 C 1092.82 2.81649 -1.05329 0
M  V30 10975 C 1094.37 2.95408 -1.03457 0
M  V30 10976 C 1094.85 4.23805 -1.73647 0
M  V30 10977 N 1096.34 4.30693 -1.70462 0
M  V30 10978 C 1097.07 5.28833 -2.21637 0
M  V30 10979 N 1096.57 6.33189 -2.81147 0
M  V30 10980 N 1098.36 5.20558 -2.12075 0
M  V30 10981 H 1090.51 1.3568 -1.63416 0
M  V30 10982 H 1092.77 0.652361 -0.687844 0
M  V30 10983 H 1092.48 2.81494 -2.10842 0
M  V30 10984 H 1092.35 3.72208 -0.611626 0
M  V30 10985 H 1094.74 2.95097 0.0121936 0
M  V30 10986 H 1094.82 2.06109 -1.51502 0
M  V30 10987 H 1094.47 4.24876 -2.78285 0
M  V30 10988 H 1094.4 5.12019 -1.2306 0
M  V30 10989 H 1096.89 3.55904 -1.27046 0
M  V30 10990 H 1097.2 7.04411 -3.17844 0
M  V30 10991 H 1095.55 6.33781 -2.85212 0
M  V30 10992 H 1098.74 4.3795 -1.6528 0
M  V30 10993 H 1098.91 5.96881 -2.52264 0
M  V30 10994 N 1092.32 0.406567 1.52266 0
M  V30 10995 C 1093.56 -0.170053 2.01785 0
M  V30 10996 C 1093.89 -1.45361 1.2923 0
M  V30 10997 O 1093.15 -1.91849 0.386342 0
M  V30 10998 C 1093.44 -0.467124 3.54334 0
M  V30 10999 C 1093.11 0.72693 4.45002 0
M  V30 11000 C 1091.77 1.05446 4.69505 0
M  V30 11001 C 1094.12 1.52493 4.98393 0
M  V30 11002 C 1091.45 2.18123 5.44646 0
M  V30 11003 C 1093.8 2.64244 5.74768 0
M  V30 11004 C 1092.47 2.97486 5.97544 0
M  V30 11005 H 1091.74 -0.0622267 0.738383 0
M  V30 11006 H 1094.39 0.54746 1.83508 0
M  V30 11007 H 1092.69 -1.26617 3.70777 0
M  V30 11008 H 1094.39 -0.926194 3.90157 0
M  V30 11009 H 1090.98 0.461666 4.26106 0
M  V30 11010 H 1095.16 1.28512 4.79373 0
M  V30 11011 H 1090.42 2.44228 5.60502 0
M  V30 11012 H 1094.59 3.26468 6.15136 0
M  V30 11013 H 1092.22 3.84913 6.5555 0
M  V30 11014 N 1093.79 -1.57004 0.136909 0
M  V30 11015 C 1095.04 -1.95797 -0.516711 0
M  V30 11016 C 1095.37 -1.02123 -1.65533 0
M  V30 11017 O 1094.62 -0.0484835 -1.9564 0
M  V30 11018 C 1094.92 -3.40903 -1.07331 0
M  V30 11019 C 1094.59 -4.50867 -0.0541941 0
M  V30 11020 C 1093.25 -4.80669 0.225988 0
M  V30 11021 C 1095.6 -5.17264 0.639361 0
M  V30 11022 C 1092.93 -5.74177 1.2057 0
M  V30 11023 C 1095.28 -6.11827 1.60783 0
M  V30 11024 C 1093.95 -6.40012 1.89581 0
M  V30 11025 H 1093.22 -0.716471 -0.189078 0
M  V30 11026 H 1095.86 -1.90213 0.221605 0
M  V30 11027 H 1094.17 -3.43268 -1.88876 0
M  V30 11028 H 1095.87 -3.6824 -1.58745 0
M  V30 11029 H 1092.46 -4.27666 -0.282754 0
M  V30 11030 H 1096.64 -4.9438 0.436085 0
M  V30 11031 H 1091.9 -5.94312 1.43538 0
M  V30 11032 H 1096.07 -6.62354 2.15081 0
M  V30 11033 H 1093.7 -7.12274 2.65649 0
M  V30 11034 N 1095.27 0.136881 -1.57004 0
M  V30 11035 C 1096.2 1.17026 -2.02057 0
M  V30 11036 C 1097.18 1.44223 -0.901866 0
M  V30 11037 O 1098.37 1.54971 -1.17037 0
M  V30 11038 C 1095.5 2.50095 -2.40977 0
M  V30 11039 C 1094.45 2.37398 -3.56127 0
M  V30 11040 C 1093.78 3.75268 -3.80891 0
M  V30 11041 C 1095.08 1.84952 -4.88457 0
M  V30 11042 H 1096.77 0.795601 -2.88636 0
M  V30 11043 H 1094.32 0.381266 -1.38861 0
M  V30 11044 H 1096.27 3.22621 -2.71097 0
M  V30 11045 H 1095 2.89416 -1.51348 0
M  V30 11046 H 1093.65 1.67322 -3.26188 0
M  V30 11047 H 1093.3 4.12043 -2.88496 0
M  V30 11048 H 1093 3.67631 -4.5839 0
M  V30 11049 H 1094.53 4.49327 -4.13446 0
M  V30 11050 H 1095.94 2.4728 -5.17229 0
M  V30 11051 H 1094.34 1.88181 -5.69832 0
M  V30 11052 H 1095.41 0.805848 -4.78157 0
M  V30 11053 N 1096.75 1.52266 0.40654 0
M  V30 11054 C 1097.98 1.70598 1.17945 0
M  V30 11055 C 1098.4 0.415793 1.83447 0
M  V30 11056 O 1097.76 -0.626968 1.70114 0
M  V30 11057 C 1097.81 2.84449 2.21633 0
M  V30 11058 O 1096.91 2.50199 3.27833 0
M  V30 11059 H 1096.25 0.567837 0.344177 0
M  V30 11060 H 1098.78 1.98981 0.476211 0
M  V30 11061 H 1098.79 3.09436 2.65919 0
M  V30 11062 H 1097.47 3.78055 1.73341 0
M  V30 11063 H 1096.04 2.35892 2.88807 0
M  V30 11064 N 1098.23 -0.663929 1.42933 0
M  V30 11065 C 1099.45 -1.45691 1.47611 0
M  V30 11066 C 1099.88 -1.87875 0.0920305 0
M  V30 11067 O 1099.24 -1.56696 -0.91192 0
M  V30 11068 C 1099.28 -2.67517 2.41799 0
M  V30 11069 O 1098.39 -3.66187 1.89686 0
M  V30 11070 H 1097.73 -0.437257 0.499702 0
M  V30 11071 H 1100.26 -0.813397 1.87737 0
M  V30 11072 H 1100.27 -3.1546 2.58745 0
M  V30 11073 H 1098.94 -2.36155 3.4235 0
M  V30 11074 H 1097.52 -3.25274 1.82349 0
M  V30 11075 N 1099.71 -1.29285 -0.901281 0
M  V30 11076 C 1100.67 -1.14283 -1.98676 0
M  V30 11077 C 1101.67 -0.0787641 -1.60607 0
M  V30 11078 O 1102.86 -0.325574 -1.71131 0
M  V30 11079 C 1099.99 -0.747279 -3.32609 0
M  V30 11080 H 1101.18 -2.10701 -2.13413 0
M  V30 11081 H 1098.74 -1.12449 -1.08558 0
M  V30 11082 H 1099.47 0.217111 -3.23572 0
M  V30 11083 H 1099.26 -1.51608 -3.61604 0
M  V30 11084 H 1100.75 -0.665322 -4.12266 0
M  V30 11085 N 1101.18 1.11143 -1.11736 0
M  V30 11086 C 1102.6 1.34962 -0.851905 0
M  V30 11087 C 1102.8 1.94627 0.521797 0
M  V30 11088 O 1101.86 2.18121 1.27198 0
M  V30 11089 C 1103.17 2.27832 -1.96248 0
M  V30 11090 C 1104.72 2.41388 -1.9925 0
M  V30 11091 C 1105.19 3.37582 -3.09519 0
M  V30 11092 N 1106.68 3.45147 -3.08914 0
M  V30 11093 C 1107.42 4.19527 -3.90876 0
M  V30 11094 N 1106.91 4.96858 -4.82809 0
M  V30 11095 N 1108.71 4.15071 -3.79042 0
M  V30 11096 H 1100.86 0.707801 -2.0026 0
M  V30 11097 H 1103.12 0.374172 -0.871033 0
M  V30 11098 H 1102.83 1.91189 -2.95194 0
M  V30 11099 H 1102.7 3.28078 -1.86132 0
M  V30 11100 H 1105.09 2.77304 -1.00928 0
M  V30 11101 H 1105.17 1.40983 -2.13442 0
M  V30 11102 H 1104.81 3.02393 -4.0807 0
M  V30 11103 H 1104.74 4.37849 -2.92568 0
M  V30 11104 H 1107.23 2.89991 -2.42309 0
M  V30 11105 H 1107.55 5.5099 -5.41876 0
M  V30 11106 H 1105.89 4.96008 -4.86828 0
M  V30 11107 H 1109.08 3.53748 -3.06562 0
M  V30 11108 H 1109.26 4.72781 -4.4315 0
M  V30 11109 N 1102.66 0.908147 1.28804 0
M  V30 11110 C 1103.59 0.34957 2.26519 0
M  V30 11111 C 1104.61 -0.508845 1.54643 0
M  V30 11112 O 1105.8 -0.324633 1.75523 0
M  V30 11113 C 1102.9 -0.519461 3.34895 0
M  V30 11114 C 1102.07 0.315157 4.36263 0
M  V30 11115 C 1101.13 -0.488059 5.23932 0
M  V30 11116 O 1100.15 0.0974133 5.69117 0
M  V30 11117 N 1101.36 -1.79233 5.52137 0
M  V30 11118 H 1104.12 1.18945 2.75086 0
M  V30 11119 H 1101.68 0.77351 1.42227 0
M  V30 11120 H 1103.67 -1.0634 3.90479 0
M  V30 11121 H 1102.24 -1.26004 2.8608 0
M  V30 11122 H 1101.46 1.04049 3.8022 0
M  V30 11123 H 1102.75 0.886438 5.01019 0
M  V30 11124 H 1102.15 -2.2906 5.1725 0
M  V30 11125 H 1100.71 -2.28322 6.10502 0
M  V30 11126 N 1104.14 -1.42577 0.671525 0
M  V30 11127 C 1105.1 -2.292 0.000392482 0
M  V30 11128 C 1106.1 -1.43158 -0.732294 0
M  V30 11129 O 1107.29 -1.64583 -0.570789 0
M  V30 11130 C 1104.43 -3.25591 -1.01013 0
M  V30 11131 H 1105.62 -2.90037 0.762783 0
M  V30 11132 H 1103.17 -1.50162 0.433703 0
M  V30 11133 H 1103.91 -2.69685 -1.80112 0
M  V30 11134 H 1103.69 -3.89049 -0.488183 0
M  V30 11135 H 1105.18 -3.90561 -1.47824 0
M  V30 11136 N 1105.62 -0.414636 -1.52048 0
M  V30 11137 C 1106.86 0.158807 -2.03782 0
M  V30 11138 C 1107.22 1.41912 -1.29325 0
M  V30 11139 O 1108.42 2.07136 -1.71313 0
M  V30 11140 C 1106.69 0.395092 -3.55209 0
M  V30 11141 S 1108.25 0.935193 -4.28719 0
M  V30 11142 H 1105.07 0.0424729 -0.70973 0
M  V30 11143 H 1107.67 -0.568822 -1.87042 0
M  V30 11144 H 1106.38 -0.528875 -4.06978 0
M  V30 11145 H 1105.91 1.15044 -3.76203 0
M  V30 11146 H 1107.92 2.21519 -4.44009 0
M  V30 11147 N 1107.1 1.56929 -0.145233 0
M  V30 11148 C 1108.03 2.19685 0.791263 0
M  V30 11149 C 1109.01 1.14455 1.25833 0
M  V30 11150 O 1110.19 1.42791 1.31622 0
M  V30 11151 C 1107.32 2.81705 2.03124 0
M  V30 11152 C 1106.28 3.92746 1.70101 0
M  V30 11153 C 1105.6 4.41694 3.01347 0
M  V30 11154 C 1106.9 5.13606 0.949025 0
M  V30 11155 H 1108.6 2.98196 0.26825 0
M  V30 11156 H 1106.14 1.43434 0.127584 0
M  V30 11157 H 1108.1 3.24273 2.69119 0
M  V30 11158 H 1106.82 2.00523 2.57795 0
M  V30 11159 H 1105.48 3.50794 1.06486 0
M  V30 11160 H 1105.13 3.57336 3.54006 0
M  V30 11161 H 1104.83 5.1659 2.80016 0
M  V30 11162 H 1106.35 4.86931 3.68416 0
M  V30 11163 H 1107.76 5.53029 1.51102 0
M  V30 11164 H 1106.16 5.94252 0.835711 0
M  V30 11165 H 1107.23 4.84863 -0.0595631 0
M  V30 11166 N 1108.58 -0.128553 1.57075 0
M  V30 11167 C 1109.54 -1.14215 1.98715 0
M  V30 11168 C 1110.54 -1.34843 0.876019 0
M  V30 11169 O 1111.73 -1.31522 1.14227 0
M  V30 11170 C 1108.86 -2.49865 2.31905 0
M  V30 11171 H 1110.05 -0.784481 2.89458 0
M  V30 11172 H 1107.61 -0.372531 1.51796 0
M  V30 11173 H 1108.34 -2.9057 1.44012 0
M  V30 11174 H 1108.13 -2.3625 3.12935 0
M  V30 11175 H 1109.62 -3.22832 2.64895 0
M  V30 11176 N 1110.05 -1.5248 -0.398459 0
M  V30 11177 C 1110.99 -1.72826 -1.50545 0
M  V30 11178 C 1112 -0.608683 -1.50993 0
M  V30 11179 O 1113.19 -0.88413 -1.55066 0
M  V30 11180 C 1110.29 -1.76327 -2.89417 0
M  V30 11181 C 1109.46 -3.05491 -3.1304 0
M  V30 11182 C 1108.52 -3.00663 -4.31843 0
M  V30 11183 O 1107.55 -3.74548 -4.28605 0
M  V30 11184 N 1108.75 -2.19191 -5.37527 0
M  V30 11185 H 1111.51 -2.68333 -1.33482 0
M  V30 11186 H 1109.07 -1.5085 -0.587875 0
M  V30 11187 H 1111.07 -1.70616 -3.66977 0
M  V30 11188 H 1109.64 -0.882476 -2.99885 0
M  V30 11189 H 1108.86 -3.24767 -2.23428 0
M  V30 11190 H 1110.14 -3.90915 -3.25673 0
M  V30 11191 H 1109.54 -1.58613 -5.43009 0
M  V30 11192 H 1108.1 -2.19328 -6.1379 0
M  V30 11193 N 1111.53 0.65634 -1.43283 0
M  V30 11194 C 1112.76 1.44906 -1.48382 0
M  V30 11195 C 1113.18 1.87823 -0.101993 0
M  V30 11196 O 1112.54 1.57178 0.903597 0
M  V30 11197 C 1112.59 2.66231 -2.43215 0
M  V30 11198 O 1111.69 3.65176 -1.91625 0
M  V30 11199 H 1111.03 0.434601 -0.502014 0
M  V30 11200 H 1113.56 0.803429 -1.88165 0
M  V30 11201 H 1113.57 3.14083 -2.60414 0
M  V30 11202 H 1112.25 2.34336 -3.43598 0
M  V30 11203 H 1110.82 3.24302 -1.84072 0
M  V30 11204 N 1113.01 1.29761 0.894412 0
M  V30 11205 C 1114.26 1.17806 1.64214 0
M  V30 11206 C 1114.58 -0.269588 1.93127 0
M  V30 11207 O 1113.85 -1.18352 1.56107 0
M  V30 11208 H 1112.43 0.433002 0.608702 0
M  V30 11209 H 1115.09 1.6276 1.07216 0
M  V30 11210 H 1114.19 1.73201 2.5963 0
M  V30 11211 N 1114.49 -1.10549 1.12324 0
M  V30 11212 C 1115.71 -1.8681 0.900927 0
M  V30 11213 C 1116.14 -1.80049 -0.54443 0
M  V30 11214 O 1115.5 -1.16957 -1.38531 0
M  V30 11215 C 1115.54 -3.33197 1.37883 0
M  V30 11216 O 1114.65 -4.08628 0.556529 0
M  V30 11217 H 1113.99 -0.579709 0.32378 0
M  V30 11218 H 1116.52 -1.39678 1.49503 0
M  V30 11219 H 1116.53 -3.84047 1.37739 0
M  V30 11220 H 1115.2 -3.37435 2.43127 0
M  V30 11221 H 1113.78 -3.67627 0.62486 0
M  V30 11222 N 1115.97 -0.914965 -1.28321 0
M  V30 11223 C 1117.21 -0.549562 -1.95212 0
M  V30 11224 C 1117.54 0.904658 -1.71842 0
M  V30 11225 O 1116.82 1.64354 -1.04009 0
M  V30 11226 C 1117.1 -0.860927 -3.49657 0
M  V30 11227 C 1116.96 -2.36797 -3.82423 0
M  V30 11228 C 1118.27 -0.357926 -4.38642 0
M  V30 11229 H 1115.39 -0.201136 -0.709023 0
M  V30 11230 H 1118.04 -1.14443 -1.51667 0
M  V30 11231 H 1116.19 -0.354665 -3.86878 0
M  V30 11232 H 1117.86 -2.94494 -3.55065 0
M  V30 11233 H 1116.1 -2.82245 -3.29424 0
M  V30 11234 H 1116.77 -2.53637 -4.90278 0
M  V30 11235 H 1119.25 -0.791636 -4.085 0
M  V30 11236 H 1118.12 -0.604855 -5.45557 0
M  V30 11237 H 1118.38 0.741775 -4.35833 0
M  V30 11238 N 1117.44 1.42219 -0.679077 0
M  V30 11239 C 1118.85 1.8459 -0.279877 0
M  V30 11240 C 1119.21 1.56839 1.17881 0
M  V30 11241 O 1118.33 1.03039 1.90294 0
M  V30 11242 C 1118.93 3.35072 -0.501185 0
M  V30 11243 C 1117.48 3.76076 -0.156065 0
M  V30 11244 C 1116.63 2.65763 -0.791549 0
M  V30 11245 H 1119.58 1.32005 -0.880932 0
M  V30 11246 H 1119.6 3.79708 0.245349 0
M  V30 11247 H 1119.12 3.55239 -1.56291 0
M  V30 11248 H 1117.22 3.61516 0.90205 0
M  V30 11249 H 1117.33 4.75334 -0.599572 0
M  V30 11250 H 1115.69 2.53726 -0.222514 0
M  V30 11251 H 1116.48 2.88751 -1.85682 0
M  V30 11252 N 1118.92 0.422693 1.51826 0
M  V30 11253 C 1120.33 -0.0438129 1.86649 0
M  V30 11254 C 1120.68 -1.43246 1.34071 0
M  V30 11255 O 1119.81 -2.05256 0.685501 0
M  V30 11256 C 1120.4 -0.0862802 3.3869 0
M  V30 11257 C 1118.96 -0.497157 3.73102 0
M  V30 11258 C 1118.11 0.319655 2.75451 0
M  V30 11259 H 1121.06 0.639181 1.45259 0
M  V30 11260 H 1121.08 -0.8988 3.69732 0
M  V30 11261 H 1120.59 0.924525 3.76927 0
M  V30 11262 H 1118.69 -1.51411 3.40449 0
M  V30 11263 H 1118.81 -0.232125 4.78537 0
M  V30 11264 H 1117.17 -0.219963 2.53748 0
M  V30 11265 H 1117.95 1.32906 3.16529 0
M  V30 11266 N 1120.4 -1.5685 0.153553 0
M  V30 11267 C 1121.36 -2.15894 -0.769564 0
M  V30 11268 C 1122.36 -1.10239 -1.17064 0
M  V30 11269 O 1123.55 -1.35845 -1.09049 0
M  V30 11270 C 1120.68 -2.72738 -2.04516 0
M  V30 11271 H 1121.88 -2.98807 -0.255842 0
M  V30 11272 H 1119.43 -1.56005 -0.0959279 0
M  V30 11273 H 1120.17 -1.9351 -2.60239 0
M  V30 11274 H 1119.95 -3.50042 -1.76672 0
M  V30 11275 H 1121.44 -3.18208 -2.70432 0
M  V30 11276 N 1121.88 0.120221 -1.57141 0
M  V30 11277 C 1122.81 1.17787 -1.95452 0
M  V30 11278 C 1123.79 1.40174 -0.824016 0
M  V30 11279 O 1124.97 1.54348 -1.08208 0
M  V30 11280 C 1122.1 2.53193 -2.24969 0
M  V30 11281 C 1121.15 2.47241 -3.47526 0
M  V30 11282 S 1121.98 1.91325 -5.00155 0
M  V30 11283 C 1123.13 3.28406 -5.32823 0
M  V30 11284 H 1123.37 0.851152 -2.84856 0
M  V30 11285 H 1120.9 0.326929 -1.50899 0
M  V30 11286 H 1122.86 3.31104 -2.42652 0
M  V30 11287 H 1121.52 2.83043 -1.36181 0
M  V30 11288 H 1120.71 3.46981 -3.65541 0
M  V30 11289 H 1120.31 1.7745 -3.29223 0
M  V30 11290 H 1122.61 4.24613 -5.2793 0
M  V30 11291 H 1123.55 3.1522 -6.34068 0
M  V30 11292 H 1123.96 3.26779 -4.603 0
M  V30 11293 N 1123.36 1.52689 0.390367 0
M  V30 11294 C 1124.29 1.73622 1.49626 0
M  V30 11295 C 1125.3 0.616682 1.50668 0
M  V30 11296 O 1126.49 0.892341 1.54595 0
M  V30 11297 C 1123.59 1.77859 2.88477 0
M  V30 11298 C 1122.76 3.07146 3.11416 0
M  V30 11299 C 1121.82 3.02949 4.30242 0
M  V30 11300 O 1120.85 3.76816 4.26613 0
M  V30 11301 N 1122.05 2.22039 5.36357 0
M  V30 11302 H 1124.82 2.69037 1.32057 0
M  V30 11303 H 1122.38 1.51159 0.579867 0
M  V30 11304 H 1124.37 1.72559 3.66067 0
M  V30 11305 H 1122.94 0.898367 2.99413 0
M  V30 11306 H 1122.16 3.25947 2.21703 0
M  V30 11307 H 1123.45 3.92637 3.23595 0
M  V30 11308 H 1122.84 1.6149 5.4216 0
M  V30 11309 H 1121.4 2.2258 6.12619 0
M  V30 11310 N 1124.83 -0.648732 1.43629 0
M  V30 11311 C 1126.08 -1.40898 1.46695 0
M  V30 11312 C 1126.44 -1.92183 0.0914565 0
M  V30 11313 O 1125.73 -1.69642 -0.890623 0
M  V30 11314 C 1125.92 -2.60394 2.44806 0
M  V30 11315 C 1125.75 -2.20805 3.91759 0
M  V30 11316 C 1124.52 -2.08918 4.60088 0
M  V30 11317 C 1126.72 -1.80811 4.81469 0
M  V30 11318 N 1124.7 -1.62707 5.91946 0
M  V30 11319 C 1126.07 -1.45715 6.02633 0
M  V30 11320 C 1128.13 -1.68034 4.68689 0
M  V30 11321 C 1126.83 -0.991224 7.12438 0
M  V30 11322 C 1128.86 -1.22846 5.78501 0
M  V30 11323 C 1128.22 -0.886902 6.98794 0
M  V30 11324 H 1124.32 -0.511063 0.591894 0
M  V30 11325 H 1126.9 -0.746064 1.79839 0
M  V30 11326 H 1125.07 -3.24338 2.13681 0
M  V30 11327 H 1126.8 -3.27115 2.38281 0
M  V30 11328 H 1123.56 -2.28818 4.14656 0
M  V30 11329 H 1123.98 -1.41951 6.61951 0
M  V30 11330 H 1128.63 -1.93078 3.76139 0
M  V30 11331 H 1126.34 -0.728271 8.04812 0
M  V30 11332 H 1129.93 -1.13443 5.70633 0
M  V30 11333 H 1128.81 -0.542577 7.82321 0
M  V30 11334 N 1126.31 -1.30234 -0.887518 0
M  V30 11335 C 1127.24 -1.18969 -2.00919 0
M  V30 11336 C 1128.22 -0.080952 -1.69907 0
M  V30 11337 O 1129.41 -0.262546 -1.92417 0
M  V30 11338 C 1126.54 -0.878094 -3.36016 0
M  V30 11339 C 1125.49 -1.94449 -3.81279 0
M  V30 11340 C 1124.82 -1.48594 -5.13638 0
M  V30 11341 C 1126.12 -3.35519 -4.00281 0
M  V30 11342 H 1127.81 -2.12808 -2.10602 0
M  V30 11343 H 1125.36 -1.02454 -1.01189 0
M  V30 11344 H 1127.31 -0.785954 -4.14006 0
M  V30 11345 H 1126.04 0.0959779 -3.26459 0
M  V30 11346 H 1124.69 -2.02622 -3.05516 0
M  V30 11347 H 1124.34 -0.500204 -5.00507 0
M  V30 11348 H 1124.04 -2.19921 -5.44893 0
M  V30 11349 H 1125.57 -1.40754 -5.94156 0
M  V30 11350 H 1126.98 -3.30119 -4.68716 0
M  V30 11351 H 1125.38 -4.0491 -4.42909 0
M  V30 11352 H 1126.45 -3.77597 -3.04218 0
M  V30 11353 N 1127.79 1.09952 -1.12909 0
M  V30 11354 C 1129.03 1.83635 -0.897646 0
M  V30 11355 C 1129.39 1.83462 0.566179 0
M  V30 11356 O 1130.6 2.52748 0.914977 0
M  V30 11357 C 1128.87 3.26095 -1.46277 0
M  V30 11358 S 1130.43 4.16846 -1.37059 0
M  V30 11359 H 1127.24 0.633045 -0.32369 0
M  V30 11360 H 1129.85 1.32275 -1.43957 0
M  V30 11361 H 1128.55 3.23793 -2.52163 0
M  V30 11362 H 1128.08 3.82526 -0.918549 0
M  V30 11363 H 1130.1 4.94996 -0.345399 0
M  V30 11364 N 1129.27 0.921757 1.27833 0
M  V30 11365 C 1130.22 0.387357 2.24685 0
M  V30 11366 C 1131.2 -0.505036 1.52768 0
M  V30 11367 O 1132.39 -0.34345 1.73636 0
M  V30 11368 C 1129.52 -0.364168 3.41363 0
M  V30 11369 C 1128.61 0.544401 4.20591 0
M  V30 11370 N 1129 1.66158 4.77729 0
M  V30 11371 C 1127.3 0.346289 4.44654 0
M  V30 11372 C 1128 2.22619 5.37416 0
M  V30 11373 N 1126.98 1.51648 5.22019 0
M  V30 11374 H 1130.78 1.24045 2.6644 0
M  V30 11375 H 1128.29 0.775338 1.42696 0
M  V30 11376 H 1130.29 -0.763917 4.09841 0
M  V30 11377 H 1128.95 -1.21426 3.01141 0
M  V30 11378 H 1129.96 2.04406 4.75856 0
M  V30 11379 H 1126.64 -0.46363 4.14918 0
M  V30 11380 H 1128.03 3.16641 5.92611 0
M  V30 11381 N 1130.75 -1.41857 0.686609 0
M  V30 11382 C 1132.16 -1.84439 0.289662 0
M  V30 11383 C 1132.51 -1.57462 -1.17047 0
M  V30 11384 O 1131.63 -1.04046 -1.89745 0
M  V30 11385 C 1132.23 -3.34802 0.518948 0
M  V30 11386 C 1130.79 -3.75988 0.176007 0
M  V30 11387 C 1129.93 -2.65339 0.805632 0
M  V30 11388 H 1132.89 -1.31536 0.88792 0
M  V30 11389 H 1132.91 -3.79833 -0.225209 0
M  V30 11390 H 1132.42 -3.54405 1.58173 0
M  V30 11391 H 1130.52 -3.61989 -0.882865 0
M  V30 11392 H 1130.63 -4.75009 0.624772 0
M  V30 11393 H 1129 -2.53605 0.235966 0
M  V30 11394 H 1129.78 -2.87762 1.8721 0
M  V30 11395 N 1132.22 -0.430739 -1.51599 0
M  V30 11396 C 1133.47 0.138133 -2.02329 0
M  V30 11397 C 1133.8 1.42934 -1.31466 0
M  V30 11398 O 1133.08 1.89743 -0.427551 0
M  V30 11399 C 1133.36 0.363677 -3.58259 0
M  V30 11400 C 1133.21 -0.94572 -4.39746 0
M  V30 11401 C 1134.53 1.13637 -4.25176 0
M  V30 11402 H 1131.65 0.0487287 -0.735387 0
M  V30 11403 H 1134.29 -0.568444 -1.81297 0
M  V30 11404 H 1132.44 0.965552 -3.7631 0
M  V30 11405 H 1134.12 -1.58107 -4.33359 0
M  V30 11406 H 1132.36 -1.55183 -4.05094 0
M  V30 11407 H 1133.03 -0.742031 -5.4699 0
M  V30 11408 H 1135.51 0.626608 -4.11355 0
M  V30 11409 H 1134.38 1.26294 -5.34173 0
M  V30 11410 H 1134.64 2.16273 -3.85588 0
M  V30 11411 N 1133.7 1.56767 -0.161869 0
M  V30 11412 C 1134.95 1.96206 0.484537 0
M  V30 11413 C 1135.27 1.04848 1.64414 0
M  V30 11414 O 1134.54 0.112946 1.95574 0
M  V30 11415 H 1133.12 0.724491 0.181994 0
M  V30 11416 H 1135.78 1.93406 -0.240845 0
M  V30 11417 H 1134.88 3.00279 0.85083 0
M  V30 11418 N 1135.18 -0.111886 1.57202 0
M  V30 11419 C 1136.13 -1.14287 1.97288 0
M  V30 11420 C 1137.11 -1.36686 0.848868 0
M  V30 11421 O 1138.31 -1.37659 1.11261 0
M  V30 11422 C 1135.44 -2.46759 2.38673 0
M  V30 11423 C 1134.52 -2.27805 3.57723 0
M  V30 11424 N 1134.91 -1.78679 4.73189 0
M  V30 11425 C 1133.21 -2.58435 3.63494 0
M  V30 11426 C 1133.91 -1.736 5.55192 0
M  V30 11427 N 1132.89 -2.18205 4.97883 0
M  V30 11428 H 1136.69 -0.755711 2.84018 0
M  V30 11429 H 1134.2 -0.31954 1.59225 0
M  V30 11430 H 1136.2 -3.21335 2.65611 0
M  V30 11431 H 1134.86 -2.86227 1.53311 0
M  V30 11432 H 1135.87 -1.48121 4.96267 0
M  V30 11433 H 1132.55 -3.0154 2.88755 0
M  V30 11434 H 1133.94 -1.36812 6.57824 0
M  V30 11435 N 1136.66 -1.52894 -0.382264 0
M  V30 11436 C 1138.07 -1.42295 -0.722802 0
M  V30 11437 C 1138.27 -0.548717 -1.93885 0
M  V30 11438 O 1137.33 -0.0247431 -2.52488 0
M  V30 11439 C 1138.64 -2.85246 -0.9516 0
M  V30 11440 C 1140.19 -2.94768 -1.05265 0
M  V30 11441 C 1140.67 -4.38745 -1.31404 0
M  V30 11442 N 1142.16 -4.421 -1.38211 0
M  V30 11443 C 1142.89 -5.50592 -1.60113 0
M  V30 11444 N 1142.39 -6.69158 -1.79442 0
M  V30 11445 N 1144.18 -5.38145 -1.62347 0
M  V30 11446 H 1136.33 -2.0825 0.417816 0
M  V30 11447 H 1138.6 -0.939753 0.124776 0
M  V30 11448 H 1138.3 -3.51459 -0.130088 0
M  V30 11449 H 1138.18 -3.27903 -1.86439 0
M  V30 11450 H 1140.56 -2.28718 -1.86472 0
M  V30 11451 H 1140.64 -2.55529 -0.117619 0
M  V30 11452 H 1140.29 -5.05363 -0.507038 0
M  V30 11453 H 1140.22 -4.75542 -2.26202 0
M  V30 11454 H 1142.71 -3.56644 -1.24954 0
M  V30 11455 H 1143.02 -7.47615 -1.95681 0
M  V30 11456 H 1141.37 -6.72175 -1.76653 0
M  V30 11457 H 1144.56 -4.44485 -1.46803 0
M  V30 11458 H 1144.73 -6.22764 -1.79077 0
M  V30 11459 N 1138.14 0.641106 -1.43971 0
M  V30 11460 C 1139.38 1.40084 -1.46228 0
M  V30 11461 C 1139.71 1.94287 -0.0911011 0
M  V30 11462 O 1138.97 1.73481 0.905688 0
M  V30 11463 C 1139.27 2.59092 -2.46183 0
M  V30 11464 C 1138.93 2.23237 -3.9176 0
M  V30 11465 C 1137.59 2.13171 -4.31407 0
M  V30 11466 C 1139.95 1.94746 -4.83449 0
M  V30 11467 C 1137.27 1.72788 -5.60679 0
M  V30 11468 C 1139.63 1.55858 -6.13099 0
M  V30 11469 C 1138.29 1.44326 -6.5171 0
M  V30 11470 H 1137.56 0.512603 -0.535088 0
M  V30 11471 H 1140.21 0.727956 -1.77124 0
M  V30 11472 H 1138.51 3.31568 -2.08734 0
M  V30 11473 H 1140.21 3.17313 -2.4518 0
M  V30 11474 H 1136.8 2.31986 -3.60389 0
M  V30 11475 H 1140.98 2.01438 -4.53582 0
M  V30 11476 H 1136.24 1.62455 -5.89422 0
M  V30 11477 H 1140.41 1.32848 -6.83611 0
M  V30 11478 H 1138.04 1.12806 -7.51784 0
M  V30 11479 N 1139.62 1.30703 0.880598 0
M  V30 11480 C 1140.86 1.19778 1.63277 0
M  V30 11481 C 1141.19 -0.246521 1.92931 0
M  V30 11482 O 1140.45 -1.19226 1.55189 0
M  V30 11483 C 1140.74 1.97628 2.97789 0
M  V30 11484 C 1140.41 3.47213 2.87669 0
M  V30 11485 C 1139.07 3.88004 2.84617 0
M  V30 11486 C 1141.42 4.4245 2.75477 0
M  V30 11487 C 1138.75 5.22315 2.67216 0
M  V30 11488 C 1141.1 5.76874 2.59614 0
M  V30 11489 C 1139.77 6.16898 2.54939 0
M  V30 11490 H 1139.04 0.438298 0.597475 0
M  V30 11491 H 1141.69 1.61853 1.02352 0
M  V30 11492 H 1139.99 1.48201 3.6269 0
M  V30 11493 H 1141.69 1.86563 3.54958 0
M  V30 11494 H 1138.28 3.14802 2.90857 0
M  V30 11495 H 1142.46 4.11875 2.76899 0
M  V30 11496 H 1137.72 5.52412 2.62014 0
M  V30 11497 H 1141.89 6.50304 2.49155 0
M  V30 11498 H 1139.52 7.20916 2.41214 0
M  V30 11499 N 1141.09 -1.09351 1.1349 0
M  V30 11500 C 1142.34 -1.81812 0.898452 0
M  V30 11501 C 1142.67 -1.85525 -0.573959 0
M  V30 11502 O 1141.95 -1.32403 -1.42477 0
M  V30 11503 C 1142.23 -3.27921 1.48794 0
M  V30 11504 C 1142.08 -3.32476 3.02952 0
M  V30 11505 C 1143.4 -4.24625 1.15678 0
M  V30 11506 H 1140.52 -0.660074 0.327829 0
M  V30 11507 H 1143.16 -1.28091 1.40331 0
M  V30 11508 H 1141.31 -3.738 1.05858 0
M  V30 11509 H 1142.99 -2.94994 3.54649 0
M  V30 11510 H 1141.23 -2.72037 3.37903 0
M  V30 11511 H 1141.9 -4.35409 3.39298 0
M  V30 11512 H 1144.38 -3.87036 1.52781 0
M  V30 11513 H 1143.25 -5.25194 1.59571 0
M  V30 11514 H 1143.51 -4.42044 0.0705933 0
M  V30 11515 N 1142.57 -0.928524 -1.27343 0
M  V30 11516 C 1143.85 -0.487758 -1.89421 0
M  V30 11517 C 1144.23 1.03418 -1.84032 0
M  V30 11518 O 1143.58 1.8887 -1.2861 0
M  V30 11519 C 1143.79 -1.03478 -3.33307 0
M  V30 11520 C 1145.13 -1.09577 -4.10217 0
M  V30 11521 O 1146.16 -0.984463 -3.42326 0
M  V30 11522 O 1145.02 -1.2673 -5.31603 0
M  V30 11523 H 1142.11 -0.157018 -0.811957 0
M  V30 11524 H 1144.66 -1.02027 -1.35605 0
M  V30 11525 H 1143.43 -2.07861 -3.31526 0
M  V30 11526 H 1143.05 -0.483967 -3.94644 0
M  V30 11527 N 1144.05 1.41491 -0.694123 0
M  V30 11528 C 1145.3 2.00854 -0.224033 0
M  V30 11529 C 1145.62 1.55246 1.17999 0
M  V30 11530 O 1144.89 0.782452 1.79595 0
M  V30 11531 H 1143.47 0.742721 -0.0798368 0
M  V30 11532 H 1146.13 1.73137 -0.894958 0
M  V30 11533 H 1145.23 3.11173 -0.240332 0
M  V30 11534 N 1145.53 0.438773 1.51369 0
M  V30 11535 C 1146.8 -0.18722 1.94702 0
M  V30 11536 C 1147.18 -1.59962 1.37752 0
M  V30 11537 O 1146.53 -2.214 0.565171 0
M  V30 11538 C 1146.74 -0.163491 3.48617 0
M  V30 11539 C 1148.09 -0.368355 4.22999 0
M  V30 11540 O 1149.11 -0.241541 3.5538 0
M  V30 11541 O 1147.97 -0.620916 5.42961 0
M  V30 11542 H 1145.07 -0.129194 0.816846 0
M  V30 11543 H 1147.61 0.496855 1.62263 0
M  V30 11544 H 1146.39 0.823882 3.82528 0
M  V30 11545 H 1146.01 -0.890414 3.87501 0
M  V30 11546 N 1147.01 -1.56678 0.170181 0
M  V30 11547 C 1148.25 -1.97913 -0.469262 0
M  V30 11548 C 1148.61 -1.05438 -1.60936 0
M  V30 11549 O 1147.9 -0.0938273 -1.9137 0
M  V30 11550 C 1148.09 -3.43103 -1.00076 0
M  V30 11551 C 1147.92 -4.49617 0.0863088 0
M  V30 11552 C 1146.69 -5.02454 0.535589 0
M  V30 11553 C 1148.89 -5.06606 0.886289 0
M  V30 11554 N 1146.87 -5.926 1.60308 0
M  V30 11555 C 1148.24 -5.93182 1.80374 0
M  V30 11556 C 1150.3 -4.89109 0.931495 0
M  V30 11557 C 1149 -6.64134 2.76257 0
M  V30 11558 C 1151.03 -5.60781 1.87827 0
M  V30 11559 C 1150.39 -6.47084 2.78319 0
M  V30 11560 H 1146.49 -0.769393 -0.139852 0
M  V30 11561 H 1149.07 -1.92817 0.270136 0
M  V30 11562 H 1147.24 -3.48747 -1.70968 0
M  V30 11563 H 1148.98 -3.71351 -1.60874 0
M  V30 11564 H 1145.73 -4.73412 0.133508 0
M  V30 11565 H 1146.15 -6.42378 2.13729 0
M  V30 11566 H 1150.8 -4.22084 0.245904 0
M  V30 11567 H 1148.51 -7.30373 3.45805 0
M  V30 11568 H 1152.1 -5.49229 1.91934 0
M  V30 11569 H 1150.98 -7.01569 3.50386 0
M  V30 11570 N 1148.48 0.103547 -1.57259 0
M  V30 11571 C 1149.71 0.82624 -1.90232 0
M  V30 11572 C 1150.13 1.71902 -0.763641 0
M  V30 11573 O 1149.49 1.79043 0.285181 0
M  V30 11574 C 1149.54 1.62265 -3.22029 0
M  V30 11575 O 1148.64 2.73091 -3.09023 0
M  V30 11576 H 1147.98 0.227528 -0.6238 0
M  V30 11577 H 1150.51 0.081307 -2.04438 0
M  V30 11578 H 1150.52 2.00865 -3.5513 0
M  V30 11579 H 1149.2 0.967383 -4.04493 0
M  V30 11580 H 1147.78 2.3758 -2.8742 0
M  V30 11581 N 1149.96 1.53094 0.37415 0
M  V30 11582 C 1151.21 1.69111 1.11934 0
M  V30 11583 C 1151.54 0.437252 1.89213 0
M  V30 11584 O 1150.82 -0.565298 1.86104 0
M  V30 11585 C 1151.1 2.93559 2.08554 0
M  V30 11586 C 1150.95 4.29082 1.3494 0
M  V30 11587 C 1152.27 3.13586 3.08791 0
M  V30 11588 H 1149.39 0.615383 0.405553 0
M  V30 11589 H 1152.03 1.85719 0.401078 0
M  V30 11590 H 1150.18 2.79531 2.69805 0
M  V30 11591 H 1151.85 4.54906 0.765402 0
M  V30 11592 H 1150.1 4.28884 0.651238 0
M  V30 11593 H 1150.77 5.12275 2.05616 0
M  V30 11594 H 1153.24 3.26743 2.57639 0
M  V30 11595 H 1152.12 4.02112 3.73627 0
M  V30 11596 H 1152.38 2.28475 3.78486 0
M  V30 11597 N 1151.44 -0.633461 1.44309 0
M  V30 11598 C 1152.37 -1.75676 1.53819 0
M  V30 11599 C 1153.35 -1.65537 0.391365 0
M  V30 11600 O 1154.54 -1.84332 0.611181 0
M  V30 11601 C 1151.67 -3.14197 1.47979 0
M  V30 11602 C 1150.62 -3.39122 2.61113 0
M  V30 11603 C 1149.95 -4.77648 2.40325 0
M  V30 11604 C 1151.25 -3.31914 4.03274 0
M  V30 11605 H 1152.94 -1.67974 2.47841 0
M  V30 11606 H 1150.49 -0.8067 1.19283 0
M  V30 11607 H 1152.44 -3.92553 1.53233 0
M  V30 11608 H 1151.16 -3.22677 0.504718 0
M  V30 11609 H 1149.82 -2.63145 2.55245 0
M  V30 11610 H 1149.47 -4.82829 1.41016 0
M  V30 11611 H 1149.17 -4.95284 3.16177 0
M  V30 11612 H 1150.69 -5.58237 2.47394 0
M  V30 11613 H 1152.11 -4.00178 4.10524 0
M  V30 11614 H 1150.5 -3.61085 4.7931 0
M  V30 11615 H 1151.57 -2.29761 4.2701 0
M  V30 11616 N 1152.92 -1.31168 -0.873655 0
M  V30 11617 C 1154.14 -1.23728 -1.66452 0
M  V30 11618 C 1154.57 0.194869 -1.87088 0
M  V30 11619 O 1153.93 1.1397 -1.40998 0
M  V30 11620 C 1153.97 -1.98285 -3.0119 0
M  V30 11621 O 1153.08 -1.31767 -3.90783 0
M  V30 11622 H 1152.42 -0.427362 -0.508191 0
M  V30 11623 H 1154.95 -1.73176 -1.08955 0
M  V30 11624 H 1154.96 -2.0774 -3.51153 0
M  V30 11625 H 1153.63 -3.02437 -2.8549 0
M  V30 11626 H 1152.21 -1.3074 -3.4923 0
M  V30 11627 N 1154.4 1.08748 -1.14068 0
M  V30 11628 C 1155.62 1.84814 -0.930138 0
M  V30 11629 C 1156.04 1.81461 0.521267 0
M  V30 11630 O 1155.4 1.21577 1.36108 0
M  V30 11631 C 1155.45 3.32501 -1.41863 0
M  V30 11632 O 1155.17 3.35846 -2.81317 0
M  V30 11633 C 1156.67 4.25384 -1.24753 0
M  V30 11634 H 1153.89 0.583546 -0.331233 0
M  V30 11635 H 1156.43 1.37366 -1.51495 0
M  V30 11636 H 1154.59 3.7735 -0.876664 0
M  V30 11637 H 1155 4.28013 -3.03159 0
M  V30 11638 H 1156.48 5.27138 -1.63798 0
M  V30 11639 H 1156.95 4.38789 -0.18999 0
M  V30 11640 H 1157.56 3.86357 -1.77787 0
M  V30 11641 N 1155.87 0.935264 1.26849 0
M  V30 11642 C 1157.29 0.623198 1.75992 0
M  V30 11643 C 1157.64 -0.861647 1.76267 0
M  V30 11644 O 1156.76 -1.6743 1.37099 0
M  V30 11645 C 1157.36 1.12451 3.19594 0
M  V30 11646 C 1155.92 0.862974 3.66374 0
M  V30 11647 C 1155.06 1.27886 2.4605 0
M  V30 11648 H 1158.01 1.11422 1.13008 0
M  V30 11649 H 1158.03 0.475626 3.77516 0
M  V30 11650 H 1157.55 2.20522 3.19361 0
M  V30 11651 H 1155.65 -0.203606 3.72043 0
M  V30 11652 H 1155.76 1.48582 4.55478 0
M  V30 11653 H 1154.12 0.697335 2.44968 0
M  V30 11654 H 1154.91 2.36837 2.48522 0
M  V30 11655 N 1157.35 -1.41121 0.701616 0
M  V30 11656 C 1158.6 -2.01928 0.244271 0
M  V30 11657 C 1158.95 -1.54597 -1.14532 0
M  V30 11658 O 1158.25 -0.749972 -1.76312 0
M  V30 11659 C 1158.44 -3.5654 0.247781 0
M  V30 11660 C 1158.27 -4.18879 1.63618 0
M  V30 11661 C 1157.04 -4.52913 2.24048 0
M  V30 11662 C 1159.24 -4.44679 2.5839 0
M  V30 11663 N 1157.22 -5.00571 3.55389 0
M  V30 11664 C 1158.59 -4.94178 3.74418 0
M  V30 11665 C 1160.65 -4.26698 2.56579 0
M  V30 11666 C 1159.35 -5.27584 4.88924 0
M  V30 11667 C 1161.37 -4.61198 3.70203 0
M  V30 11668 C 1160.74 -5.10873 4.84962 0
M  V30 11669 H 1156.84 -0.770275 0.134908 0
M  V30 11670 H 1159.42 -1.71571 0.920402 0
M  V30 11671 H 1157.59 -3.86357 -0.39786 0
M  V30 11672 H 1159.32 -4.04074 -0.224961 0
M  V30 11673 H 1156.08 -4.39572 1.76277 0
M  V30 11674 H 1156.5 -5.28799 4.2273 0
M  V30 11675 H 1161.14 -3.87525 1.69069 0
M  V30 11676 H 1158.86 -5.65678 5.77091 0
M  V30 11677 H 1162.45 -4.48939 3.70061 0
M  V30 11678 H 1161.33 -5.37067 5.71426 0
M  V30 11679 N 1158.83 -0.446794 -1.51134 0
M  V30 11680 C 1159.74 0.36579 -2.31731 0
M  V30 11681 C 1160.76 1.01886 -1.41051 0
M  V30 11682 O 1161.93 1.01216 -1.74119 0
M  V30 11683 C 1159 1.44705 -3.15058 0
M  V30 11684 C 1158.06 0.813129 -4.21529 0
M  V30 11685 C 1157.29 1.84287 -5.00873 0
M  V30 11686 O 1157.51 3.06633 -4.8097 0
M  V30 11687 O 1156.45 1.42816 -5.84711 0
M  V30 11688 H 1160.27 -0.292436 -3.02289 0
M  V30 11689 H 1157.86 -0.209129 -1.47929 0
M  V30 11690 H 1159.74 2.07393 -3.66833 0
M  V30 11691 H 1158.42 2.08919 -2.47254 0
M  V30 11692 H 1157.32 0.147953 -3.73807 0
M  V30 11693 H 1158.66 0.214331 -4.91733 0
M  V30 11694 N 1160.31 1.56586 -0.178487 0
M  V30 11695 C 1161.53 2.01915 0.473841 0
M  V30 11696 C 1161.96 1.05789 1.55533 0
M  V30 11697 O 1161.32 0.0386018 1.81259 0
M  V30 11698 C 1161.36 3.45799 1.02251 0
M  V30 11699 O 1160.47 3.52761 2.1362 0
M  V30 11700 H 1159.81 0.654372 0.112666 0
M  V30 11701 H 1162.34 2.02613 -0.284486 0
M  V30 11702 H 1162.35 3.85252 1.34332 0
M  V30 11703 H 1161.02 4.1526 0.230719 0
M  V30 11704 H 1159.6 3.25172 1.8253 0
M  V30 11705 N 1161.79 -0.095206 1.57312 0
M  V30 11706 C 1162.72 -1.11627 2.05089 0
M  V30 11707 C 1163.7 -1.41782 0.939787 0
M  V30 11708 O 1164.88 -1.51813 1.21105 0
M  V30 11709 C 1162.01 -2.43618 2.47523 0
M  V30 11710 C 1160.97 -2.27872 3.62296 0
M  V30 11711 C 1160.29 -3.65038 3.90706 0
M  V30 11712 C 1161.59 -1.71936 4.93189 0
M  V30 11713 H 1163.29 -0.718795 2.90644 0
M  V30 11714 H 1160.83 -0.344315 1.39823 0
M  V30 11715 H 1162.79 -3.1532 2.79556 0
M  V30 11716 H 1161.51 -2.85301 1.58968 0
M  V30 11717 H 1160.17 -1.58615 3.3051 0
M  V30 11718 H 1159.82 -4.04249 2.99319 0
M  V30 11719 H 1159.52 -3.55349 4.67976 0
M  V30 11720 H 1161.04 -4.38208 4.25213 0
M  V30 11721 H 1162.45 -2.33479 5.23603 0
M  V30 11722 H 1160.85 -1.73006 5.74621 0
M  V30 11723 H 1161.92 -0.678789 4.80125 0
M  V30 11724 N 1163.26 -1.53291 -0.366026 0
M  V30 11725 C 1164.49 -1.73108 -1.1277 0
M  V30 11726 C 1164.9 -0.459662 -1.83531 0
M  V30 11727 O 1164.25 0.577151 -1.74398 0
M  V30 11728 C 1164.31 -2.84137 -2.20242 0
M  V30 11729 C 1163.97 -4.24503 -1.69252 0
M  V30 11730 C 1164.97 -5.06866 -1.15684 0
M  V30 11731 C 1162.65 -4.70912 -1.74778 0
M  V30 11732 C 1164.65 -6.33728 -0.683191 0
M  V30 11733 C 1162.33 -5.97752 -1.27025 0
M  V30 11734 C 1163.33 -6.78992 -0.738858 0
M  V30 11735 O 1163.02 -8.03452 -0.268375 0
M  V30 11736 H 1162.75 -0.582439 -0.343134 0
M  V30 11737 H 1165.31 -2.00828 -0.430969 0
M  V30 11738 H 1163.54 -2.5189 -2.93408 0
M  V30 11739 H 1165.23 -2.92136 -2.818 0
M  V30 11740 H 1165.99 -4.72185 -1.10753 0
M  V30 11741 H 1161.87 -4.07751 -2.15081 0
M  V30 11742 H 1165.41 -6.97086 -0.267746 0
M  V30 11743 H 1161.31 -6.31933 -1.31649 0
M  V30 11744 H 1162.08 -8.17581 -0.387745 0
M  V30 11745 N 1164.74 0.6258 -1.44643 0
M  V30 11746 C 1165.97 1.41726 -1.51422 0
M  V30 11747 C 1166.39 1.87565 -0.14181 0
M  V30 11748 O 1165.75 1.59059 0.870054 0
M  V30 11749 C 1165.8 2.61012 -2.48807 0
M  V30 11750 O 1164.9 3.61029 -1.99328 0
M  V30 11751 H 1164.24 0.423855 -0.511119 0
M  V30 11752 H 1166.77 0.763336 -1.89827 0
M  V30 11753 H 1166.78 3.08489 -2.67018 0
M  V30 11754 H 1165.46 2.26995 -3.48491 0
M  V30 11755 H 1164.04 3.20325 -1.90909 0
M  V30 11756 N 1166.22 1.31629 0.866686 0
M  V30 11757 C 1167.15 1.22151 1.99001 0
M  V30 11758 C 1168.13 0.107972 1.69757 0
M  V30 11759 O 1169.32 0.293125 1.91975 0
M  V30 11760 C 1166.45 0.93144 3.34577 0
M  V30 11761 C 1165.4 2.0049 3.78137 0
M  V30 11762 C 1164.73 1.56747 5.11209 0
M  V30 11763 C 1166.03 3.41844 3.94892 0
M  V30 11764 H 1167.72 2.16132 2.0719 0
M  V30 11765 H 1165.27 1.04051 0.995463 0
M  V30 11766 H 1167.22 0.851719 4.12703 0
M  V30 11767 H 1165.94 -0.0440289 3.2657 0
M  V30 11768 H 1164.6 2.07457 3.02253 0
M  V30 11769 H 1164.25 0.579767 4.99648 0
M  V30 11770 H 1163.95 2.28562 5.41326 0
M  V30 11771 H 1165.47 1.50188 5.91841 0
M  V30 11772 H 1166.89 3.37534 4.63405 0
M  V30 11773 H 1165.29 4.11905 4.36411 0
M  V30 11774 H 1166.36 3.82389 2.98172 0
M  V30 11775 N 1167.7 -1.08142 1.14644 0
M  V30 11776 C 1168.66 -2.13308 0.83859 0
M  V30 11777 C 1169.66 -1.60022 -0.158012 0
M  V30 11778 O 1170.85 -1.74057 0.0706621 0
M  V30 11779 C 1167.98 -3.39978 0.250591 0
M  V30 11780 H 1169.18 -2.42049 1.77066 0
M  V30 11781 H 1166.73 -1.23899 0.952828 0
M  V30 11782 H 1167.47 -3.16873 -0.690064 0
M  V30 11783 H 1167.25 -3.79952 0.968456 0
M  V30 11784 H 1168.74 -4.17567 0.0525115 0
M  V30 11785 N 1169.18 -0.941978 -1.26351 0
M  V30 11786 C 1170.43 -0.588806 -1.93333 0
M  V30 11787 C 1170.75 0.875067 -1.74263 0
M  V30 11788 O 1170.02 1.62187 -1.09873 0
M  V30 11789 H 1168.6 -0.214774 -0.715459 0
M  V30 11790 H 1171.26 -1.19747 -1.53774 0
M  V30 11791 H 1170.35 -0.807267 -3.01479 0
M  V30 11792 N 1170.66 1.40747 -0.709091 0
M  V30 11793 C 1171.6 2.32564 -0.0411392 0
M  V30 11794 C 1172.6 1.51692 0.75404 0
M  V30 11795 O 1173.8 1.67537 0.658139 0
M  V30 11796 H 1170.18 0.75198 0.00549889 0
M  V30 11797 H 1172.15 2.86556 -0.83235 0
M  V30 11798 C 1170.9 3.36604 0.871378 0
M  V30 11799 H 1170.22 3.98895 0.268912 0
M  V30 11800 H 1171.66 4.03359 1.30682 0
M  V30 11801 C 1170.12 2.71566 1.99384 0
M  V30 11802 O 1170.65 2.57392 3.08403 0
M  V30 11803 N 1168.86 2.3005 1.77554 0
M  V30 11804 H 1168.4 2.41778 0.888898 0
M  V30 11805 H 1168.36 1.8687 2.52838 0
M  V30 11806 N 1172.13 0.454803 1.50895 0
M  V30 11807 C 1173.54 -0.00421212 1.867 0
M  V30 11808 C 1173.9 -1.4037 1.3708 0
M  V30 11809 O 1173.02 -2.03755 0.728884 0
M  V30 11810 C 1173.62 -0.0144196 3.38797 0
M  V30 11811 C 1172.17 -0.417905 3.74073 0
M  V30 11812 C 1171.32 0.37801 2.74711 0
M  V30 11813 H 1174.27 0.669849 1.4387 0
M  V30 11814 H 1174.29 -0.820172 3.71555 0
M  V30 11815 H 1173.81 1.00427 3.74881 0
M  V30 11816 H 1171.91 -1.44155 3.43584 0
M  V30 11817 H 1172.02 -0.130568 4.78922 0
M  V30 11818 H 1170.38 -0.166089 2.54158 0
M  V30 11819 H 1171.17 1.3959 3.13639 0
M  V30 11820 N 1173.61 -1.56489 0.186789 0
M  V30 11821 C 1174.86 -1.97634 -0.454831 0
M  V30 11822 C 1175.19 -1.07334 -1.61843 0
M  V30 11823 O 1174.47 -0.123612 -1.94107 0
M  V30 11824 C 1174.75 -3.48071 -0.922962 0
M  V30 11825 C 1174.6 -4.49149 0.241877 0
M  V30 11826 C 1175.92 -4.01994 -1.79134 0
M  V30 11827 H 1173.04 -0.718555 -0.163854 0
M  V30 11828 H 1175.68 -1.87984 0.27604 0
M  V30 11829 H 1173.83 -3.56425 -1.54575 0
M  V30 11830 H 1175.5 -4.52841 0.87936 0
M  V30 11831 H 1173.75 -4.24468 0.894964 0
M  V30 11832 H 1174.42 -5.51851 -0.128051 0
M  V30 11833 H 1176.89 -3.96367 -1.26618 0
M  V30 11834 H 1175.77 -5.07641 -2.08787 0
M  V30 11835 H 1176.03 -3.46747 -2.74261 0
M  V30 11836 N 1175.09 0.086862 -1.5736 0
M  V30 11837 C 1176.37 0.820984 -1.77537 0
M  V30 11838 C 1176.75 1.96534 -0.770554 0
M  V30 11839 O 1176.09 2.27629 0.199334 0
M  V30 11840 C 1176.3 1.30793 -3.23565 0
M  V30 11841 C 1177.65 1.7474 -3.86977 0
M  V30 11842 O 1178.68 1.40396 -3.27364 0
M  V30 11843 O 1177.54 2.38271 -4.91822 0
M  V30 11844 H 1174.63 0.392228 -0.72807 0
M  V30 11845 H 1177.18 0.0681051 -1.69563 0
M  V30 11846 H 1175.95 0.488409 -3.8824 0
M  V30 11847 H 1175.57 2.12258 -3.36203 0
M  V30 11848 N 1176.57 1.53483 0.357892 0
M  V30 11849 C 1177.98 1.61641 0.934289 0
M  V30 11850 C 1178.33 0.488655 1.90017 0
M  V30 11851 O 1177.45 -0.38378 2.1297 0
M  V30 11852 C 1178.05 2.92987 1.7013 0
M  V30 11853 C 1176.61 3.03456 2.22692 0
M  V30 11854 C 1175.76 2.56992 1.04165 0
M  V30 11855 H 1178.71 1.58112 0.136452 0
M  V30 11856 H 1178.73 2.81221 2.5631 0
M  V30 11857 H 1178.24 3.75047 0.998056 0
M  V30 11858 H 1176.34 2.25999 2.96235 0
M  V30 11859 H 1176.45 4.08673 2.50046 0
M  V30 11860 H 1174.82 2.12052 1.41088 0
M  V30 11861 H 1175.6 3.41477 0.353272 0
M  V30 11862 N 1178.05 -0.61812 1.44973 0
M  V30 11863 C 1178.98 -1.74035 1.55673 0
M  V30 11864 C 1179.96 -1.65112 0.4089 0
M  V30 11865 O 1181.14 -1.83673 0.630698 0
M  V30 11866 C 1178.27 -3.1261 1.51303 0
M  V30 11867 C 1177.23 -3.36334 2.64696 0
M  V30 11868 C 1176.55 -4.75072 2.45378 0
M  V30 11869 C 1177.85 -3.27618 4.06772 0
M  V30 11870 H 1179.55 -1.65336 2.49608 0
M  V30 11871 H 1177.09 -0.794003 1.20132 0
M  V30 11872 H 1179.04 -3.90906 1.57388 0
M  V30 11873 H 1177.77 -3.22123 0.538914 0
M  V30 11874 H 1176.43 -2.60423 2.58022 0
M  V30 11875 H 1176.08 -4.81306 1.46129 0
M  V30 11876 H 1175.78 -4.91903 3.21412 0
M  V30 11877 H 1177.3 -5.55582 2.53301 0
M  V30 11878 H 1178.71 -3.95802 4.14746 0
M  V30 11879 H 1177.11 -3.55981 4.83113 0
M  V30 11880 H 1178.18 -2.25219 4.29423 0
M  V30 11881 N 1179.52 -1.32087 -0.859693 0
M  V30 11882 C 1180.49 -1.20546 -1.94939 0
M  V30 11883 C 1181.49 -0.12982 -1.60275 0
M  V30 11884 O 1182.68 -0.379853 -1.70008 0
M  V30 11885 C 1179.81 -0.852717 -3.30063 0
M  V30 11886 H 1181 -2.17384 -2.06602 0
M  V30 11887 H 1178.55 -1.15846 -1.04926 0
M  V30 11888 H 1179.29 0.114059 -3.24099 0
M  V30 11889 H 1179.07 -1.63035 -3.56598 0
M  V30 11890 H 1180.56 -0.796145 -4.09941 0
M  V30 11891 N 1181 1.07532 -1.15215 0
M  V30 11892 C 1181.93 2.14598 -0.805006 0
M  V30 11893 C 1182.95 1.61778 0.182152 0
M  V30 11894 O 1184.14 1.78453 -0.040834 0
M  V30 11895 C 1181.24 3.38444 -0.175736 0
M  V30 11896 C 1180.41 4.20621 -1.19986 0
M  V30 11897 C 1179.47 5.22851 -0.592705 0
M  V30 11898 O 1178.49 5.55121 -1.25815 0
M  V30 11899 N 1179.7 5.7711 0.626425 0
M  V30 11900 H 1182.46 2.44981 -1.7264 0
M  V30 11901 H 1180.02 1.23423 -1.04778 0
M  V30 11902 H 1182.01 4.03969 0.243166 0
M  V30 11903 H 1180.58 3.0579 0.64896 0
M  V30 11904 H 1179.8 3.50941 -1.79539 0
M  V30 11905 H 1181.09 4.72339 -1.89139 0
M  V30 11906 H 1180.49 5.53139 1.18546 0
M  V30 11907 H 1179.05 6.44273 0.98771 0
M  V30 11908 N 1182.48 0.948665 1.2585 0
M  V30 11909 C 1183.73 0.601125 1.93686 0
M  V30 11910 C 1184.06 -0.858779 1.7418 0
M  V30 11911 O 1183.33 -1.61539 1.0833 0
M  V30 11912 C 1183.62 0.95333 3.47252 0
M  V30 11913 C 1183.47 2.46853 3.7601 0
M  V30 11914 C 1184.79 0.474098 4.37539 0
M  V30 11915 H 1181.91 0.219864 0.703441 0
M  V30 11916 H 1184.55 1.18424 1.48579 0
M  V30 11917 H 1182.7 0.457114 3.85801 0
M  V30 11918 H 1184.37 3.03804 3.47132 0
M  V30 11919 H 1182.62 2.9088 3.21825 0
M  V30 11920 H 1183.29 2.66547 4.83381 0
M  V30 11921 H 1185.76 0.899664 4.06258 0
M  V30 11922 H 1184.64 0.749287 5.43762 0
M  V30 11923 H 1184.9 -0.625961 4.37646 0
M  V30 11924 N 1183.96 -1.40369 0.716545 0
M  V30 11925 C 1185.19 -2.05181 0.266143 0
M  V30 11926 C 1185.6 -1.53988 -1.09239 0
M  V30 11927 O 1184.96 -0.696859 -1.68672 0
M  V30 11928 C 1185.01 -3.60713 0.238384 0
M  V30 11929 O 1184.73 -4.10018 1.54328 0
M  V30 11930 C 1186.23 -4.42701 -0.230453 0
M  V30 11931 H 1183.45 -0.66028 0.119463 0
M  V30 11932 H 1186 -1.7976 0.97502 0
M  V30 11933 H 1184.15 -3.85101 -0.421466 0
M  V30 11934 H 1184.56 -5.0422 1.4444 0
M  V30 11935 H 1186.04 -5.51642 -0.198728 0
M  V30 11936 H 1186.52 -4.20354 -1.27276 0
M  V30 11937 H 1187.12 -4.23423 0.399155 0
M  V30 11938 N 1185.44 -0.462799 -1.50652 0
M  V30 11939 C 1186.37 0.371837 -2.26164 0
M  V30 11940 C 1187.38 0.96432 -1.31167 0
M  V30 11941 O 1188.57 0.854134 -1.56738 0
M  V30 11942 C 1185.67 1.53469 -3.0216 0
M  V30 11943 C 1184.84 1.0565 -4.24449 0
M  V30 11944 C 1183.9 2.09243 -4.82808 0
M  V30 11945 O 1182.93 1.67641 -5.43953 0
M  V30 11946 N 1184.13 3.41976 -4.69076 0
M  V30 11947 H 1186.9 -0.275476 -2.98431 0
M  V30 11948 H 1184.46 -0.293109 -1.59225 0
M  V30 11949 H 1186.45 2.22446 -3.38083 0
M  V30 11950 H 1185.02 2.08685 -2.32743 0
M  V30 11951 H 1184.24 0.192895 -3.93728 0
M  V30 11952 H 1185.53 0.714796 -5.03754 0
M  V30 11953 H 1184.92 3.78491 -4.20429 0
M  V30 11954 H 1183.48 4.06775 -5.09291 0
M  V30 11955 N 1186.91 1.56388 -0.195085 0
M  V30 11956 C 1187.84 2.22091 0.720971 0
M  V30 11957 C 1188.83 1.184 1.22128 0
M  V30 11958 O 1190.01 1.46907 1.27012 0
M  V30 11959 C 1187.14 2.88025 1.94059 0
M  V30 11960 C 1186.09 3.97959 1.5752 0
M  V30 11961 C 1185.42 4.51058 2.87143 0
M  V30 11962 C 1186.72 5.16365 0.785145 0
M  V30 11963 H 1188.41 2.98898 0.173245 0
M  V30 11964 H 1185.96 1.43767 0.0818868 0
M  V30 11965 H 1187.91 3.32671 2.58666 0
M  V30 11966 H 1186.64 2.08623 2.51285 0
M  V30 11967 H 1185.3 3.54004 0.952715 0
M  V30 11968 H 1184.94 3.68418 3.42458 0
M  V30 11969 H 1184.64 5.25237 2.63439 0
M  V30 11970 H 1186.17 4.98406 3.52738 0
M  V30 11971 H 1187.58 5.57556 1.33431 0
M  V30 11972 H 1185.98 5.9661 0.646231 0
M  V30 11973 H 1187.05 4.84428 -0.213789 0
M  V30 11974 N 1188.39 -0.0785156 1.57404 0
M  V30 11975 C 1189.64 -0.778938 1.86919 0
M  V30 11976 C 1189.97 -1.77915 0.785906 0
M  V30 11977 O 1189.22 -1.94473 -0.218811 0
M  V30 11978 C 1189.52 -1.52826 3.23078 0
M  V30 11979 C 1189.19 -0.668645 4.45915 0
M  V30 11980 C 1187.85 -0.43173 4.79259 0
M  V30 11981 C 1190.2 -0.0721327 5.2115 0
M  V30 11982 C 1187.53 0.41129 5.85257 0
M  V30 11983 C 1189.88 0.758303 6.28039 0
M  V30 11984 C 1188.55 1.00515 6.59889 0
M  V30 11985 H 1187.82 -0.285034 0.683986 0
M  V30 11986 H 1190.46 -0.039906 1.91458 0
M  V30 11987 H 1188.77 -2.33931 3.14299 0
M  V30 11988 H 1190.46 -2.07488 3.43147 0
M  V30 11989 H 1187.05 -0.863424 4.19813 0
M  V30 11990 H 1191.24 -0.242297 4.95708 0
M  V30 11991 H 1186.49 0.611354 6.08336 0
M  V30 11992 H 1190.67 1.2273 6.855 0
M  V30 11993 H 1188.3 1.66017 7.41851 0
M  V30 11994 N 1189.87 -1.5367 -0.349747 0
M  V30 11995 C 1191.29 -1.43796 -0.692457 0
M  V30 11996 C 1191.49 -0.58972 -1.92677 0
M  V30 11997 O 1190.54 -0.078294 -2.52379 0
M  V30 11998 C 1191.86 -2.872 -0.890881 0
M  V30 11999 C 1193.4 -2.96935 -0.989892 0
M  V30 12000 C 1193.88 -4.41433 -1.22068 0
M  V30 12001 N 1195.37 -4.44932 -1.28802 0
M  V30 12002 C 1196.1 -5.53864 -1.48398 0
M  V30 12003 N 1195.6 -6.72814 -1.65208 0
M  V30 12004 N 1197.39 -5.41467 -1.50896 0
M  V30 12005 H 1189.54 -2.07317 0.461895 0
M  V30 12006 H 1191.81 -0.936895 0.144681 0
M  V30 12007 H 1191.51 -3.51656 -0.0555095 0
M  V30 12008 H 1191.39 -3.31784 -1.79442 0
M  V30 12009 H 1193.77 -2.32622 -1.81579 0
M  V30 12010 H 1193.86 -2.55721 -0.0633906 0
M  V30 12011 H 1193.5 -5.06325 -0.399729 0
M  V30 12012 H 1193.43 -4.80233 -2.16064 0
M  V30 12013 H 1195.92 -3.59214 -1.17361 0
M  V30 12014 H 1196.23 -7.51598 -1.79779 0
M  V30 12015 H 1194.58 -6.7577 -1.62356 0
M  V30 12016 H 1197.77 -4.47498 -1.37342 0
M  V30 12017 H 1197.94 -6.26423 -1.65826 0
M  V30 12018 N 1191.35 0.610423 -1.45298 0
M  V30 12019 C 1192.26 1.74964 -1.56285 0
M  V30 12020 C 1193.27 1.68149 -0.447436 0
M  V30 12021 O 1194.45 1.88556 -0.707725 0
M  V30 12022 C 1191.52 3.11417 -1.52383 0
M  V30 12023 C 1190.58 3.29707 -2.7494 0
M  V30 12024 C 1189.81 4.5965 -2.71215 0
M  V30 12025 O 1190.03 5.41789 -1.78383 0
M  V30 12026 O 1188.97 4.80591 -3.62375 0
M  V30 12027 H 1192.79 1.68646 -2.52571 0
M  V30 12028 H 1190.38 0.774168 -1.27777 0
M  V30 12029 H 1192.26 3.9272 -1.52805 0
M  V30 12030 H 1190.93 3.18232 -0.592472 0
M  V30 12031 H 1189.84 2.48003 -2.80081 0
M  V30 12032 H 1191.17 3.27766 -3.67192 0
M  V30 12033 N 1192.83 1.32541 0.852676 0
M  V30 12034 C 1193.78 1.18224 1.94954 0
M  V30 12035 C 1194.76 0.0886514 1.60656 0
M  V30 12036 O 1195.95 0.315359 1.74168 0
M  V30 12037 C 1193.08 0.909484 3.31034 0
M  V30 12038 C 1192.17 2.04486 3.71546 0
M  V30 12039 N 1192.56 3.29362 3.83868 0
M  V30 12040 C 1190.86 1.94848 4.01186 0
M  V30 12041 C 1191.56 4.0374 4.18771 0
M  V30 12042 N 1190.53 3.32054 4.30396 0
M  V30 12043 H 1194.34 2.12893 2.02617 0
M  V30 12044 H 1191.85 1.24349 1.04456 0
M  V30 12045 H 1193.85 0.787865 4.09388 0
M  V30 12046 H 1192.51 -0.0288163 3.24687 0
M  V30 12047 H 1193.52 3.64274 3.68137 0
M  V30 12048 H 1190.19 1.08591 4.0313 0
M  V30 12049 H 1191.58 5.11434 4.35757 0
M  V30 12050 N 1194.3 -1.0692 1.15784 0
M  V30 12051 C 1195.23 -2.16216 0.881649 0
M  V30 12052 C 1196.22 -1.69253 -0.16951 0
M  V30 12053 O 1197.4 -1.94186 -0.0229511 0
M  V30 12054 C 1194.53 -3.4527 0.374982 0
M  V30 12055 C 1193.48 -4.05706 1.36332 0
M  V30 12056 C 1192.81 -5.29894 0.715317 0
M  V30 12057 C 1194.11 -4.45224 2.7308 0
M  V30 12058 H 1195.8 -2.39577 1.79563 0
M  V30 12059 H 1193.35 -1.15141 0.864784 0
M  V30 12060 H 1195.3 -4.2106 0.169279 0
M  V30 12061 H 1194.03 -3.21508 -0.574485 0
M  V30 12062 H 1192.69 -3.31965 1.55546 0
M  V30 12063 H 1192.33 -5.02425 -0.240436 0
M  V30 12064 H 1192.03 -5.71287 1.37494 0
M  V30 12065 H 1193.56 -6.08386 0.519489 0
M  V30 12066 H 1194.97 -5.12124 2.57686 0
M  V30 12067 H 1193.37 -4.97583 3.35457 0
M  V30 12068 H 1194.44 -3.56384 3.28813 0
M  V30 12069 N 1195.78 -0.955326 -1.25345 0
M  V30 12070 C 1196.71 -0.494145 -2.28211 0
M  V30 12071 C 1197.69 0.459875 -1.63766 0
M  V30 12072 O 1198.88 0.358679 -1.90859 0
M  V30 12073 C 1196.01 0.228228 -3.46549 0
M  V30 12074 C 1194.96 -0.640601 -4.23179 0
M  V30 12075 C 1194.29 0.212553 -5.34277 0
M  V30 12076 C 1195.59 -1.91906 -4.85767 0
M  V30 12077 H 1197.28 -1.35391 -2.67039 0
M  V30 12078 H 1194.83 -0.652462 -1.2837 0
M  V30 12079 H 1196.78 0.561995 -4.17636 0
M  V30 12080 H 1195.51 1.12224 -3.06714 0
M  V30 12081 H 1194.16 -0.957462 -3.53876 0
M  V30 12082 H 1193.81 1.10634 -4.90682 0
M  V30 12083 H 1193.51 -0.365473 -5.86462 0
M  V30 12084 H 1195.04 0.541271 -6.08196 0
M  V30 12085 H 1196.45 -1.65165 -5.48993 0
M  V30 12086 H 1194.85 -2.44279 -5.48131 0
M  V30 12087 H 1195.92 -2.62173 -4.07914 0
M  V30 12088 N 1197.26 1.39987 -0.723979 0
M  V30 12089 C 1198.17 2.3447 -0.0780936 0
M  V30 12090 C 1199.19 1.57744 0.734368 0
M  V30 12091 O 1200.36 1.90091 0.665385 0
M  V30 12092 C 1197.43 3.36705 0.826492 0
M  V30 12093 C 1196.49 4.293 0.00303036 0
M  V30 12094 C 1195.72 5.26651 0.864535 0
M  V30 12095 O 1195.95 5.30194 2.10357 0
M  V30 12096 O 1194.88 6.01157 0.299057 0
M  V30 12097 H 1198.71 2.91338 -0.857646 0
M  V30 12098 H 1196.29 1.41324 -0.484536 0
M  V30 12099 H 1198.17 3.9938 1.34439 0
M  V30 12100 H 1196.85 2.82237 1.58505 0
M  V30 12101 H 1195.75 3.69883 -0.560136 0
M  V30 12102 H 1197.09 4.86942 -0.717494 0
M  V30 12103 N 1198.74 0.470782 1.50404 0
M  V30 12104 C 1200.16 0.124919 1.5911 0
M  V30 12105 C 1200.36 -1.36855 1.47895 0
M  V30 12106 O 1199.41 -2.1418 1.33728 0
M  V30 12107 C 1200.72 0.674839 2.9303 0
M  V30 12108 C 1202.27 0.638239 3.06424 0
M  V30 12109 C 1202.75 1.1657 4.42917 0
M  V30 12110 N 1204.24 1.1251 4.49328 0
M  V30 12111 C 1204.97 1.50373 5.53331 0
M  V30 12112 N 1204.47 1.95684 6.6459 0
M  V30 12113 N 1206.26 1.41978 5.43874 0
M  V30 12114 H 1198.41 1.44212 1.55938 0
M  V30 12115 H 1200.68 0.596354 0.73693 0
M  V30 12116 H 1200.38 1.72106 3.06712 0
M  V30 12117 H 1200.26 0.118234 3.77015 0
M  V30 12118 H 1202.64 -0.399075 2.92389 0
M  V30 12119 H 1202.72 1.23164 2.24197 0
M  V30 12120 H 1202.37 2.20164 4.57701 0
M  V30 12121 H 1202.3 0.548513 5.23736 0
M  V30 12122 H 1204.79 0.79276 3.69491 0
M  V30 12123 H 1205.1 2.22724 7.40009 0
M  V30 12124 H 1203.45 1.99636 6.65711 0
M  V30 12125 H 1206.64 1.0642 4.55842 0
M  V30 12126 H 1206.81 1.71812 6.24808 0
M  V30 12127 N 1200.22 -1.56282 0.203376 0
M  V30 12128 C 1201.18 -2.18233 -0.700489 0
M  V30 12129 C 1202.18 -1.13908 -1.13497 0
M  V30 12130 O 1203.37 -1.39246 -1.04672 0
M  V30 12131 C 1200.5 -2.79107 -1.95735 0
M  V30 12132 H 1201.7 -2.99469 -0.160649 0
M  V30 12133 H 1199.25 -1.56232 -0.0462475 0
M  V30 12134 H 1199.98 -2.01691 -2.53951 0
M  V30 12135 H 1199.77 -3.55486 -1.65446 0
M  V30 12136 H 1201.26 -3.2665 -2.60172 0
M  V30 12137 N 1201.7 0.070167 -1.57444 0
M  V30 12138 C 1202.63 1.08351 -2.06839 0
M  V30 12139 C 1203.61 1.40269 -0.962224 0
M  V30 12140 O 1204.79 1.49867 -1.23505 0
M  V30 12141 C 1201.92 2.39649 -2.51368 0
M  V30 12142 C 1200.88 2.22079 -3.65875 0
M  V30 12143 C 1200.2 3.58776 -3.96464 0
M  V30 12144 C 1201.5 1.64069 -4.95862 0
M  V30 12145 H 1203.2 0.672465 -2.9175 0
M  V30 12146 H 1200.74 0.322027 -1.40353 0
M  V30 12147 H 1202.69 3.10833 -2.84537 0
M  V30 12148 H 1201.42 2.82736 -1.63487 0
M  V30 12149 H 1200.08 1.53337 -3.32992 0
M  V30 12150 H 1199.73 3.99436 -3.05712 0
M  V30 12151 H 1199.43 3.47859 -4.7357 0
M  V30 12152 H 1200.95 4.31387 -4.32131 0
M  V30 12153 H 1202.36 2.2512 -5.27251 0
M  V30 12154 H 1200.76 1.63843 -5.773 0
M  V30 12155 H 1201.83 0.60232 -4.81145 0
M  V30 12156 N 1203.17 1.53854 0.341593 0
M  V30 12157 C 1204.12 1.8268 1.43982 0
M  V30 12158 C 1205.12 0.697415 1.54378 0
M  V30 12159 O 1206.32 0.880785 1.56978 0
M  V30 12160 H 1202.7 0.578788 0.480113 0
M  V30 12161 H 1204.67 2.74556 1.16884 0
M  V30 12162 C 1203.42 2.05496 2.80476 0
M  V30 12163 H 1202.74 2.91852 2.73244 0
M  V30 12164 H 1204.18 2.2963 3.56435 0
M  V30 12165 C 1202.64 0.841061 3.26233 0
M  V30 12166 O 1203.17 0.0414376 4.01679 0
M  V30 12167 N 1201.37 0.657736 2.83059 0
M  V30 12168 H 1200.92 1.30962 2.21826 0
M  V30 12169 H 1200.88 -0.153003 3.14027 0
M  V30 12170 N 1204.65 -0.602709 1.4562 0
M  V30 12171 C 1205.89 -1.37284 1.51435 0
M  V30 12172 C 1206.26 -1.9138 0.154148 0
M  V30 12173 O 1207.46 -2.68659 0.0870009 0
M  V30 12174 C 1205.73 -2.48651 2.56724 0
M  V30 12175 S 1207.29 -3.36354 2.818 0
M  V30 12176 H 1204.1 -0.46798 0.535272 0
M  V30 12177 H 1206.71 -0.694957 1.82731 0
M  V30 12178 H 1205.41 -2.07267 3.54215 0
M  V30 12179 H 1204.94 -3.21234 2.27095 0
M  V30 12180 H 1206.96 -4.46937 2.15549 0
M  V30 12181 N 1206.13 -1.32992 -0.845635 0
M  V30 12182 C 1207.38 -1.24249 -1.60281 0
M  V30 12183 C 1207.71 0.193049 -1.93238 0
M  V30 12184 O 1206.98 1.1326 -1.58122 0
M  V30 12185 C 1207.27 -2.1111 -2.91727 0
M  V30 12186 C 1207.12 -3.63088 -2.65494 0
M  V30 12187 C 1208.44 -1.97913 -3.93089 0
M  V30 12188 H 1205.56 -0.452698 -0.581578 0
M  V30 12189 H 1208.2 -1.63026 -0.975828 0
M  V30 12190 H 1206.35 -1.78169 -3.45236 0
M  V30 12191 H 1208.02 -4.06287 -2.18469 0
M  V30 12192 H 1206.26 -3.85304 -1.99306 0
M  V30 12193 H 1206.94 -4.19202 -3.59129 0
M  V30 12194 H 1209.41 -2.26788 -3.48864 0
M  V30 12195 H 1208.29 -2.60952 -4.82903 0
M  V30 12196 H 1208.55 -0.949378 -4.31786 0
M  V30 12197 N 1207.61 1.06304 -1.1635 0
M  V30 12198 C 1208.84 1.82799 -0.96913 0
M  V30 12199 C 1209.25 1.82526 0.482659 0
M  V30 12200 O 1208.61 1.24437 1.33498 0
M  V30 12201 C 1208.66 3.29417 -1.48884 0
M  V30 12202 O 1208.38 3.29803 -2.88377 0
M  V30 12203 C 1209.88 4.22642 -1.33748 0
M  V30 12204 H 1207.1 0.576388 -0.343537 0
M  V30 12205 H 1209.64 1.34122 -1.54375 0
M  V30 12206 H 1207.8 3.75406 -0.956509 0
M  V30 12207 H 1208.21 4.21486 -3.1217 0
M  V30 12208 H 1209.69 5.23545 -1.74942 0
M  V30 12209 H 1210.16 4.38287 -0.283021 0
M  V30 12210 H 1210.77 3.82499 -1.85942 0
M  V30 12211 N 1209.09 0.96196 1.24836 0
M  V30 12212 C 1210.02 0.445329 2.24832 0
M  V30 12213 C 1211.03 -0.442797 1.56663 0
M  V30 12214 O 1212.22 -0.249896 1.76742 0
M  V30 12215 C 1209.32 -0.376953 3.36797 0
M  V30 12216 C 1208.49 0.499908 4.34534 0
M  V30 12217 C 1207.55 -0.265402 5.2553 0
M  V30 12218 O 1206.58 0.338707 5.68191 0
M  V30 12219 N 1207.78 -1.55654 5.59243 0
M  V30 12220 H 1210.54 1.30505 2.69793 0
M  V30 12221 H 1208.11 0.833137 1.38818 0
M  V30 12222 H 1210.1 -0.896831 3.94638 0
M  V30 12223 H 1208.67 -1.13757 2.91167 0
M  V30 12224 H 1207.89 1.20082 3.75465 0
M  V30 12225 H 1209.18 1.09814 4.96808 0
M  V30 12226 H 1208.57 -2.06916 5.265 0
M  V30 12227 H 1207.13 -2.02223 6.19636 0
M  V30 12228 N 1210.56 -1.39601 0.731392 0
M  V30 12229 C 1211.97 -1.83424 0.348194 0
M  V30 12230 C 1212.33 -1.61106 -1.11979 0
M  V30 12231 O 1211.45 -1.1003 -1.86339 0
M  V30 12232 C 1212.05 -3.32982 0.6252 0
M  V30 12233 C 1210.6 -3.75238 0.295536 0
M  V30 12234 C 1209.75 -2.62642 0.88964 0
M  V30 12235 H 1212.7 -1.28644 0.929318 0
M  V30 12236 H 1212.72 -3.80357 -0.104254 0
M  V30 12237 H 1212.24 -3.49193 1.69368 0
M  V30 12238 H 1210.34 -3.64615 -0.767254 0
M  V30 12239 H 1210.45 -4.72781 0.775576 0
M  V30 12240 H 1208.81 -2.52726 0.316529 0
M  V30 12241 H 1209.6 -2.81661 1.96271 0
M  V30 12242 N 1212.04 -0.478751 -1.50152 0
M  V30 12243 C 1212.99 0.325375 -2.30313 0
M  V30 12244 C 1213.98 0.983372 -1.37935 0
M  V30 12245 O 1215.19 0.913601 -1.55091 0
M  V30 12246 H 1211.57 0.123775 -0.741744 0
M  V30 12247 H 1213.54 -0.371004 -2.96085 0
M  V30 12248 C 1212.29 1.39026 -3.18696 0
M  V30 12249 H 1211.61 0.893329 -3.89692 0
M  V30 12250 H 1213.05 1.92533 -3.77766 0
M  V30 12251 C 1211.51 2.39637 -2.36803 0
M  V30 12252 O 1212.04 3.45067 -2.05649 0
M  V30 12253 N 1210.24 2.11546 -1.9924 0
M  V30 12254 H 1209.79 1.25832 -2.24775 0
M  V30 12255 H 1209.75 2.79096 -1.44751 0
M  V30 12256 N 1213.52 1.56172 -0.211661 0
M  V30 12257 C 1214.93 1.84307 0.297982 0
M  V30 12258 C 1215.28 1.1328 1.60194 0
M  V30 12259 O 1214.41 0.399137 2.12687 0
M  V30 12260 C 1215 3.34348 0.547428 0
M  V30 12261 C 1213.56 3.62835 1.0014 0
M  V30 12262 C 1212.71 2.77237 0.0590326 0
M  V30 12263 H 1215.66 1.5262 -0.435083 0
M  V30 12264 H 1215.68 3.54018 1.39469 0
M  V30 12265 H 1215.19 3.86015 -0.401778 0
M  V30 12266 H 1213.29 3.16616 1.96431 0
M  V30 12267 H 1213.41 4.70899 0.882653 0
M  V30 12268 H 1211.77 2.48377 0.564005 0
M  V30 12269 H 1212.55 3.31699 -0.884913 0
M  V30 12270 N 1215 -0.0618163 1.57479 0
M  V30 12271 C 1216.22 -0.775513 1.92355 0
M  V30 12272 C 1216.65 -1.69816 0.808949 0
M  V30 12273 O 1216.01 -1.79736 -0.23761 0
M  V30 12274 C 1216.05 -1.5367 3.26218 0
M  V30 12275 O 1215.16 -2.64802 3.16155 0
M  V30 12276 H 1214.5 -0.210909 0.629614 0
M  V30 12277 H 1217.03 -0.0270752 2.04582 0
M  V30 12278 H 1217.04 -1.91379 3.6033 0
M  V30 12279 H 1215.71 -0.859798 4.06916 0
M  V30 12280 H 1214.29 -2.29876 2.93618 0
M  V30 12281 N 1216.48 -1.54033 -0.333429 0
M  V30 12282 C 1217.89 -1.63107 -0.908455 0
M  V30 12283 C 1218.24 -0.518823 -1.89216 0
M  V30 12284 O 1217.36 0.34985 -2.13553 0
M  V30 12285 C 1217.96 -2.95657 -1.65447 0
M  V30 12286 C 1216.52 -3.0696 -2.17836 0
M  V30 12287 C 1215.66 -2.58617 -1.00063 0
M  V30 12288 H 1218.62 -1.58309 -0.11128 0
M  V30 12289 H 1218.64 -2.85263 -2.51804 0
M  V30 12290 H 1218.15 -3.76588 -0.938263 0
M  V30 12291 H 1216.25 -2.30683 -2.92602 0
M  V30 12292 H 1216.36 -4.12599 -2.43513 0
M  V30 12293 H 1214.73 -2.1427 -1.37697 0
M  V30 12294 H 1215.51 -3.41996 -0.298901 0
M  V30 12295 N 1217.95 0.594978 -1.45938 0
M  V30 12296 C 1219.2 1.35093 -1.50314 0
M  V30 12297 C 1219.52 1.94412 -0.151315 0
M  V30 12298 O 1218.79 1.77876 0.820787 0
M  V30 12299 H 1217.37 0.501549 -0.553586 0
M  V30 12300 H 1220.04 0.697735 -1.81983 0
M  V30 12301 H 1219.13 2.16393 -2.24901 0
M  V30 12302 N 1219.43 1.33438 0.838571 0
M  V30 12303 C 1220.66 1.28097 1.63113 0
M  V30 12304 C 1221.08 -0.145197 1.87539 0
M  V30 12305 O 1220.44 -1.10191 1.43971 0
M  V30 12306 C 1220.49 2.06201 2.95827 0
M  V30 12307 O 1219.59 1.42082 3.87152 0
M  V30 12308 H 1218.93 0.440685 0.496681 0
M  V30 12309 H 1221.46 1.76004 1.04325 0
M  V30 12310 H 1221.47 2.16977 3.45521 0
M  V30 12311 H 1220.15 3.099 2.77371 0
M  V30 12312 H 1218.73 1.39953 3.45641 0
M  V30 12313 N 1220.91 -1.05686 1.16912 0
M  V30 12314 C 1221.87 -2.11481 0.883647 0
M  V30 12315 C 1222.87 -1.60321 -0.124034 0
M  V30 12316 O 1224.06 -1.73868 0.107566 0
M  V30 12317 C 1221.2 -3.3937 0.322649 0
M  V30 12318 H 1222.39 -2.38239 1.8216 0
M  V30 12319 H 1219.94 -1.2185 0.978895 0
M  V30 12320 H 1220.68 -3.18266 -0.622695 0
M  V30 12321 H 1220.46 -3.77812 1.04883 0
M  V30 12322 H 1221.95 -4.17362 0.141072 0
M  V30 12323 N 1222.39 -0.968567 -1.24324 0
M  V30 12324 C 1223.67 -0.547774 -1.87773 0
M  V30 12325 C 1224.05 0.975107 -1.87229 0
M  V30 12326 O 1223.39 1.84683 -1.34553 0
M  V30 12327 C 1223.6 -1.1403 -3.29846 0
M  V30 12328 C 1224.95 -1.22572 -4.06523 0
M  V30 12329 O 1225.98 -1.09287 -3.3902 0
M  V30 12330 O 1224.83 -1.43579 -5.27302 0
M  V30 12331 H 1221.93 -0.182771 -0.806551 0
M  V30 12332 H 1224.47 -1.06289 -1.3229 0
M  V30 12333 H 1223.25 -2.18303 -3.24745 0
M  V30 12334 H 1222.87 -0.609275 -3.92904 0
M  V30 12335 N 1223.87 1.39211 -0.738786 0
M  V30 12336 C 1225.11 2.0004 -0.28782 0
M  V30 12337 C 1225.44 1.58921 1.13 0
M  V30 12338 O 1224.71 0.839193 1.77015 0
M  V30 12339 H 1223.29 0.739805 -0.103425 0
M  V30 12340 H 1225.95 1.70202 -0.949587 0
M  V30 12341 H 1225.04 3.10251 -0.339208 0
M  V30 12342 N 1225.34 0.486708 1.49896 0
M  V30 12343 C 1226.62 -0.125183 1.95199 0
M  V30 12344 C 1227 -1.55498 1.42771 0
M  V30 12345 O 1226.35 -2.1949 0.635322 0
M  V30 12346 C 1226.56 -0.0524982 3.48961 0
M  V30 12347 C 1227.91 -0.233595 4.23957 0
M  V30 12348 O 1228.93 -0.128357 3.55969 0
M  V30 12349 O 1227.79 -0.447862 5.44662 0
M  V30 12350 H 1224.88 -0.103141 0.820543 0
M  V30 12351 H 1227.43 0.548226 1.60601 0
M  V30 12352 H 1226.2 0.945163 3.79714 0
M  V30 12353 H 1225.83 -0.766683 3.90138 0
M  V30 12354 N 1226.82 -1.56058 0.219941 0
M  V30 12355 C 1227.77 -2.20218 -0.690846 0
M  V30 12356 C 1228.74 -1.15725 -1.19151 0
M  V30 12357 O 1229.93 -1.44073 -1.2509 0
M  V30 12358 C 1227.07 -2.88477 -1.89408 0
M  V30 12359 C 1226.18 -4.07559 -1.43246 0
M  V30 12360 C 1225.31 -4.63605 -2.59314 0
M  V30 12361 C 1224.35 -5.74993 -2.0988 0
M  V30 12362 N 1223.49 -6.25337 -3.19214 0
M  V30 12363 H 1228.33 -2.97685 -0.136992 0
M  V30 12364 H 1225.87 -1.46994 -0.055865 0
M  V30 12365 H 1227.82 -3.26235 -2.60051 0
M  V30 12366 H 1226.45 -2.1353 -2.42084 0
M  V30 12367 H 1225.51 -3.75297 -0.621013 0
M  V30 12368 H 1226.82 -4.8805 -1.02997 0
M  V30 12369 H 1225.97 -5.03798 -3.38041 0
M  V30 12370 H 1224.71 -3.82274 -3.0285 0
M  V30 12371 H 1223.72 -5.34304 -1.29613 0
M  V30 12372 H 1224.94 -6.58158 -1.67345 0
M  V30 12373 H 1222.89 -5.4692 -3.62236 0
M  V30 12374 H 1222.8 -7.00947 -2.83213 0
M  V30 12375 H 1224.07 -6.70187 -3.98083 0
M  V30 12376 N 1228.3 0.053464 -1.57509 0
M  V30 12377 C 1229.21 1.07902 -2.08313 0
M  V30 12378 C 1230.23 1.41223 -1.01647 0
M  V30 12379 O 1231.4 1.51032 -1.33233 0
M  V30 12380 C 1228.47 2.36813 -2.5322 0
M  V30 12381 C 1227.53 2.10297 -3.74264 0
M  V30 12382 C 1226.76 3.33062 -4.1702 0
M  V30 12383 O 1226.99 4.42857 -3.59491 0
M  V30 12384 O 1225.92 3.20195 -5.09665 0
M  V30 12385 H 1229.75 0.677368 -2.9605 0
M  V30 12386 H 1227.33 0.268838 -1.46961 0
M  V30 12387 H 1229.21 3.12645 -2.82544 0
M  V30 12388 H 1227.89 2.76323 -1.68605 0
M  V30 12389 H 1226.79 1.32111 -3.49996 0
M  V30 12390 H 1228.13 1.75658 -4.59788 0
M  V30 12391 N 1229.78 1.54207 0.325255 0
M  V30 12392 C 1231.03 1.72331 1.0634 0
M  V30 12393 C 1231.35 0.496115 1.88066 0
M  V30 12394 O 1230.61 -0.52214 1.88606 0
M  V30 12395 C 1230.91 2.95 2.01766 0
M  V30 12396 C 1230.57 4.29835 1.36208 0
M  V30 12397 C 1229.24 4.66493 1.18059 0
M  V30 12398 C 1231.59 5.13521 0.891404 0
M  V30 12399 C 1228.92 5.84436 0.514894 0
M  V30 12400 C 1231.27 6.32146 0.239534 0
M  V30 12401 C 1229.93 6.67484 0.0458839 0
M  V30 12402 H 1229.2 0.630605 0.389125 0
M  V30 12403 H 1231.85 1.88445 0.34072 0
M  V30 12404 H 1230.15 2.73567 2.80479 0
M  V30 12405 H 1231.85 3.06217 2.58906 0
M  V30 12406 H 1228.44 4.00993 1.51335 0
M  V30 12407 H 1232.63 4.85718 1.01941 0
M  V30 12408 H 1227.88 6.10376 0.353644 0
M  V30 12409 H 1232.06 6.96273 -0.133185 0
M  V30 12410 H 1229.68 7.58733 -0.471978 0
M  V30 12411 N 1231.26 -0.58723 1.46251 0
M  V30 12412 C 1232.48 -1.37661 1.55126 0
M  V30 12413 C 1232.91 -1.87123 0.191489 0
M  V30 12414 O 1232.27 -1.6131 -0.827576 0
M  V30 12415 C 1232.31 -2.54324 2.5564 0
M  V30 12416 O 1231.42 -3.55617 2.0883 0
M  V30 12417 H 1230.76 -0.410154 0.522178 0
M  V30 12418 H 1233.29 -0.712738 1.91784 0
M  V30 12419 H 1233.3 -3.01301 2.75103 0
M  V30 12420 H 1231.97 -2.17675 3.54387 0
M  V30 12421 H 1230.55 -3.15151 1.99335 0
M  V30 12422 N 1232.74 -1.33881 -0.831482 0
M  V30 12423 C 1234.01 -1.16346 -1.57236 0
M  V30 12424 C 1234.39 0.267304 -2.09401 0
M  V30 12425 O 1233.74 1.26742 -1.90128 0
M  V30 12426 C 1233.95 -2.21082 -2.70044 0
M  V30 12427 C 1235.3 -2.5562 -3.39033 0
M  V30 12428 O 1236.32 -2.19806 -2.80292 0
M  V30 12429 O 1235.18 -3.17106 -4.45091 0
M  V30 12430 H 1232.28 -0.450469 -0.693546 0
M  V30 12431 H 1234.82 -1.45487 -0.873597 0
M  V30 12432 H 1233.59 -3.17155 -2.2919 0
M  V30 12433 H 1233.22 -1.9307 -3.47577 0
M  V30 12434 N 1234.21 1.05064 -1.1747 0
M  V30 12435 C 1235.18 2.1101 -0.89485 0
M  V30 12436 C 1236.18 1.60384 0.11553 0
M  V30 12437 O 1237.37 1.73808 -0.116785 0
M  V30 12438 C 1234.5 3.39194 -0.340642 0
M  V30 12439 H 1235.69 2.37269 -1.83421 0
M  V30 12440 H 1233.24 1.21329 -0.985343 0
M  V30 12441 H 1233.98 3.18591 0.605808 0
M  V30 12442 H 1233.76 3.77251 -1.06885 0
M  V30 12443 H 1235.25 4.17281 -0.163204 0
M  V30 12444 N 1235.69 0.975146 1.23809 0
M  V30 12445 C 1236.62 0.530389 2.27396 0
M  V30 12446 C 1237.6 -0.433763 1.64476 0
M  V30 12447 O 1238.79 -0.32827 1.91405 0
M  V30 12448 C 1235.92 -0.173066 3.46869 0
M  V30 12449 C 1234.87 0.707844 4.22106 0
M  V30 12450 C 1234.2 -0.127527 5.34548 0
M  V30 12451 C 1235.5 1.99609 4.82652 0
M  V30 12452 H 1237.19 1.39622 2.64851 0
M  V30 12453 H 1234.74 0.672802 1.27316 0
M  V30 12454 H 1236.69 -0.495481 4.18477 0
M  V30 12455 H 1235.41 -1.0733 3.0846 0
M  V30 12456 H 1234.07 1.01364 3.52308 0
M  V30 12457 H 1233.72 -1.02814 4.9238 0
M  V30 12458 H 1233.42 0.458728 5.85807 0
M  V30 12459 H 1234.95 -0.444443 6.0898 0
M  V30 12460 H 1236.36 1.73878 5.46296 0
M  V30 12461 H 1234.76 2.52969 5.44175 0
M  V30 12462 H 1235.83 2.68629 4.03691 0
M  V30 12463 N 1237.17 -1.38817 0.746158 0
M  V30 12464 C 1238.42 -1.99885 0.298425 0
M  V30 12465 C 1238.74 -1.59518 -1.12156 0
M  V30 12466 O 1238.01 -0.848568 -1.76568 0
M  V30 12467 H 1236.59 -0.739247 0.107347 0
M  V30 12468 H 1239.25 -1.69696 0.9586 0
M  V30 12469 H 1238.35 -3.10067 0.355656 0
M  V30 12470 N 1238.65 -0.49465 -1.49636 0
M  V30 12471 C 1239.88 0.0490417 -2.06542 0
M  V30 12472 C 1240.29 1.31945 -1.35599 0
M  V30 12473 O 1239.63 1.78691 -0.426047 0
M  V30 12474 C 1239.69 0.379426 -3.57492 0
M  V30 12475 C 1239.35 -0.792345 -4.50079 0
M  V30 12476 C 1240.35 -1.68106 -4.91972 0
M  V30 12477 C 1238.04 -0.98935 -4.9246 0
M  V30 12478 C 1240.03 -2.75099 -5.74978 0
M  V30 12479 C 1237.72 -2.06247 -5.75244 0
M  V30 12480 C 1238.72 -2.94163 -6.16407 0
M  V30 12481 O 1238.4 -3.99623 -6.97536 0
M  V30 12482 H 1238.14 -0.0143708 -0.675847 0
M  V30 12483 H 1240.69 -0.689358 -1.93486 0
M  V30 12484 H 1238.92 1.17133 -3.68533 0
M  V30 12485 H 1240.61 0.860979 -3.96664 0
M  V30 12486 H 1241.37 -1.54065 -4.59879 0
M  V30 12487 H 1237.25 -0.314435 -4.59926 0
M  V30 12488 H 1240.8 -3.4375 -6.07027 0
M  V30 12489 H 1236.69 -2.20285 -6.06749 0
M  V30 12490 H 1237.46 -3.96899 -7.15831 0
M  V30 12491 N 1240.13 1.55939 -0.228214 0
M  V30 12492 C 1241.06 2.2357 0.6737 0
M  V30 12493 C 1242.04 1.20964 1.1959 0
M  V30 12494 O 1243.22 1.49568 1.23867 0
M  V30 12495 C 1240.35 2.92076 1.87906 0
M  V30 12496 C 1239.31 4.01211 1.49043 0
M  V30 12497 C 1238.63 4.57047 2.77511 0
M  V30 12498 C 1239.93 5.17914 0.67544 0
M  V30 12499 H 1241.63 2.99199 0.109806 0
M  V30 12500 H 1239.17 1.43908 0.0513732 0
M  V30 12501 H 1241.12 3.38083 2.51551 0
M  V30 12502 H 1239.85 2.13906 2.46803 0
M  V30 12503 H 1238.51 3.55945 0.877411 0
M  V30 12504 H 1238.16 3.75599 3.34566 0
M  V30 12505 H 1237.86 5.30707 2.52239 0
M  V30 12506 H 1239.38 5.05776 3.42087 0
M  V30 12507 H 1240.79 5.60261 1.21575 0
M  V30 12508 H 1239.19 5.97847 0.519536 0
M  V30 12509 H 1240.26 4.83866 -0.316495 0
M  V30 12510 N 1241.6 -0.0451101 1.57535 0
M  V30 12511 C 1242.54 -1.07792 2.02271 0
M  V30 12512 C 1243.55 -1.33423 0.932854 0
M  V30 12513 O 1244.74 -1.31193 1.2104 0
M  V30 12514 C 1241.84 -2.42314 2.36933 0
M  V30 12515 C 1241.01 -2.36266 3.68099 0
M  V30 12516 C 1240.07 -3.53108 3.9013 0
M  V30 12517 O 1239.1 -3.33327 4.61391 0
M  V30 12518 N 1240.3 -4.74415 3.3453 0
M  V30 12519 H 1243.06 -0.696744 2.91489 0
M  V30 12520 H 1240.62 -0.233336 1.6021 0
M  V30 12521 H 1242.62 -3.19171 2.48821 0
M  V30 12522 H 1241.19 -2.72335 1.53468 0
M  V30 12523 H 1240.41 -1.44615 3.66715 0
M  V30 12524 H 1241.69 -2.29351 4.54175 0
M  V30 12525 H 1241.09 -4.93388 2.76739 0
M  V30 12526 H 1239.65 -5.48692 3.51825 0
M  V30 12527 N 1243.08 -1.54377 -0.317073 0
M  V30 12528 C 1244.01 -1.8721 -1.39552 0
M  V30 12529 C 1244.99 -0.729483 -1.53664 0
M  V30 12530 O 1246.18 -0.983799 -1.67437 0
M  V30 12531 C 1243.31 -2.1052 -2.76222 0
M  V30 12532 C 1242.26 -3.26366 -2.76892 0
M  V30 12533 C 1241.59 -3.35061 -4.16699 0
M  V30 12534 C 1242.89 -4.63862 -2.40061 0
M  V30 12535 H 1244.58 -2.77532 -1.12323 0
M  V30 12536 H 1242.13 -1.33536 -0.538897 0
M  V30 12537 H 1244.08 -2.32073 -3.51739 0
M  V30 12538 H 1242.81 -1.16953 -3.04942 0
M  V30 12539 H 1241.46 -3.0471 -2.03831 0
M  V30 12540 H 1241.11 -2.39041 -4.4257 0
M  V30 12541 H 1240.81 -4.12923 -4.18053 0
M  V30 12542 H 1242.34 -3.58856 -4.94019 0
M  V30 12543 H 1243.75 -4.85252 -3.05292 0
M  V30 12544 H 1242.15 -5.44321 -2.52655 0
M  V30 12545 H 1243.22 -4.6567 -1.35202 0
M  V30 12546 N 1244.56 0.579466 -1.4656 0
M  V30 12547 C 1245.49 1.69846 -1.60233 0
M  V30 12548 C 1246.47 1.6397 -0.452533 0
M  V30 12549 O 1247.66 1.81936 -0.679174 0
M  V30 12550 C 1244.79 3.08488 -1.59538 0
M  V30 12551 C 1243.74 3.29197 -2.7352 0
M  V30 12552 C 1243.07 4.684 -2.57887 0
M  V30 12553 C 1244.37 3.16718 -4.15315 0
M  V30 12554 H 1246.06 1.5866 -2.53904 0
M  V30 12555 H 1243.61 0.761873 -1.22194 0
M  V30 12556 H 1245.56 3.86595 -1.67696 0
M  V30 12557 H 1244.28 3.20581 -0.62413 0
M  V30 12558 H 1242.94 2.53491 -2.64836 0
M  V30 12559 H 1242.59 4.77262 -1.58839 0
M  V30 12560 H 1242.29 4.83208 -3.34341 0
M  V30 12561 H 1243.81 5.48671 -2.67942 0
M  V30 12562 H 1245.23 3.84666 -4.25094 0
M  V30 12563 H 1243.63 3.43047 -4.92381 0
M  V30 12564 H 1244.7 2.13755 -4.35244 0
M  V30 12565 N 1246.04 1.3432 0.824371 0
M  V30 12566 C 1246.99 1.2578 1.95658 0
M  V30 12567 C 1247.98 0.156199 1.68678 0
M  V30 12568 O 1249.19 0.321081 1.77113 0
M  V30 12569 H 1245.56 0.390711 0.642533 0
M  V30 12570 H 1247.53 2.21471 1.99983 0
M  V30 12571 C 1246.28 1.02865 3.32136 0
M  V30 12572 H 1245.6 1.86863 3.53443 0
M  V30 12573 H 1247.04 1.00925 4.11813 0
M  V30 12574 C 1245.5 -0.268097 3.35832 0
M  V30 12575 O 1246.03 -1.26995 3.81097 0
M  V30 12576 N 1244.24 -0.300702 2.8904 0
M  V30 12577 H 1243.79 0.51515 2.52396 0
M  V30 12578 H 1243.74 -1.16811 2.91895 0
M  V30 12579 N 1247.52 -1.0444 1.18026 0
M  V30 12580 C 1248.74 -1.81772 0.998684 0
M  V30 12581 C 1249.17 -1.82682 -0.448225 0
M  V30 12582 O 1248.52 -1.24136 -1.32136 0
M  V30 12583 C 1248.57 -3.2542 1.55352 0
M  V30 12584 O 1247.68 -4.05103 0.772351 0
M  V30 12585 H 1247.02 -0.561731 0.354054 0
M  V30 12586 H 1249.55 -1.31557 1.56697 0
M  V30 12587 H 1249.56 -3.76206 1.57903 0
M  V30 12588 H 1248.23 -3.24073 2.60672 0
M  V30 12589 H 1246.81 -3.63798 0.818852 0
M  V30 12590 N 1248.99 -0.981699 -1.2329 0
M  V30 12591 C 1250.23 -0.659348 -1.93473 0
M  V30 12592 C 1250.6 0.792616 -1.74876 0
M  V30 12593 O 1251.8 1.22586 -2.3922 0
M  V30 12594 C 1250.07 -1.04065 -3.41914 0
M  V30 12595 S 1251.63 -0.834964 -4.30783 0
M  V30 12596 H 1248.45 -0.241428 -0.668755 0
M  V30 12597 H 1251.05 -1.26161 -1.49344 0
M  V30 12598 H 1249.75 -2.09398 -3.5296 0
M  V30 12599 H 1249.28 -0.429721 -3.91046 0
M  V30 12600 H 1251.3 0.280447 -4.95407 0
M  V30 12601 N 1250.47 1.3842 -0.753509 0
M  V30 12602 C 1251.7 2.04929 -0.319174 0
M  V30 12603 C 1252.12 1.56457 1.04416 0
M  V30 12604 O 1251.48 0.716527 1.6654 0
M  V30 12605 C 1251.53 3.58887 -0.351054 0
M  V30 12606 O 1250.63 4.07166 0.654963 0
M  V30 12607 H 1249.97 0.648782 -0.141343 0
M  V30 12608 H 1252.5 1.77096 -1.02461 0
M  V30 12609 H 1252.51 4.075 -0.201907 0
M  V30 12610 H 1251.19 3.93525 -1.34576 0
M  V30 12611 H 1249.77 3.69921 0.470435 0
M  V30 12612 N 1251.95 0.502579 1.49372 0
M  V30 12613 C 1253.23 -0.104472 1.95321 0
M  V30 12614 C 1253.61 -1.53975 1.44412 0
M  V30 12615 O 1252.96 -2.18804 0.658566 0
M  V30 12616 C 1253.17 -0.0154833 3.48997 0
M  V30 12617 C 1254.51 -0.188615 4.24181 0
M  V30 12618 O 1255.54 -0.090595 3.56085 0
M  V30 12619 O 1254.4 -0.390068 5.45106 0
M  V30 12620 H 1251.49 -0.0944325 0.821591 0
M  V30 12621 H 1254.04 0.565229 1.6001 0
M  V30 12622 H 1252.81 0.985383 3.7869 0
M  V30 12623 H 1252.43 -0.72526 3.90929 0
M  V30 12624 N 1253.43 -1.55816 0.23648 0
M  V30 12625 C 1254.39 -2.1967 -0.654041 0
M  V30 12626 C 1255.39 -1.1629 -1.11056 0
M  V30 12627 O 1256.58 -1.41435 -1.01695 0
M  V30 12628 C 1253.71 -2.83196 -1.89771 0
M  V30 12629 H 1254.91 -2.99743 -0.0970911 0
M  V30 12630 H 1252.46 -1.56295 -0.013098 0
M  V30 12631 H 1253.19 -2.07033 -2.49616 0
M  V30 12632 H 1252.98 -3.58915 -1.57868 0
M  V30 12633 H 1254.47 -3.32095 -2.53184 0
M  V30 12634 N 1254.91 0.036755 -1.57557 0
M  V30 12635 C 1255.87 1.02435 -2.05036 0
M  V30 12636 C 1256.87 1.29506 -0.953146 0
M  V30 12637 O 1258.06 1.24638 -1.217 0
M  V30 12638 C 1255.19 2.3592 -2.46079 0
M  V30 12639 H 1256.38 0.614384 -2.93539 0
M  V30 12640 H 1253.94 0.283396 -1.53709 0
M  V30 12641 H 1254.67 2.8168 -1.60708 0
M  V30 12642 H 1254.46 2.17603 -3.26177 0
M  V30 12643 H 1255.95 3.06839 -2.83266 0
M  V30 12644 N 1256.39 1.54543 0.308881 0
M  V30 12645 C 1257.63 1.73107 1.043 0
M  V30 12646 C 1257.95 0.515481 1.88063 0
M  V30 12647 O 1257.22 -0.47036 1.90169 0
M  V30 12648 H 1255.8 0.638289 0.388068 0
M  V30 12649 H 1258.47 1.9188 0.341769 0
M  V30 12650 H 1257.56 2.61697 1.70063 0
M  V30 12651 N 1257.86 -0.571685 1.46866 0
M  V30 12652 C 1258.83 -1.66198 1.57832 0
M  V30 12653 C 1259.83 -1.54242 0.454547 0
M  V30 12654 O 1261.02 -1.58661 0.719191 0
M  V30 12655 C 1258.15 -3.05678 1.5091 0
M  V30 12656 H 1259.34 -1.57829 2.5501 0
M  V30 12657 H 1256.89 -0.790433 1.3484 0
M  V30 12658 H 1257.63 -3.19593 0.550529 0
M  V30 12659 H 1257.41 -3.15765 2.32454 0
M  V30 12660 H 1258.9 -3.85027 1.61692 0
M  V30 12661 N 1259.34 -1.34755 -0.817236 0
M  V30 12662 C 1260.75 -1.24594 -1.39044 0
M  V30 12663 C 1261.1 0.126184 -1.95794 0
M  V30 12664 O 1260.23 1.02675 -1.90491 0
M  V30 12665 C 1260.82 -2.25592 -2.52772 0
M  V30 12666 C 1259.38 -2.19204 -3.05984 0
M  V30 12667 C 1258.53 -2.11884 -1.78886 0
M  V30 12668 H 1261.48 -1.46039 -0.621155 0
M  V30 12669 H 1261.5 -1.87622 -3.31026 0
M  V30 12670 H 1261.01 -3.25447 -2.11438 0
M  V30 12671 H 1259.11 -1.22725 -3.51809 0
M  V30 12672 H 1259.23 -3.10707 -3.64689 0
M  V30 12673 H 1257.59 -1.57694 -2.00012 0
M  V30 12674 H 1258.37 -3.13582 -1.39719 0
M  V30 12675 N 1260.82 1.03812 -1.18578 0
M  V30 12676 C 1261.78 2.10049 -0.91718 0
M  V30 12677 C 1262.78 1.60498 0.0985122 0
M  V30 12678 O 1263.97 1.73674 -0.135213 0
M  V30 12679 C 1261.1 3.38813 -0.376599 0
M  V30 12680 H 1262.3 2.3531 -1.85927 0
M  V30 12681 H 1259.85 1.20277 -0.998156 0
M  V30 12682 H 1260.59 3.19216 0.571983 0
M  V30 12683 H 1260.37 3.76096 -1.10881 0
M  V30 12684 H 1261.86 4.17084 -0.207453 0
M  V30 12685 N 1262.3 0.988223 1.22768 0
M  V30 12686 C 1263.53 0.678757 1.95132 0
M  V30 12687 C 1263.94 -0.759797 1.73274 0
M  V30 12688 O 1263.28 -1.52383 1.02592 0
M  V30 12689 C 1263.34 0.899007 3.48078 0
M  V30 12690 C 1263 2.32114 3.93665 0
M  V30 12691 C 1264 3.30034 4.01713 0
M  V30 12692 C 1261.69 2.65432 4.2644 0
M  V30 12693 C 1263.68 4.59349 4.41902 0
M  V30 12694 C 1261.37 3.94967 4.66309 0
M  V30 12695 C 1262.37 4.91737 4.74008 0
M  V30 12696 O 1262.05 6.18958 5.12977 0
M  V30 12697 H 1261.79 0.250588 0.627839 0
M  V30 12698 H 1264.34 1.32441 1.56999 0
M  V30 12699 H 1262.57 0.196182 3.86202 0
M  V30 12700 H 1264.26 0.585507 4.01655 0
M  V30 12701 H 1265.02 3.05626 3.76587 0
M  V30 12702 H 1260.9 1.90816 4.19655 0
M  V30 12703 H 1264.45 5.34881 4.47826 0
M  V30 12704 H 1260.34 4.19168 4.90886 0
M  V30 12705 H 1261.11 6.22826 5.31065 0
M  V30 12706 N 1263.78 -1.38018 0.760839 0
M  V30 12707 C 1265 -2.04757 0.330038 0
M  V30 12708 C 1265.43 -1.57009 -1.03585 0
M  V30 12709 O 1264.78 -0.725349 -1.66158 0
M  V30 12710 C 1264.83 -3.58696 0.370082 0
M  V30 12711 O 1263.94 -4.07507 -0.633361 0
M  V30 12712 H 1263.28 -0.648023 0.144782 0
M  V30 12713 H 1265.81 -1.7655 1.03399 0
M  V30 12714 H 1265.82 -4.07387 0.223515 0
M  V30 12715 H 1264.49 -3.92806 1.36661 0
M  V30 12716 H 1263.07 -3.70165 -0.45081 0
M  V30 12717 N 1265.25 -0.510493 -1.49103 0
M  V30 12718 C 1266.5 0.0306436 -2.02477 0
M  V30 12719 C 1266.83 1.36113 -1.38937 0
M  V30 12720 O 1266.08 1.88731 -0.517584 0
M  V30 12721 C 1266.38 0.221921 -3.5671 0
M  V30 12722 C 1266.05 -1.03176 -4.38937 0
M  V30 12723 C 1264.71 -1.37539 -4.61125 0
M  V30 12724 C 1267.06 -1.86464 -4.86704 0
M  V30 12725 C 1264.39 -2.55124 -5.28326 0
M  V30 12726 C 1266.74 -3.03211 -5.55199 0
M  V30 12727 C 1265.41 -3.37943 -5.75631 0
M  V30 12728 H 1264.68 0.0112133 -0.740915 0
M  V30 12729 H 1267.32 -0.672574 -1.79301 0
M  V30 12730 H 1265.63 1.00775 -3.78618 0
M  V30 12731 H 1267.33 0.655223 -3.95611 0
M  V30 12732 H 1263.92 -0.754105 -4.21914 0
M  V30 12733 H 1268.1 -1.61229 -4.69381 0
M  V30 12734 H 1263.36 -2.8226 -5.42346 0
M  V30 12735 H 1267.53 -3.68068 -5.91185 0
M  V30 12736 H 1265.16 -4.29158 -6.27477 0
M  V30 12737 N 1266.73 1.55688 -0.24474 0
M  V30 12738 C 1267.96 2.03743 0.387776 0
M  V30 12739 C 1268.38 1.1229 1.50906 0
M  V30 12740 O 1267.74 0.115445 1.80932 0
M  V30 12741 C 1267.79 3.49825 0.874927 0
M  V30 12742 O 1266.89 3.61504 1.98466 0
M  V30 12743 H 1266.23 0.658561 0.0848107 0
M  V30 12744 H 1268.76 2.01224 -0.370165 0
M  V30 12745 H 1268.77 3.90603 1.17871 0
M  V30 12746 H 1267.45 4.15864 0.0543852 0
M  V30 12747 H 1266.02 3.32622 1.68574 0
M  V30 12748 N 1268.21 -0.0283989 1.57574 0
M  V30 12749 C 1269.46 -0.718121 1.88483 0
M  V30 12750 C 1269.77 -1.76485 0.843345 0
M  V30 12751 O 1270.98 -2.50721 1.04169 0
M  V30 12752 C 1269.43 -1.32832 3.3449 0
M  V30 12753 C 1269.04 -0.317905 4.46871 0
M  V30 12754 C 1270.79 -1.99788 3.74546 0
M  V30 12755 C 1268.69 -0.936489 5.83938 0
M  V30 12756 H 1267.62 -0.271969 0.703242 0
M  V30 12757 H 1270.27 0.0274862 1.83479 0
M  V30 12758 H 1268.66 -2.12366 3.34241 0
M  V30 12759 H 1269.83 0.450767 4.5859 0
M  V30 12760 H 1268.14 0.249605 4.15651 0
M  V30 12761 H 1270.74 -2.46923 4.74271 0
M  V30 12762 H 1271.08 -2.81633 3.06575 0
M  V30 12763 H 1271.62 -1.27029 3.76973 0
M  V30 12764 H 1268.36 -0.15744 6.55311 0
M  V30 12765 H 1267.88 -1.67499 5.75938 0
M  V30 12766 H 1269.56 -1.44363 6.30689 0
M  V30 12767 N 1269.69 -1.54705 -0.300681 0
M  V30 12768 C 1270.91 -1.78318 -1.05913 0
M  V30 12769 C 1271.34 -0.541177 -1.80147 0
M  V30 12770 O 1270.7 0.508291 -1.74029 0
M  V30 12771 C 1270.74 -2.99041 -2.01511 0
M  V30 12772 O 1269.85 -2.72188 -3.09818 0
M  V30 12773 H 1269.19 -0.590197 -0.304242 0
M  V30 12774 H 1271.72 -2.01789 -0.338006 0
M  V30 12775 H 1271.73 -3.2702 -2.43971 0
M  V30 12776 H 1270.4 -3.89098 -1.46886 0
M  V30 12777 H 1268.98 -2.55227 -2.71871 0
M  V30 12778 N 1271.17 0.563888 -1.47167 0
M  V30 12779 C 1272.39 1.35176 -1.57297 0
M  V30 12780 C 1272.82 1.86794 -0.221235 0
M  V30 12781 O 1272.17 1.62606 0.801809 0
M  V30 12782 C 1272.22 2.50225 -2.59654 0
M  V30 12783 O 1271.33 3.5225 -2.14461 0
M  V30 12784 H 1270.67 0.401795 -0.528637 0
M  V30 12785 H 1273.2 0.682137 -1.92894 0
M  V30 12786 H 1273.21 2.96886 -2.79862 0
M  V30 12787 H 1271.88 2.1201 -3.57805 0
M  V30 12788 H 1270.46 3.1194 -2.04323 0
M  V30 12789 N 1272.64 1.35187 0.810078 0
M  V30 12790 C 1273.87 1.31528 1.60359 0
M  V30 12791 C 1274.29 -0.105385 1.87805 0
M  V30 12792 O 1273.65 -1.07113 1.46276 0
M  V30 12793 C 1273.7 2.12429 2.91386 0
M  V30 12794 O 1272.8 1.50262 3.84051 0
M  V30 12795 H 1272.15 0.451122 0.487222 0
M  V30 12796 H 1274.68 1.78178 1.00568 0
M  V30 12797 H 1274.69 2.24257 3.40841 0
M  V30 12798 H 1273.36 3.15714 2.70735 0
M  V30 12799 H 1271.94 1.47253 3.42594 0
M  V30 12800 N 1274.12 -1.03182 1.19127 0
M  V30 12801 C 1275.06 -2.10977 0.869702 0
M  V30 12802 C 1276.03 -1.61687 -0.172032 0
M  V30 12803 O 1277.22 -1.88436 -0.0490025 0
M  V30 12804 C 1274.34 -3.37359 0.301049 0
M  V30 12805 C 1273.39 -4.05515 1.32137 0
M  V30 12806 S 1274.22 -4.51415 2.88071 0
M  V30 12807 C 1275.38 -5.81018 2.32741 0
M  V30 12808 H 1275.61 -2.37929 1.78261 0
M  V30 12809 H 1273.15 -1.16079 1.01809 0
M  V30 12810 H 1275.1 -4.10495 -0.0205205 0
M  V30 12811 H 1273.76 -3.08507 -0.590118 0
M  V30 12812 H 1272.96 -4.9639 0.872547 0
M  V30 12813 H 1272.56 -3.38536 1.58963 0
M  V30 12814 H 1274.85 -6.5542 1.71552 0
M  V30 12815 H 1275.79 -6.30677 3.21951 0
M  V30 12816 H 1276.2 -5.36549 1.75429 0
M  V30 12817 N 1275.6 -0.99472 -1.22242 0
M  V30 12818 C 1276.56 -0.551619 -2.22463 0
M  V30 12819 C 1277.56 0.366498 -1.56568 0
M  V30 12820 O 1278.75 0.158204 -1.7348 0
M  V30 12821 C 1275.89 0.197416 -3.40328 0
M  V30 12822 H 1277.08 -1.43795 -2.63179 0
M  V30 12823 H 1274.63 -0.782121 -1.35324 0
M  V30 12824 H 1275.37 1.09965 -3.05087 0
M  V30 12825 H 1275.15 -0.461829 -3.89371 0
M  V30 12826 H 1276.64 0.495534 -4.1465 0
M  V30 12827 N 1277.08 1.37613 -0.768148 0
M  V30 12828 C 1278.31 2.04052 -0.342111 0
M  V30 12829 C 1278.72 1.57936 1.03449 0
M  V30 12830 O 1278.08 0.758981 1.65969 0
M  V30 12831 C 1278.13 3.5958 -0.372096 0
M  V30 12832 O 1277.85 4.04008 -1.69439 0
M  V30 12833 C 1279.35 4.43251 0.0659884 0
M  V30 12834 H 1276.57 0.655391 -0.143886 0
M  V30 12835 H 1279.12 1.76017 -1.04107 0
M  V30 12836 H 1277.27 3.86399 0.278248 0
M  V30 12837 H 1277.68 4.98511 -1.63054 0
M  V30 12838 H 1279.16 5.52 -0.00614775 0
M  V30 12839 H 1279.64 4.24788 1.11588 0
M  V30 12840 H 1280.24 4.2165 -0.55603 0
M  V30 12841 N 1278.56 0.518393 1.4883 0
M  V30 12842 C 1279.78 -0.0162 2.06894 0
M  V30 12843 C 1280.2 -1.29222 1.37649 0
M  V30 12844 O 1279.56 -1.766 0.460288 0
M  V30 12845 C 1279.61 -0.255836 3.60594 0
M  V30 12846 O 1279.33 0.969612 4.27235 0
M  V30 12847 C 1280.83 -0.832117 4.3542 0
M  V30 12848 H 1278.05 0.0282877 0.670403 0
M  V30 12849 H 1280.59 0.720726 1.91379 0
M  V30 12850 H 1278.75 -0.942782 3.75753 0
M  V30 12851 H 1279.16 0.743172 5.19208 0
M  V30 12852 H 1280.64 -0.949279 5.43776 0
M  V30 12853 H 1281.11 -1.83421 3.99066 0
M  V30 12854 H 1281.72 -0.1821 4.2491 0
M  V30 12855 N 1280.03 -1.55556 0.252993 0
M  V30 12856 C 1281.26 -2.03491 -0.374022 0
M  V30 12857 C 1281.68 -1.13208 -1.51094 0
M  V30 12858 O 1281.03 -0.147705 -1.81901 0
M  V30 12859 C 1281.09 -3.50724 -0.876047 0
M  V30 12860 O 1280.81 -4.37569 0.215574 0
M  V30 12861 C 1282.31 -4.14448 -1.57313 0
M  V30 12862 H 1279.53 -0.665183 -0.0881644 0
M  V30 12863 H 1282.07 -2.00964 0.378636 0
M  V30 12864 H 1280.23 -3.53766 -1.57886 0
M  V30 12865 H 1280.64 -5.24235 -0.166625 0
M  V30 12866 H 1282.11 -5.19142 -1.87606 0
M  V30 12867 H 1282.59 -3.61299 -2.49719 0
M  V30 12868 H 1283.2 -4.15346 -0.914735 0
M  V30 12869 N 1281.51 0.0200419 -1.57587 0
M  V30 12870 C 1282.76 0.707627 -1.89307 0
M  V30 12871 C 1283.08 1.7541 -0.851831 0
M  V30 12872 O 1282.35 1.95571 0.113404 0
M  V30 12873 H 1280.93 0.264349 -0.698662 0
M  V30 12874 H 1283.59 -0.0161428 -1.94893 0
M  V30 12875 H 1282.69 1.19152 -2.8846 0
M  V30 12876 N 1282.99 1.54862 0.292472 0
M  V30 12877 C 1284.24 1.74807 1.02813 0
M  V30 12878 C 1284.57 0.536935 1.8663 0
M  V30 12879 O 1283.84 -0.465854 1.88839 0
M  V30 12880 C 1284.13 3.04202 1.927 0
M  V30 12881 C 1283.98 4.35631 1.12006 0
M  V30 12882 C 1285.3 3.29514 2.91734 0
M  V30 12883 H 1282.42 0.636015 0.372362 0
M  V30 12884 H 1285.06 1.87583 0.302069 0
M  V30 12885 H 1283.21 2.9344 2.54608 0
M  V30 12886 H 1284.88 4.58323 0.52319 0
M  V30 12887 H 1283.13 4.31733 0.42298 0
M  V30 12888 H 1283.8 5.22454 1.78172 0
M  V30 12889 H 1286.27 3.39941 2.39957 0
M  V30 12890 H 1285.15 4.21352 3.51786 0
M  V30 12891 H 1285.41 2.48216 3.65843 0
M  V30 12892 N 1284.47 -0.556076 1.47464 0
M  V30 12893 C 1285.75 -1.31689 1.44628 0
M  V30 12894 C 1286.13 -2.10609 0.143841 0
M  V30 12895 O 1285.47 -2.11097 -0.874662 0
M  V30 12896 C 1285.68 -2.22045 2.69253 0
M  V30 12897 C 1287.03 -2.83028 3.16513 0
M  V30 12898 O 1288.06 -2.32346 2.69988 0
M  V30 12899 O 1286.91 -3.75148 3.97399 0
M  V30 12900 H 1284.01 -0.593026 0.576411 0
M  V30 12901 H 1286.55 -0.574885 1.59666 0
M  V30 12902 H 1285.33 -1.63337 3.5558 0
M  V30 12903 H 1284.95 -3.03539 2.56807 0
M  V30 12904 N 1285.95 -1.35615 -0.802897 0
M  V30 12905 C 1287.36 -1.26062 -1.37715 0
M  V30 12906 C 1287.71 0.105411 -1.95917 0
M  V30 12907 O 1286.83 1.00648 -1.91569 0
M  V30 12908 C 1287.43 -2.28261 -2.50365 0
M  V30 12909 C 1285.99 -2.22437 -3.03642 0
M  V30 12910 C 1285.14 -2.1377 -1.76629 0
M  V30 12911 H 1288.09 -1.46689 -0.605631 0
M  V30 12912 H 1288.11 -1.91122 -3.29017 0
M  V30 12913 H 1287.62 -3.27671 -2.07975 0
M  V30 12914 H 1285.72 -1.2645 -3.50487 0
M  V30 12915 H 1285.83 -3.14558 -3.61373 0
M  V30 12916 H 1284.2 -1.59806 -1.98328 0
M  V30 12917 H 1284.98 -3.15046 -1.36385 0
M  V30 12918 N 1287.43 1.02549 -1.19673 0
M  V30 12919 C 1288.67 1.76265 -1.00293 0
M  V30 12920 C 1289 1.88555 0.464816 0
M  V30 12921 O 1288.28 1.40484 1.34515 0
M  V30 12922 C 1288.56 3.18688 -1.6766 0
M  V30 12923 C 1288.42 3.14247 -3.21821 0
M  V30 12924 C 1289.73 4.17159 -1.40238 0
M  V30 12925 H 1286.85 0.639837 -0.365756 0
M  V30 12926 H 1289.5 1.19691 -1.4756 0
M  V30 12927 H 1287.65 3.66992 -1.27472 0
M  V30 12928 H 1289.32 2.73815 -3.71245 0
M  V30 12929 H 1287.56 2.51874 -3.53188 0
M  V30 12930 H 1288.23 4.14886 -3.64107 0
M  V30 12931 H 1290.71 3.77471 -1.75086 0
M  V30 12932 H 1289.58 5.14997 -1.89919 0
M  V30 12933 H 1289.84 4.4088 -0.328197 0
M  V30 12934 N 1288.9 1.00119 1.21713 0
M  V30 12935 C 1289.87 0.563409 2.22167 0
M  V30 12936 C 1290.87 -0.35819 1.5676 0
M  V30 12937 O 1292.06 -0.149001 1.73562 0
M  V30 12938 C 1289.19 -0.179365 3.40428 0
M  V30 12939 H 1290.38 1.45189 2.62412 0
M  V30 12940 H 1287.93 0.789286 1.34907 0
M  V30 12941 H 1288.67 -1.08345 3.05666 0
M  V30 12942 H 1288.45 0.482471 3.8912 0
M  V30 12943 H 1289.94 -0.473537 4.14906 0
M  V30 12944 N 1290.38 -1.37203 0.775435 0
M  V30 12945 C 1291.33 -2.30228 0.162388 0
M  V30 12946 C 1292.3 -1.51284 -0.685747 0
M  V30 12947 O 1293.48 -1.7984 -0.637342 0
M  V30 12948 C 1290.62 -3.37762 -0.707858 0
M  V30 12949 C 1289.74 -4.31714 0.157287 0
M  V30 12950 C 1288.87 -5.26325 -0.718012 0
M  V30 12951 C 1287.91 -6.11918 0.149442 0
M  V30 12952 N 1287.05 -6.9876 -0.684043 0
M  V30 12953 H 1291.89 -2.82073 0.961184 0
M  V30 12954 H 1289.42 -1.38854 0.485587 0
M  V30 12955 H 1291.38 -3.98741 -1.22726 0
M  V30 12956 H 1290.01 -2.87273 -1.47222 0
M  V30 12957 H 1289.06 -3.7201 0.794533 0
M  V30 12958 H 1290.38 -4.91909 0.826262 0
M  V30 12959 H 1289.53 -5.92526 -1.30376 0
M  V30 12960 H 1288.27 -4.6655 -1.42066 0
M  V30 12961 H 1287.27 -5.44692 0.747697 0
M  V30 12962 H 1288.5 -6.73766 0.849476 0
M  V30 12963 H 1286.45 -6.41508 -1.37124 0
M  V30 12964 H 1286.36 -7.55965 -0.0724464 0
M  V30 12965 H 1287.63 -7.69346 -1.25407 0
M  V30 12966 N 1291.86 -0.526279 -1.48553 0
M  V30 12967 C 1293.11 0.00107127 -2.034 0
M  V30 12968 C 1293.46 1.32343 -1.39654 0
M  V30 12969 O 1292.75 1.84071 -0.531835 0
M  V30 12970 C 1292.95 0.184075 -3.56926 0
M  V30 12971 C 1292.78 -1.11899 -4.35556 0
M  V30 12972 C 1291.55 -1.67784 -4.76631 0
M  V30 12973 C 1293.74 -2.02868 -4.72598 0
M  V30 12974 N 1291.73 -2.92418 -5.39783 0
M  V30 12975 C 1293.1 -3.12078 -5.35731 0
M  V30 12976 C 1295.15 -2.03239 -4.54531 0
M  V30 12977 C 1293.86 -4.21719 -5.82705 0
M  V30 12978 C 1295.88 -3.11872 -5.02484 0
M  V30 12979 C 1295.24 -4.19801 -5.65638 0
M  V30 12980 H 1291.34 -0.0410153 -0.780924 0
M  V30 12981 H 1293.93 -0.706739 -1.8142 0
M  V30 12982 H 1292.1 0.860966 -3.78737 0
M  V30 12983 H 1293.83 0.710699 -3.98411 0
M  V30 12984 H 1290.58 -1.2197 -4.57625 0
M  V30 12985 H 1291.01 -3.55862 -5.75927 0
M  V30 12986 H 1295.65 -1.21092 -4.05088 0
M  V30 12987 H 1293.37 -5.04647 -6.31155 0
M  V30 12988 H 1296.95 -3.1321 -4.90297 0
M  V30 12989 H 1295.83 -5.02475 -6.0207 0
M  V30 12990 N 1293.34 1.5542 -0.261239 0
M  V30 12991 C 1294.58 2.00312 0.353075 0
M  V30 12992 C 1294.94 1.14642 1.54515 0
M  V30 12993 O 1294.23 0.205242 1.90498 0
M  V30 12994 C 1294.43 3.48354 0.799021 0
M  V30 12995 C 1294.25 4.48349 -0.348302 0
M  V30 12996 C 1293.02 4.98476 -0.827623 0
M  V30 12997 C 1295.22 5.00577 -1.18015 0
M  V30 12998 N 1293.2 5.82245 -1.94586 0
M  V30 12999 C 1294.58 5.81657 -2.14651 0
M  V30 13000 C 1296.63 4.82846 -1.21508 0
M  V30 13001 C 1295.33 6.46898 -3.14508 0
M  V30 13002 C 1297.36 5.48876 -2.20202 0
M  V30 13003 C 1296.72 6.29756 -3.15573 0
M  V30 13004 H 1292.82 0.776238 0.0947564 0
M  V30 13005 H 1295.4 1.90914 -0.382094 0
M  V30 13006 H 1293.58 3.58122 1.50345 0
M  V30 13007 H 1295.31 3.80099 1.3895 0
M  V30 13008 H 1292.06 4.71828 -0.409293 0
M  V30 13009 H 1292.49 6.28824 -2.50817 0
M  V30 13010 H 1297.13 4.19933 -0.491573 0
M  V30 13011 H 1294.85 7.08969 -3.87799 0
M  V30 13012 H 1298.43 5.37105 -2.23629 0
M  V30 13013 H 1297.31 6.79947 -3.90694 0
M  V30 13014 N 1294.82 -0.0116844 1.57596 0
M  V30 13015 C 1295.78 -0.991601 2.0664 0
M  V30 13016 C 1296.78 -1.27973 0.973629 0
M  V30 13017 O 1297.97 -1.22686 1.23668 0
M  V30 13018 C 1295.1 -2.31975 2.49801 0
M  V30 13019 H 1296.29 -0.567607 2.9448 0
M  V30 13020 H 1293.85 -0.258906 1.54141 0
M  V30 13021 H 1294.58 -2.79087 1.65169 0
M  V30 13022 H 1294.37 -2.12386 3.29598 0
M  V30 13023 H 1295.86 -3.02294 2.88112 0
M  V30 13024 N 1296.29 -1.55015 -0.284256 0
M  V30 13025 C 1297.52 -1.79431 -1.04016 0
M  V30 13026 C 1297.94 -0.560254 -1.79563 0
M  V30 13027 O 1297.3 0.489804 -1.74558 0
M  V30 13028 C 1297.35 -3.01162 -1.98328 0
M  V30 13029 O 1296.45 -2.75459 -3.06914 0
M  V30 13030 H 1295.79 -0.593391 -0.297965 0
M  V30 13031 H 1298.32 -2.02136 -0.316585 0
M  V30 13032 H 1298.33 -3.29589 -2.40489 0
M  V30 13033 H 1297.01 -3.90634 -1.42751 0
M  V30 13034 H 1295.59 -2.58096 -2.69148 0
M  V30 13035 N 1297.77 0.548248 -1.47757 0
M  V30 13036 C 1298.7 1.66409 -1.63799 0
M  V30 13037 C 1299.68 1.62973 -0.487211 0
M  V30 13038 O 1300.87 1.80455 -0.717612 0
M  V30 13039 C 1298 3.05035 -1.66046 0
M  V30 13040 C 1296.95 3.23322 -2.80441 0
M  V30 13041 C 1296.28 4.62824 -2.67765 0
M  V30 13042 C 1297.58 3.07837 -4.2194 0
M  V30 13043 H 1299.27 1.53239 -2.57212 0
M  V30 13044 H 1296.82 0.735783 -1.23783 0
M  V30 13045 H 1298.77 3.82951 -1.75859 0
M  V30 13046 H 1297.49 3.19185 -0.69199 0
M  V30 13047 H 1296.15 2.47816 -2.70153 0
M  V30 13048 H 1295.8 4.73786 -1.68927 0
M  V30 13049 H 1295.5 4.76007 -3.44515 0
M  V30 13050 H 1297.03 5.42864 -2.7952 0
M  V30 13051 H 1298.44 3.75563 -4.33157 0
M  V30 13052 H 1296.84 3.32525 -4.99547 0
M  V30 13053 H 1297.91 2.04474 -4.3968 0
M  V30 13054 N 1299.25 1.36039 0.795694 0
M  V30 13055 C 1300.48 1.33059 1.58439 0
M  V30 13056 C 1300.89 -0.0895496 1.88588 0
M  V30 13057 O 1300.25 -1.04466 1.49643 0
M  V30 13058 C 1300.3 2.14594 2.90915 0
M  V30 13059 O 1300.02 3.51072 2.62069 0
M  V30 13060 C 1301.52 2.19324 3.85242 0
M  V30 13061 H 1298.74 0.456668 0.491625 0
M  V30 13062 H 1301.29 1.79048 0.988035 0
M  V30 13063 H 1299.44 1.72177 3.47036 0
M  V30 13064 H 1299.86 3.93545 3.46732 0
M  V30 13065 H 1301.33 2.80744 4.75276 0
M  V30 13066 H 1301.81 1.19496 4.22631 0
M  V30 13067 H 1302.41 2.6195 3.35056 0
M  V30 13068 N 1300.73 -1.01913 1.20215 0
M  V30 13069 C 1301.69 -2.08563 0.950481 0
M  V30 13070 C 1302.69 -1.60634 -0.0729659 0
M  V30 13071 O 1303.88 -1.73437 0.162826 0
M  V30 13072 C 1301.01 -3.38171 0.430453 0
M  V30 13073 H 1302.21 -2.32323 1.89647 0
M  V30 13074 H 1299.76 -1.18674 1.01716 0
M  V30 13075 H 1300.49 -3.20086 -0.521126 0
M  V30 13076 H 1300.28 -3.74284 1.1685 0
M  V30 13077 H 1301.77 -4.16702 0.273781 0
M  V30 13078 N 1302.21 -1.00763 -1.2118 0
M  V30 13079 C 1303.45 -0.692851 -1.90598 0
M  V30 13080 C 1303.79 0.774698 -1.78079 0
M  V30 13081 O 1303.06 1.56186 -1.15914 0
M  V30 13082 C 1303.34 -1.11792 -3.42308 0
M  V30 13083 C 1303.2 -2.64511 -3.63805 0
M  V30 13084 C 1304.52 -0.682314 -4.34779 0
M  V30 13085 H 1301.63 -0.253175 -0.69215 0
M  V30 13086 H 1304.28 -1.25378 -1.4276 0
M  V30 13087 H 1302.43 -0.640665 -3.83181 0
M  V30 13088 H 1304.1 -3.20021 -3.32242 0
M  V30 13089 H 1302.34 -3.05903 -3.0758 0
M  V30 13090 H 1303.01 -2.89306 -4.70113 0
M  V30 13091 H 1305.49 -1.09247 -4.01503 0
M  V30 13092 H 1304.36 -1.00787 -5.39568 0
M  V30 13093 H 1304.63 0.416441 -4.40134 0
M  V30 13094 N 1303.68 1.3679 -0.7827 0
M  V30 13095 C 1304.93 1.99712 -0.352533 0
M  V30 13096 C 1305.26 1.61984 1.0712 0
M  V30 13097 O 1304.54 0.871342 1.7389 0
M  V30 13098 C 1304.82 3.5649 -0.508628 0
M  V30 13099 C 1304.67 4.04093 -1.97557 0
M  V30 13100 C 1305.99 4.40026 0.0804447 0
M  V30 13101 H 1303.11 0.725522 -0.129566 0
M  V30 13102 H 1305.75 1.62305 -0.987788 0
M  V30 13103 H 1303.9 3.88487 0.0321664 0
M  V30 13104 H 1305.58 3.82613 -2.57691 0
M  V30 13105 H 1303.82 3.55881 -2.48055 0
M  V30 13106 H 1304.49 5.13088 -2.03579 0
M  V30 13107 H 1306.97 4.14351 -0.381113 0
M  V30 13108 H 1305.84 5.48868 -0.0588424 0
M  V30 13109 H 1306.1 4.26285 1.17189 0
M  V30 13110 N 1305.16 0.53415 1.48272 0
M  V30 13111 C 1306.41 -0.000450626 2.017 0
M  V30 13112 C 1306.72 -1.34926 1.41613 0
M  V30 13113 O 1307.93 -1.97246 1.86564 0
M  V30 13114 C 1306.39 -0.0511883 3.59864 0
M  V30 13115 C 1305.99 1.29298 4.28936 0
M  V30 13116 C 1307.74 -0.534397 4.21123 0
M  V30 13117 C 1305.65 1.2026 5.79044 0
M  V30 13118 H 1304.58 -0.00393844 0.75399 0
M  V30 13119 H 1307.23 0.678554 1.70493 0
M  V30 13120 H 1305.61 -0.795358 3.8793 0
M  V30 13121 H 1306.78 2.05305 4.12537 0
M  V30 13122 H 1305.1 1.71226 3.79566 0
M  V30 13123 H 1307.69 -0.620048 5.31093 0
M  V30 13124 H 1308.04 -1.54114 3.86723 0
M  V30 13125 H 1308.57 0.154215 3.97501 0
M  V30 13126 H 1305.31 2.18463 6.18025 0
M  V30 13127 H 1304.83 0.483971 5.97844 0
M  V30 13128 H 1306.51 0.895005 6.4078 0
M  V30 13129 N 1306.64 -1.55279 0.269478 0
M  V30 13130 C 1307.59 -2.18984 -0.634838 0
M  V30 13131 C 1308.57 -1.15269 -1.12258 0
M  V30 13132 O 1309.77 -1.41103 -1.0686 0
M  V30 13133 C 1306.9 -2.91014 -1.82114 0
M  V30 13134 C 1305.98 -4.02011 -1.35084 0
M  V30 13135 N 1306.37 -5.02273 -0.596299 0
M  V30 13136 C 1304.67 -4.14979 -1.63427 0
M  V30 13137 C 1305.37 -5.80647 -0.349781 0
M  V30 13138 N 1304.35 -5.35749 -0.92057 0
M  V30 13139 H 1308.15 -2.93857 -0.0504516 0
M  V30 13140 H 1305.66 -1.62237 0.0727843 0
M  V30 13141 H 1307.66 -3.35098 -2.48022 0
M  V30 13142 H 1306.32 -2.1765 -2.40953 0
M  V30 13143 H 1307.33 -5.17324 -0.244188 0
M  V30 13144 H 1304.01 -3.52802 -2.23242 0
M  V30 13145 H 1305.4 -6.71419 0.254139 0
M  V30 13146 N 1308.12 0.00332656 -1.576 0
M  V30 13147 C 1309.36 0.684275 -1.91544 0
M  V30 13148 C 1309.72 1.71565 -0.870814 0
M  V30 13149 O 1309.01 1.9124 0.117405 0
M  V30 13150 C 1309.21 1.37237 -3.30001 0
M  V30 13151 C 1309.04 0.409158 -4.47835 0
M  V30 13152 C 1307.81 0.0207716 -5.05296 0
M  V30 13153 C 1310 -0.323226 -5.13283 0
M  V30 13154 N 1307.99 -0.941002 -6.06645 0
M  V30 13155 C 1309.36 -1.13979 -6.09433 0
M  V30 13156 C 1311.41 -0.387419 -4.9639 0
M  V30 13157 C 1310.11 -2.0147 -6.90509 0
M  V30 13158 C 1312.14 -1.24954 -5.78049 0
M  V30 13159 C 1311.5 -2.05396 -6.73789 0
M  V30 13160 H 1307.6 0.223698 -0.749322 0
M  V30 13161 H 1310.19 -0.0562395 -1.94619 0
M  V30 13162 H 1308.36 2.0832 -3.27807 0
M  V30 13163 H 1310.09 2.00775 -3.51385 0
M  V30 13164 H 1306.84 0.38844 -4.72004 0
M  V30 13165 H 1307.27 -1.41716 -6.62001 0
M  V30 13166 H 1311.91 0.220225 -4.22226 0
M  V30 13167 H 1309.63 -2.63303 -7.64001 0
M  V30 13168 H 1313.21 -1.30308 -5.6702 0
M  V30 13169 H 1312.09 -2.71028 -7.35876 0
M  V30 13170 N 1309.6 1.55164 0.276031 0
M  V30 13171 C 1310.53 1.90844 1.34539 0
M  V30 13172 C 1311.51 0.769968 1.51676 0
M  V30 13173 O 1312.69 1.02785 1.64769 0
M  V30 13174 C 1309.82 2.17769 2.70543 0
M  V30 13175 C 1308.78 3.33592 2.68142 0
M  V30 13176 C 1308.1 3.45991 4.07669 0
M  V30 13177 C 1309.4 4.70064 2.27678 0
M  V30 13178 H 1311.1 2.80412 1.04926 0
M  V30 13179 H 1308.64 1.34918 0.503303 0
M  V30 13180 H 1310.6 2.41317 3.45462 0
M  V30 13181 H 1309.32 1.24997 3.01734 0
M  V30 13182 H 1307.98 3.10007 1.95681 0
M  V30 13183 H 1307.63 2.50691 4.36077 0
M  V30 13184 H 1307.33 4.23862 4.06958 0
M  V30 13185 H 1308.85 3.71828 4.84331 0
M  V30 13186 H 1310.26 4.93176 2.92319 0
M  V30 13187 H 1308.66 5.50829 2.38134 0
M  V30 13188 H 1309.73 4.69091 1.22808 0
M  V30 13189 N 1311.07 -0.540404 1.48045 0
M  V30 13190 C 1312.49 -0.867958 1.33935 0
M  V30 13191 C 1312.69 -1.98568 0.342488 0
M  V30 13192 O 1311.75 -2.51357 -0.240022 0
M  V30 13193 C 1313.06 -1.24532 2.73701 0
M  V30 13194 C 1314.61 -1.3558 2.82112 0
M  V30 13195 C 1315.08 -1.76664 4.22556 0
M  V30 13196 N 1316.57 -1.83785 4.25179 0
M  V30 13197 C 1317.31 -2.16938 5.30778 0
M  V30 13198 N 1316.8 -2.48587 6.46666 0
M  V30 13199 N 1318.6 -2.17855 5.18166 0
M  V30 13200 H 1310.75 0.197251 2.11482 0
M  V30 13201 H 1313.01 0.0255947 0.947654 0
M  V30 13202 H 1312.72 -0.497731 3.4816 0
M  V30 13203 H 1312.59 -2.19779 3.06556 0
M  V30 13204 H 1314.98 -2.09417 2.07915 0
M  V30 13205 H 1315.06 -0.384787 2.52889 0
M  V30 13206 H 1314.7 -1.03391 4.97265 0
M  V30 13207 H 1314.63 -2.74797 4.49215 0
M  V30 13208 H 1317.12 -1.61645 3.41583 0
M  V30 13209 H 1317.44 -2.72959 7.22989 0
M  V30 13210 H 1315.78 -2.4613 6.49958 0
M  V30 13211 H 1318.97 -1.9258 4.2665 0
M  V30 13212 H 1319.15 -2.43361 6.00566 0
M  V30 13213 N 1312.55 -1.36459 -0.788468 0
M  V30 13214 C 1313.97 -1.16893 -1.08666 0
M  V30 13215 C 1314.17 0.00633808 -2.01499 0
M  V30 13216 O 1313.22 0.671417 -2.4341 0
M  V30 13217 C 1314.54 -2.48018 -1.70022 0
M  V30 13218 C 1316.09 -2.5439 -1.82358 0
M  V30 13219 C 1316.56 -3.85605 -2.47129 0
M  V30 13220 N 1318.05 -3.86956 -2.54597 0
M  V30 13221 C 1318.79 -4.85224 -3.05525 0
M  V30 13222 N 1318.28 -5.93885 -3.56753 0
M  V30 13223 N 1320.08 -4.72643 -3.04246 0
M  V30 13224 H 1312.23 -2.11705 -0.171733 0
M  V30 13225 H 1314.49 -0.937784 -0.1388 0
M  V30 13226 H 1314.2 -3.34292 -1.09277 0
M  V30 13227 H 1314.07 -2.63894 -2.69518 0
M  V30 13228 H 1316.46 -1.68534 -2.4224 0
M  V30 13229 H 1316.54 -2.42414 -0.816651 0
M  V30 13230 H 1316.18 -4.71868 -1.87891 0
M  V30 13231 H 1316.11 -3.94878 -3.48395 0
M  V30 13232 H 1318.6 -3.08453 -2.18323 0
M  V30 13233 H 1318.92 -6.64839 -3.93966 0
M  V30 13234 H 1317.26 -5.97553 -3.54902 0
M  V30 13235 H 1320.45 -3.86883 -2.63513 0
M  V30 13236 H 1320.62 -5.49385 -3.43627 0
M  V30 13237 N 1314.03 1.01274 -1.20754 0
M  V30 13238 C 1315.31 1.7213 -0.929008 0
M  V30 13239 C 1315.69 2.03503 0.561217 0
M  V30 13240 O 1315.04 1.70259 1.52395 0
M  V30 13241 C 1315.25 2.98636 -1.80603 0
M  V30 13242 C 1316.59 3.71823 -2.0502 0
M  V30 13243 O 1317.62 3.08601 -1.77888 0
M  V30 13244 O 1316.48 4.8552 -2.50864 0
M  V30 13245 H 1313.57 0.750361 -0.347689 0
M  V30 13246 H 1316.12 1.07086 -1.31646 0
M  V30 13247 H 1314.89 2.71803 -2.81494 0
M  V30 13248 H 1314.51 3.7142 -1.4189 0
M  V30 13249 N 1315.51 1.01404 1.20644 0
M  V30 13250 C 1316.42 0.591693 2.27016 0
M  V30 13251 C 1317.44 -0.36958 1.7003 0
M  V30 13252 O 1318.61 -0.231165 2.00069 0
M  V30 13253 C 1315.68 -0.0659827 3.46637 0
M  V30 13254 C 1314.74 0.940911 4.18862 0
M  V30 13255 C 1313.97 0.314526 5.32772 0
M  V30 13256 O 1314.19 -0.886404 5.63471 0
M  V30 13257 O 1313.13 1.02998 5.93022 0
M  V30 13258 H 1316.95 1.4772 2.65353 0
M  V30 13259 H 1314.54 0.783399 1.27213 0
M  V30 13260 H 1316.42 -0.433412 4.19165 0
M  V30 13261 H 1315.1 -0.925729 3.10181 0
M  V30 13262 H 1314 1.35966 3.48517 0
M  V30 13263 H 1315.34 1.77054 4.59252 0
M  V30 13264 N 1316.99 -1.36373 0.789944 0
M  V30 13265 C 1317.9 -2.3383 0.189873 0
M  V30 13266 C 1318.91 -1.61068 -0.65827 0
M  V30 13267 O 1320.09 -1.93049 -0.573932 0
M  V30 13268 C 1317.15 -3.40264 -0.664905 0
M  V30 13269 C 1316.22 -4.28825 0.201798 0
M  V30 13270 C 1315.45 -5.30176 -0.612278 0
M  V30 13271 O 1315.67 -5.39627 -1.84821 0
M  V30 13272 O 1314.61 -6.01899 -0.0118964 0
M  V30 13273 H 1318.43 -2.86915 0.995671 0
M  V30 13274 H 1316.02 -1.38852 0.551412 0
M  V30 13275 H 1317.9 -4.05339 -1.15231 0
M  V30 13276 H 1316.57 -2.89478 -1.44858 0
M  V30 13277 H 1315.48 -3.66789 0.735974 0
M  V30 13278 H 1316.81 -4.82965 0.949003 0
M  V30 13279 N 1318.47 -0.542005 -1.47987 0
M  V30 13280 C 1319.43 0.203537 -2.28294 0
M  V30 13281 C 1320.43 0.856762 -1.36074 0
M  V30 13282 O 1321.62 0.71496 -1.58852 0
M  V30 13283 C 1318.75 1.29581 -3.15312 0
M  V30 13284 H 1319.94 -0.501701 -2.95674 0
M  V30 13285 H 1317.5 -0.298378 -1.53426 0
M  V30 13286 H 1318.23 2.03393 -2.5259 0
M  V30 13287 H 1318.02 0.832398 -3.83163 0
M  V30 13288 H 1319.51 1.81988 -3.75859 0
M  V30 13289 N 1319.94 1.55134 -0.277709 0
M  V30 13290 C 1320.91 2.21327 0.595569 0
M  V30 13291 C 1321.91 1.19193 1.07933 0
M  V30 13292 O 1323.1 1.44081 0.979093 0
M  V30 13293 C 1320.23 2.88127 1.82196 0
M  V30 13294 H 1321.42 2.99895 0.0175855 0
M  V30 13295 H 1318.97 1.56274 -0.0283453 0
M  V30 13296 H 1319.71 2.13578 2.44039 0
M  V30 13297 H 1319.49 3.62974 1.48297 0
M  V30 13298 H 1320.98 3.38691 2.44291 0
M  V30 13299 N 1321.42 0.00503138 1.57599 0
M  V30 13300 C 1322.33 -1.00097 2.12174 0
M  V30 13301 C 1323.35 -1.37353 1.06818 0
M  V30 13302 O 1324.52 -1.45984 1.38747 0
M  V30 13303 C 1321.59 -2.27252 2.61835 0
M  V30 13304 C 1320.65 -1.96262 3.81811 0
M  V30 13305 C 1319.88 -3.17355 4.29094 0
M  V30 13306 O 1320.11 -4.2921 3.75679 0
M  V30 13307 O 1319.04 -3.01059 5.21198 0
M  V30 13308 H 1322.87 -0.567024 2.9836 0
M  V30 13309 H 1320.45 -0.214109 1.47858 0
M  V30 13310 H 1322.33 -3.01944 2.93952 0
M  V30 13311 H 1321.01 -2.69875 1.78744 0
M  V30 13312 H 1319.91 -1.19031 3.54658 0
M  V30 13313 H 1321.25 -1.58473 4.65991 0
M  V30 13314 N 1322.9 -1.55308 -0.267798 0
M  V30 13315 C 1324.32 -1.47264 -0.61526 0
M  V30 13316 C 1324.52 -0.691025 -1.8928 0
M  V30 13317 O 1323.57 -0.211964 -2.51609 0
M  V30 13318 C 1324.88 -2.91519 -0.73739 0
M  V30 13319 C 1326.43 -3.01764 -0.831102 0
M  V30 13320 C 1326.91 -4.47283 -0.984965 0
M  V30 13321 N 1328.4 -4.51134 -1.05036 0
M  V30 13322 C 1329.13 -5.60952 -1.1883 0
M  V30 13323 N 1328.63 -6.80625 -1.29311 0
M  V30 13324 N 1330.42 -5.48705 -1.21982 0
M  V30 13325 H 1322.57 -2.04577 0.57114 0
M  V30 13326 H 1324.84 -0.927908 0.194141 0
M  V30 13327 H 1324.54 -3.51456 0.130974 0
M  V30 13328 H 1324.42 -3.40829 -1.61603 0
M  V30 13329 H 1326.8 -2.4192 -1.68993 0
M  V30 13330 H 1326.88 -2.55698 0.0722509 0
M  V30 13331 H 1326.53 -5.07732 -0.130776 0
M  V30 13332 H 1326.46 -4.91011 -1.90305 0
M  V30 13333 H 1328.95 -3.6493 -0.981551 0
M  V30 13334 H 1329.26 -7.60071 -1.39685 0
M  V30 13335 H 1327.61 -6.83426 -1.26306 0
M  V30 13336 H 1330.8 -4.5415 -1.13428 0
M  V30 13337 H 1330.97 -6.34332 -1.32388 0
M  V30 13338 N 1324.38 0.532545 -1.4833 0
M  V30 13339 C 1325.31 1.64662 -1.65555 0
M  V30 13340 C 1326.29 1.62447 -0.50447 0
M  V30 13341 O 1327.47 1.79684 -0.736712 0
M  V30 13342 C 1324.6 3.03256 -1.69272 0
M  V30 13343 C 1323.56 3.20329 -2.83854 0
M  V30 13344 C 1322.88 4.59958 -2.72659 0
M  V30 13345 C 1324.18 3.03345 -4.25181 0
M  V30 13346 H 1325.88 1.50502 -2.58823 0
M  V30 13347 H 1323.42 0.722612 -1.24556 0
M  V30 13348 H 1325.38 3.81064 -1.79911 0
M  V30 13349 H 1324.1 3.18433 -0.725805 0
M  V30 13350 H 1322.76 2.44937 -2.72766 0
M  V30 13351 H 1322.41 4.71967 -1.73942 0
M  V30 13352 H 1322.11 4.72327 -3.49544 0
M  V30 13353 H 1323.63 5.39869 -2.85262 0
M  V30 13354 H 1325.05 3.70948 -4.37116 0
M  V30 13355 H 1323.44 3.27208 -5.03045 0
M  V30 13356 H 1324.51 1.998 -4.41824 0
M  V30 13357 N 1325.86 1.36875 0.78122 0
M  V30 13358 C 1327.1 1.32949 1.55254 0
M  V30 13359 C 1327.46 -0.0879862 1.91798 0
M  V30 13360 O 1328.66 -0.251878 2.67617 0
M  V30 13361 C 1326.93 2.23382 2.78989 0
M  V30 13362 S 1328.49 2.37218 3.69152 0
M  V30 13363 H 1325.31 0.472105 0.531637 0
M  V30 13364 H 1327.91 1.72529 0.91945 0
M  V30 13365 H 1326.61 3.25307 2.50207 0
M  V30 13366 H 1326.15 1.84852 3.47266 0
M  V30 13367 H 1328.16 1.57575 4.70515 0
M  V30 13368 N 1327.33 -1.00632 1.21289 0
M  V30 13369 C 1328.74 -1.55838 1.02817 0
M  V30 13370 C 1329.1 -1.91816 -0.412425 0
M  V30 13371 O 1328.22 -1.73342 -1.29543 0
M  V30 13372 C 1328.82 -2.83168 1.86014 0
M  V30 13373 C 1327.37 -3.34865 1.71879 0
M  V30 13374 C 1326.52 -2.0807 1.83309 0
M  V30 13375 H 1329.47 -0.828939 1.3533 0
M  V30 13376 H 1329.49 -3.54996 1.36961 0
M  V30 13377 H 1329.01 -2.56951 2.90857 0
M  V30 13378 H 1327.11 -3.6602 0.697153 0
M  V30 13379 H 1327.22 -4.06374 2.53766 0
M  V30 13380 H 1325.58 -2.21006 1.26603 0
M  V30 13381 H 1326.37 -1.84267 2.89656 0
M  V30 13382 N 1328.81 -1.02043 -1.20104 0
M  V30 13383 C 1329.74 -0.614421 -2.25271 0
M  V30 13384 C 1330.72 0.37242 -1.65973 0
M  V30 13385 O 1331.91 0.257005 -1.92492 0
M  V30 13386 C 1329.04 0.0442085 -3.47272 0
M  V30 13387 C 1327.99 -0.864019 -4.19188 0
M  V30 13388 C 1327.32 -0.0709551 -5.34653 0
M  V30 13389 C 1328.62 -2.17385 -4.74912 0
M  V30 13390 H 1330.31 -1.49355 -2.59487 0
M  V30 13391 H 1327.86 -0.719591 -1.24731 0
M  V30 13392 H 1329.81 0.339825 -4.20028 0
M  V30 13393 H 1328.53 0.958082 -3.12231 0
M  V30 13394 H 1327.19 -1.1437 -3.48303 0
M  V30 13395 H 1326.84 0.844688 -4.95857 0
M  V30 13396 H 1326.54 -0.67583 -5.83701 0
M  V30 13397 H 1328.07 0.218118 -6.1021 0
M  V30 13398 H 1329.48 -1.94034 -5.39466 0
M  V30 13399 H 1327.88 -2.72991 -5.34412 0
M  V30 13400 H 1328.95 -2.83427 -3.93443 0
M  V30 13401 N 1330.29 1.35952 -0.797165 0
M  V30 13402 C 1331.54 1.99327 -0.373695 0
M  V30 13403 C 1331.87 1.63111 1.05396 0
M  V30 13404 O 1331.14 0.889736 1.72956 0
M  V30 13405 C 1331.43 3.5593 -0.54641 0
M  V30 13406 C 1331.28 4.01975 -2.01832 0
M  V30 13407 C 1332.6 4.40087 0.0337694 0
M  V30 13408 H 1329.72 0.724107 -0.137254 0
M  V30 13409 H 1332.36 1.61248 -1.00495 0
M  V30 13410 H 1330.51 3.88499 -0.00903959 0
M  V30 13411 H 1332.18 3.79859 -2.61735 0
M  V30 13412 H 1330.43 3.5323 -2.51815 0
M  V30 13413 H 1331.1 5.109 -2.09009 0
M  V30 13414 H 1333.57 4.13923 -0.425039 0
M  V30 13415 H 1332.45 5.48775 -0.117054 0
M  V30 13416 H 1332.71 4.27504 1.12661 0
M  V30 13417 N 1331.77 0.549846 1.47697 0
M  V30 13418 C 1332.68 -0.205286 2.337 0
M  V30 13419 C 1333.69 -0.919271 1.47734 0
M  V30 13420 O 1334.87 -0.889808 1.80678 0
M  V30 13421 C 1331.94 -1.22658 3.24278 0
M  V30 13422 C 1331 -0.520815 4.26129 0
M  V30 13423 C 1330.23 -1.49345 5.12378 0
M  V30 13424 O 1330.45 -2.72772 5.00951 0
M  V30 13425 O 1329.39 -1.02197 5.93161 0
M  V30 13426 H 1333.21 0.499982 2.99556 0
M  V30 13427 H 1330.8 0.310538 1.46137 0
M  V30 13428 H 1332.68 -1.8163 3.80248 0
M  V30 13429 H 1331.35 -1.9139 2.61059 0
M  V30 13430 H 1330.26 0.109906 3.73939 0
M  V30 13431 H 1331.59 0.124922 4.92041 0
M  V30 13432 N 1333.25 -1.54984 0.285932 0
M  V30 13433 C 1334.2 -2.19645 -0.611576 0
M  V30 13434 C 1335.18 -1.16453 -1.11029 0
M  V30 13435 O 1336.37 -1.42228 -1.05357 0
M  V30 13436 C 1333.5 -2.9293 -1.79017 0
M  V30 13437 C 1332.59 -4.03421 -1.30813 0
M  V30 13438 N 1332.98 -5.02877 -0.542993 0
M  V30 13439 C 1331.28 -4.16689 -1.59016 0
M  V30 13440 C 1331.98 -5.80986 -0.288176 0
M  V30 13441 N 1330.95 -5.36695 -0.863695 0
M  V30 13442 H 1334.76 -2.93894 -0.0192813 0
M  V30 13443 H 1332.27 -1.6215 0.0899876 0
M  V30 13444 H 1334.27 -3.37709 -2.44454 0
M  V30 13445 H 1332.93 -2.20194 -2.38631 0
M  V30 13446 H 1333.94 -5.17554 -0.189305 0
M  V30 13447 H 1330.61 -3.5515 -2.19488 0
M  V30 13448 H 1332 -6.71112 0.325337 0
M  V30 13449 N 1334.72 -0.0133892 -1.57594 0
M  V30 13450 C 1335.65 0.972341 -2.12292 0
M  V30 13451 C 1336.64 1.34971 -1.03522 0
M  V30 13452 O 1337.82 1.4311 -1.31275 0
M  V30 13453 C 1334.95 2.25988 -2.63717 0
M  V30 13454 C 1333.9 2.02373 -3.77133 0
M  V30 13455 C 1333.23 3.37256 -4.14925 0
M  V30 13456 C 1334.53 1.37553 -5.03861 0
M  V30 13457 H 1336.22 0.516869 -2.94905 0
M  V30 13458 H 1333.77 0.247176 -1.41863 0
M  V30 13459 H 1335.72 2.95313 -3.00613 0
M  V30 13460 H 1334.45 2.73672 -1.78244 0
M  V30 13461 H 1333.11 1.3547 -3.40651 0
M  V30 13462 H 1332.75 3.82669 -3.26456 0
M  V30 13463 H 1332.45 3.22267 -4.91343 0
M  V30 13464 H 1333.98 4.07875 -4.5439 0
M  V30 13465 H 1335.39 1.96855 -5.38443 0
M  V30 13466 H 1333.79 1.33011 -5.85174 0
M  V30 13467 H 1334.86 0.346429 -4.83661 0
M  V30 13468 N 1336.2 1.55448 0.259558 0
M  V30 13469 C 1337.61 1.67256 0.8296 0
M  V30 13470 C 1337.96 0.60851 1.86525 0
M  V30 13471 O 1337.09 -0.247563 2.14979 0
M  V30 13472 C 1337.68 3.03213 1.51152 0
M  V30 13473 C 1336.24 3.17004 2.02943 0
M  V30 13474 C 1335.39 2.63096 0.876103 0
M  V30 13475 H 1338.34 1.5866 0.0356218 0
M  V30 13476 H 1338.36 2.96952 2.37906 0
M  V30 13477 H 1337.87 3.80635 0.75752 0
M  V30 13478 H 1335.98 2.44381 2.81263 0
M  V30 13479 H 1336.09 4.23748 2.2355 0
M  V30 13480 H 1334.45 2.20596 1.27317 0
M  V30 13481 H 1335.24 3.43033 0.13539 0
M  V30 13482 N 1337.68 -0.524672 1.4861 0
M  V30 13483 C 1339.1 -0.853703 1.34848 0
M  V30 13484 C 1339.3 -1.98194 0.363529 0
M  V30 13485 O 1338.35 -2.51597 -0.213348 0
M  V30 13486 C 1339.67 -1.21622 2.75006 0
M  V30 13487 C 1341.21 -1.3258 2.83534 0
M  V30 13488 C 1341.69 -1.72172 4.24406 0
M  V30 13489 N 1343.18 -1.79265 4.27105 0
M  V30 13490 C 1343.91 -2.11296 5.33049 0
M  V30 13491 N 1343.41 -2.41714 6.49266 0
M  V30 13492 N 1345.2 -2.12347 5.20447 0
M  V30 13493 H 1337.35 0.219671 2.11261 0
M  V30 13494 H 1339.62 0.0356444 0.94733 0
M  V30 13495 H 1339.32 -0.460776 3.48669 0
M  V30 13496 H 1339.2 -2.16516 3.0887 0
M  V30 13497 H 1341.58 -2.072 2.10124 0
M  V30 13498 H 1341.67 -0.357943 2.53283 0
M  V30 13499 H 1341.31 -0.981108 4.98334 0
M  V30 13500 H 1341.24 -2.70017 4.52104 0
M  V30 13501 H 1343.73 -1.58013 3.43279 0
M  V30 13502 H 1344.04 -2.65276 7.25843 0
M  V30 13503 H 1342.39 -2.39222 6.52532 0
M  V30 13504 H 1345.58 -1.88044 4.28669 0
M  V30 13505 H 1345.75 -2.36978 6.03113 0
M  V30 13506 N 1339.16 -1.37287 -0.77395 0
M  V30 13507 C 1340.4 -1.3257 -1.5347 0
M  V30 13508 C 1340.74 0.090346 -1.9399 0
M  V30 13509 O 1340.01 1.04719 -1.63903 0
M  V30 13510 C 1340.3 -2.26277 -2.80126 0
M  V30 13511 C 1340.15 -3.76651 -2.45874 0
M  V30 13512 C 1341.47 -2.18471 -3.82045 0
M  V30 13513 H 1338.59 -0.48289 -0.556764 0
M  V30 13514 H 1341.23 -1.6797 -0.888039 0
M  V30 13515 H 1339.38 -1.96219 -3.35306 0
M  V30 13516 H 1341.05 -4.17296 -1.96626 0
M  V30 13517 H 1339.29 -3.95327 -1.78602 0
M  V30 13518 H 1339.96 -4.3765 -3.36403 0
M  V30 13519 H 1342.44 -2.44962 -3.36352 0
M  V30 13520 H 1341.32 -2.86183 -4.68392 0
M  V30 13521 H 1341.58 -1.17692 -4.26147 0
M  V30 13522 N 1340.64 0.999871 -1.21821 0
M  V30 13523 C 1341.57 2.10708 -1.00621 0
M  V30 13524 C 1342.55 1.69954 0.0705417 0
M  V30 13525 O 1343.73 1.9399 -0.0903042 0
M  V30 13526 C 1340.86 3.42496 -0.575646 0
M  V30 13527 C 1339.82 3.97068 -1.59754 0
M  V30 13528 C 1339.14 5.24822 -1.02304 0
M  V30 13529 C 1340.44 4.28545 -2.98574 0
M  V30 13530 H 1342.14 2.28701 -1.93226 0
M  V30 13531 H 1339.68 1.09903 -0.930443 0
M  V30 13532 H 1341.64 4.19357 -0.414481 0
M  V30 13533 H 1340.36 3.2431 0.386059 0
M  V30 13534 H 1339.02 3.22332 -1.74636 0
M  V30 13535 H 1338.67 5.02972 -0.0529016 0
M  V30 13536 H 1338.37 5.62299 -1.70567 0
M  V30 13537 H 1339.89 6.04322 -0.873312 0
M  V30 13538 H 1341.3 4.96229 -2.87106 0
M  V30 13539 H 1339.7 4.77178 -3.63897 0
M  V30 13540 H 1340.77 3.36607 -3.49032 0
M  V30 13541 N 1342.11 1.02678 1.19562 0
M  V30 13542 C 1343.05 0.563882 2.22155 0
M  V30 13543 C 1344.06 -0.359132 1.58789 0
M  V30 13544 O 1345.25 -0.155857 1.77818 0
M  V30 13545 C 1342.35 -0.197894 3.38322 0
M  V30 13546 C 1341.52 0.729542 4.31273 0
M  V30 13547 C 1340.58 0.013543 5.26198 0
M  V30 13548 O 1339.61 0.639417 5.65597 0
M  V30 13549 N 1340.81 -1.25791 5.66707 0
M  V30 13550 H 1343.57 1.44623 2.62496 0
M  V30 13551 H 1341.13 0.90555 1.34207 0
M  V30 13552 H 1343.13 -0.686381 3.98837 0
M  V30 13553 H 1341.7 -0.981632 2.96787 0
M  V30 13554 H 1340.92 1.39816 3.68572 0
M  V30 13555 H 1342.2 1.35994 4.90289 0
M  V30 13556 H 1341.6 -1.78716 5.36728 0
M  V30 13557 H 1340.16 -1.69093 6.29485 0
M  V30 13558 N 1343.59 -1.35528 0.804364 0
M  V30 13559 C 1344.5 -2.33616 0.214663 0
M  V30 13560 C 1345.52 -1.61757 -0.64115 0
M  V30 13561 O 1346.69 -1.93647 -0.553424 0
M  V30 13562 C 1343.76 -3.40951 -0.628778 0
M  V30 13563 C 1342.82 -4.28587 0.247269 0
M  V30 13564 C 1342.05 -5.30796 -0.556012 0
M  V30 13565 O 1342.28 -5.41557 -1.79088 0
M  V30 13566 O 1341.21 -6.01878 0.0519437 0
M  V30 13567 H 1345.04 -2.85843 1.02605 0
M  V30 13568 H 1342.62 -1.38259 0.566108 0
M  V30 13569 H 1344.5 -4.06538 -1.10926 0
M  V30 13570 H 1343.18 -2.90999 -1.4178 0
M  V30 13571 H 1342.09 -3.65988 0.774835 0
M  V30 13572 H 1343.42 -4.81931 1.00017 0
M  V30 13573 N 1345.07 -0.557671 -1.47404 0
M  V30 13574 C 1346.3 -0.0366797 -2.07368 0
M  V30 13575 C 1346.72 1.2478 -1.40754 0
M  V30 13576 O 1346.08 1.74757 -0.48268 0
M  V30 13577 C 1346.13 0.141728 -3.60321 0
M  V30 13578 O 1345.23 1.20419 -3.94427 0
M  V30 13579 H 1344.57 -0.0515319 -0.661997 0
M  V30 13580 H 1347.1 -0.773485 -1.89416 0
M  V30 13581 H 1347.11 0.355787 -4.06446 0
M  V30 13582 H 1345.79 -0.796433 -4.08203 0
M  V30 13583 H 1344.36 0.970589 -3.60047 0
M  V30 13584 N 1346.55 1.54831 -0.294147 0
M  V30 13585 C 1347.46 2.26939 0.594621 0
M  V30 13586 C 1348.48 1.30209 1.15419 0
M  V30 13587 O 1349.65 1.6318 1.18044 0
M  V30 13588 C 1346.72 2.9909 1.75345 0
M  V30 13589 C 1345.78 4.11342 1.22865 0
M  V30 13590 C 1345.01 4.80043 2.33225 0
M  V30 13591 O 1345.23 4.48062 3.52983 0
M  V30 13592 O 1344.17 5.67593 2.00304 0
M  V30 13593 H 1347.99 3.03698 0.00989235 0
M  V30 13594 H 1345.58 1.49276 -0.0608528 0
M  V30 13595 H 1347.46 3.44369 2.42875 0
M  V30 13596 H 1346.14 2.25232 2.32492 0
M  V30 13597 H 1345.04 3.70478 0.519279 0
M  V30 13598 H 1346.38 4.87158 0.702703 0
M  V30 13599 N 1348.03 0.0217466 1.57585 0
M  V30 13600 C 1349.44 -0.334576 1.56054 0
M  V30 13601 C 1349.64 -1.73386 1.02663 0
M  V30 13602 O 1348.7 -2.43447 0.670078 0
M  V30 13603 C 1350.01 -0.189919 3.001 0
M  V30 13604 C 1351.56 -0.263238 3.11891 0
M  V30 13605 C 1352.04 -0.147455 4.57763 0
M  V30 13606 N 1353.53 -0.204672 4.62748 0
M  V30 13607 C 1354.26 -0.138755 5.73232 0
M  V30 13608 N 1353.76 -0.0221762 6.92796 0
M  V30 13609 N 1355.55 -0.192206 5.61771 0
M  V30 13610 H 1347.7 0.936849 1.90622 0
M  V30 13611 H 1349.96 0.361119 0.876526 0
M  V30 13612 H 1349.67 0.773687 3.43084 0
M  V30 13613 H 1349.54 -0.963148 3.64696 0
M  V30 13614 H 1351.93 -1.2173 2.68823 0
M  V30 13615 H 1352.01 0.540241 2.5003 0
M  V30 13616 H 1351.66 0.803155 5.0151 0
M  V30 13617 H 1351.59 -0.969703 5.17595 0
M  V30 13618 H 1354.08 -0.29522 3.76745 0
M  V30 13619 H 1354.39 0.021631 7.72797 0
M  V30 13620 H 1352.74 0.0125033 6.94999 0
M  V30 13621 H 1355.93 -0.28163 4.67252 0
M  V30 13622 H 1356.1 -0.137372 6.47854 0
M  V30 13623 N 1349.51 -1.55583 -0.251311 0
M  V30 13624 C 1350.92 -1.67693 -0.820719 0
M  V30 13625 C 1351.27 -0.618393 -1.862 0
M  V30 13626 O 1350.39 0.236158 -2.15108 0
M  V30 13627 C 1350.99 -3.04011 -1.49542 0
M  V30 13628 C 1349.55 -3.18075 -2.01259 0
M  V30 13629 C 1348.69 -2.63557 -0.862138 0
M  V30 13630 H 1351.64 -1.58677 -0.0272072 0
M  V30 13631 H 1351.67 -2.9821 -2.36328 0
M  V30 13632 H 1351.18 -3.81032 -0.737323 0
M  V30 13633 H 1349.28 -2.45869 -2.79963 0
M  V30 13634 H 1349.39 -4.24927 -2.213 0
M  V30 13635 H 1347.76 -2.21268 -1.26145 0
M  V30 13636 H 1348.54 -3.431 -0.117196 0
M  V30 13637 N 1350.98 0.516783 -1.48886 0
M  V30 13638 C 1351.91 1.62897 -1.67292 0
M  V30 13639 C 1352.89 1.61903 -0.521671 0
M  V30 13640 O 1354.08 1.78892 -0.755728 0
M  V30 13641 C 1351.21 3.01444 -1.72478 0
M  V30 13642 C 1350.16 3.173 -2.87236 0
M  V30 13643 C 1349.49 4.5704 -2.77522 0
M  V30 13644 C 1350.79 2.98818 -4.28375 0
M  V30 13645 H 1352.48 1.47748 -2.60405 0
M  V30 13646 H 1350.03 0.709361 -1.25316 0
M  V30 13647 H 1351.98 3.79135 -1.83942 0
M  V30 13648 H 1350.71 3.17645 -0.759538 0
M  V30 13649 H 1349.37 2.4203 -2.75349 0
M  V30 13650 H 1349.01 4.70096 -1.78938 0
M  V30 13651 H 1348.71 4.68593 -3.54534 0
M  V30 13652 H 1350.24 5.36813 -2.90972 0
M  V30 13653 H 1351.65 3.66291 -4.41026 0
M  V30 13654 H 1350.05 3.21854 -5.06488 0
M  V30 13655 H 1351.12 1.95102 -4.43918 0
M  V30 13656 N 1352.46 1.37696 0.766659 0
M  V30 13657 C 1353.87 1.29668 1.34324 0
M  V30 13658 C 1354.22 -0.0534297 1.96127 0
M  V30 13659 O 1353.35 -0.95534 1.94171 0
M  V30 13660 C 1353.94 2.34818 2.44225 0
M  V30 13661 C 1352.5 2.3041 2.97638 0
M  V30 13662 C 1351.65 2.18378 1.70899 0
M  V30 13663 H 1354.6 1.48244 0.566526 0
M  V30 13664 H 1354.62 1.99778 3.23835 0
M  V30 13665 H 1354.13 3.3307 1.99214 0
M  V30 13666 H 1352.23 1.35698 3.47011 0
M  V30 13667 H 1352.35 3.24028 3.52906 0
M  V30 13668 H 1350.71 1.65008 1.94021 0
M  V30 13669 H 1351.49 3.18551 1.27985 0
M  V30 13670 N 1353.94 -0.993397 1.22349 0
M  V30 13671 C 1355.36 -1.25708 0.983345 0
M  V30 13672 C 1355.56 -1.98888 -0.323372 0
M  V30 13673 O 1354.61 -2.2981 -1.04612 0
M  V30 13674 C 1355.92 -2.06935 2.1817 0
M  V30 13675 C 1357.47 -2.20121 2.22521 0
M  V30 13676 C 1357.95 -3.04735 3.41907 0
M  V30 13677 N 1359.44 -3.12322 3.42066 0
M  V30 13678 C 1360.17 -3.78081 4.31095 0
M  V30 13679 N 1359.67 -4.45771 5.3034 0
M  V30 13680 N 1361.46 -3.74837 4.18872 0
M  V30 13681 H 1353.61 -0.502767 2.06364 0
M  V30 13682 H 1355.88 -0.284656 0.904254 0
M  V30 13683 H 1355.58 -1.60525 3.12929 0
M  V30 13684 H 1355.46 -3.0769 2.18189 0
M  V30 13685 H 1357.84 -2.65745 1.28311 0
M  V30 13686 H 1357.92 -1.18798 2.26541 0
M  V30 13687 H 1357.57 -2.59811 4.36418 0
M  V30 13688 H 1357.5 -4.06198 3.35128 0
M  V30 13689 H 1359.99 -2.64146 2.7025 0
M  V30 13690 H 1360.3 -4.93687 5.94553 0
M  V30 13691 H 1358.65 -4.44521 5.34253 0
M  V30 13692 H 1361.84 -3.21116 3.40591 0
M  V30 13693 H 1362.01 -4.25806 4.8846 0
M  V30 13694 N 1355.42 -1.03311 -1.19015 0
M  V30 13695 C 1356.38 -0.622114 -2.20596 0
M  V30 13696 C 1357.38 0.316502 -1.57654 0
M  V30 13697 O 1358.57 0.102932 -1.73896 0
M  V30 13698 C 1355.7 0.0890432 -3.40784 0
M  V30 13699 H 1356.9 -1.52095 -2.58471 0
M  V30 13700 H 1354.45 -0.824777 -1.32767 0
M  V30 13701 H 1355.18 1.00203 -3.08431 0
M  V30 13702 H 1354.97 -0.58547 -3.87704 0
M  V30 13703 H 1356.46 0.363366 -4.16016 0
M  V30 13704 N 1356.9 1.35099 -0.81154 0
M  V30 13705 C 1357.86 2.28033 -0.230947 0
M  V30 13706 C 1358.86 1.49798 0.584575 0
M  V30 13707 O 1360.05 1.6949 0.402336 0
M  V30 13708 C 1357.18 3.341 0.677486 0
M  V30 13709 H 1358.37 2.80893 -1.05067 0
M  V30 13710 H 1355.93 1.45038 -0.582554 0
M  V30 13711 H 1356.66 2.86435 1.5207 0
M  V30 13712 H 1356.45 3.91986 0.0943563 0
M  V30 13713 H 1357.94 4.0345 1.07787 0
M  V30 13714 N 1358.37 0.56548 1.47106 0
M  V30 13715 C 1359.3 -0.16567 2.32912 0
M  V30 13716 C 1360.28 -0.900678 1.44298 0
M  V30 13717 O 1361.47 -0.879523 1.73142 0
M  V30 13718 C 1358.6 -1.19092 3.26243 0
M  V30 13719 C 1357.55 -0.571849 4.24163 0
M  V30 13720 C 1356.88 -1.70233 5.06878 0
M  V30 13721 C 1358.18 0.479785 5.20092 0
M  V30 13722 H 1359.87 0.550705 2.94292 0
M  V30 13723 H 1357.42 0.266284 1.41517 0
M  V30 13724 H 1359.37 -1.71064 3.85117 0
M  V30 13725 H 1358.1 -1.93734 2.62934 0
M  V30 13726 H 1356.76 -0.073353 3.66527 0
M  V30 13727 H 1356.4 -2.438 4.39967 0
M  V30 13728 H 1356.1 -1.29384 5.73178 0
M  V30 13729 H 1357.63 -2.22515 5.68612 0
M  V30 13730 H 1359.04 0.0458042 5.73282 0
M  V30 13731 H 1357.44 0.807615 5.94641 0
M  V30 13732 H 1358.51 1.37259 4.65068 0
M  V30 13733 N 1359.85 -1.54672 0.302354 0
M  V30 13734 C 1360.8 -2.20281 -0.588245 0
M  V30 13735 C 1361.79 -1.17624 -1.09788 0
M  V30 13736 O 1362.98 -1.43338 -1.03842 0
M  V30 13737 C 1360.11 -2.94812 -1.759 0
M  V30 13738 C 1359.19 -4.04786 -1.26526 0
M  V30 13739 N 1359.58 -5.03425 -0.489625 0
M  V30 13740 C 1357.88 -4.18352 -1.54588 0
M  V30 13741 C 1358.58 -5.81259 -0.226538 0
M  V30 13742 N 1357.56 -5.37581 -0.806723 0
M  V30 13743 H 1361.36 -2.93898 0.0118911 0
M  V30 13744 H 1358.88 -1.62046 0.107181 0
M  V30 13745 H 1360.87 -3.40283 -2.40859 0
M  V30 13746 H 1359.53 -2.22712 -2.36282 0
M  V30 13747 H 1360.54 -5.17726 -0.134401 0
M  V30 13748 H 1357.22 -3.57458 -2.15709 0
M  V30 13749 H 1358.61 -6.70729 0.396499 0
M  V30 13750 N 1361.33 -0.0301034 -1.57571 0
M  V30 13751 C 1362.56 0.662045 -1.9655 0
M  V30 13752 C 1362.98 1.64811 -0.906581 0
M  V30 13753 O 1362.34 1.80816 0.132415 0
M  V30 13754 C 1362.39 1.34389 -3.34622 0
M  V30 13755 O 1361.49 2.45919 -3.31056 0
M  V30 13756 H 1360.83 0.173842 -0.640839 0
M  V30 13757 H 1363.36 -0.092248 -2.04392 0
M  V30 13758 H 1363.37 1.70045 -3.70875 0
M  V30 13759 H 1362.05 0.621092 -4.11236 0
M  V30 13760 H 1360.62 2.12367 -3.06521 0
M  V30 13761 N 1362.81 1.55714 0.243056 0
M  V30 13762 C 1364.06 1.77726 0.970555 0
M  V30 13763 C 1364.38 0.595108 1.85172 0
M  V30 13764 O 1363.64 -0.42143 1.91108 0
M  V30 13765 C 1363.94 3.05281 1.85845 0
M  V30 13766 C 1363.6 4.36451 1.13232 0
M  V30 13767 C 1362.27 4.72095 0.931656 0
M  V30 13768 C 1364.62 5.17524 0.617944 0
M  V30 13769 C 1361.95 5.86344 0.204373 0
M  V30 13770 C 1364.3 6.32527 -0.0958899 0
M  V30 13771 C 1362.96 6.66789 -0.308 0
M  V30 13772 H 1362.23 0.650345 0.355151 0
M  V30 13773 H 1364.88 1.89986 0.240351 0
M  V30 13774 H 1363.18 2.8805 2.65584 0
M  V30 13775 H 1364.88 3.19511 2.4231 0
M  V30 13776 H 1361.47 4.08451 1.29867 0
M  V30 13777 H 1365.65 4.90439 0.760507 0
M  V30 13778 H 1360.91 6.11393 0.0296 0
M  V30 13779 H 1365.08 6.94588 -0.502077 0
M  V30 13780 H 1362.71 7.55165 -0.873502 0
M  V30 13781 N 1364.29 -0.50888 1.49158 0
M  V30 13782 C 1365.23 -1.61129 1.65246 0
M  V30 13783 C 1366.2 -1.58582 0.49405 0
M  V30 13784 O 1367.39 -1.76689 0.720122 0
M  V30 13785 C 1364.53 -2.99311 1.71776 0
M  V30 13786 C 1363.64 -3.11933 2.98868 0
M  V30 13787 C 1362.78 -4.408 2.96426 0
M  V30 13788 C 1361.82 -4.47027 4.18131 0
M  V30 13789 N 1360.95 -5.67311 4.13645 0
M  V30 13790 H 1365.79 -1.4672 2.59379 0
M  V30 13791 H 1363.33 -0.713978 1.28611 0
M  V30 13792 H 1365.29 -3.79392 1.73543 0
M  V30 13793 H 1363.92 -3.12442 0.811159 0
M  V30 13794 H 1362.97 -2.24966 3.06748 0
M  V30 13795 H 1364.28 -3.12393 3.8886 0
M  V30 13796 H 1363.44 -5.29194 2.96712 0
M  V30 13797 H 1362.17 -4.42893 2.04199 0
M  V30 13798 H 1361.18 -3.57036 4.18097 0
M  V30 13799 H 1362.4 -4.46656 5.11542 0
M  V30 13800 H 1360.35 -5.70261 3.2425 0
M  V30 13801 H 1360.27 -5.69355 4.97364 0
M  V30 13802 H 1361.54 -6.57934 4.18022 0
M  V30 13803 N 1365.76 -1.381 -0.759346 0
M  V30 13804 C 1366.73 -1.34674 -1.8546 0
M  V30 13805 C 1367.73 -0.248351 -1.58871 0
M  V30 13806 O 1368.92 -0.504915 -1.66722 0
M  V30 13807 C 1366.05 -1.0952 -3.22828 0
M  V30 13808 H 1367.24 -2.3211 -1.89908 0
M  V30 13809 H 1364.8 -1.2331 -0.960435 0
M  V30 13810 H 1365.53 -0.126664 -3.24053 0
M  V30 13811 H 1365.32 -1.89037 -3.43522 0
M  V30 13812 H 1366.81 -1.09804 -4.02906 0
M  V30 13813 N 1367.24 0.986894 -1.22875 0
M  V30 13814 C 1368.21 2.0597 -1.00544 0
M  V30 13815 C 1369.21 1.60771 0.0303509 0
M  V30 13816 O 1370.4 1.72945 -0.208753 0
M  V30 13817 C 1367.53 3.36911 -0.519962 0
M  V30 13818 H 1368.72 2.27213 -1.9574 0
M  V30 13819 H 1366.27 1.15935 -1.04827 0
M  V30 13820 H 1367.01 3.21355 0.436078 0
M  V30 13821 H 1366.79 3.71054 -1.26732 0
M  V30 13822 H 1368.28 4.15829 -0.384166 0
M  V30 13823 N 1368.72 1.0394 1.18466 0
M  V30 13824 C 1370.14 0.758404 1.40429 0
M  V30 13825 C 1370.34 -0.652603 1.90639 0
M  V30 13826 O 1369.39 -1.417 2.08991 0
M  V30 13827 C 1370.71 1.80343 2.40618 0
M  V30 13828 C 1372.25 1.82419 2.54347 0
M  V30 13829 C 1372.73 2.8591 3.57798 0
M  V30 13830 N 1374.22 2.84793 3.65304 0
M  V30 13831 C 1374.95 3.61521 4.45073 0
M  V30 13832 N 1374.45 4.47997 5.28461 0
M  V30 13833 N 1376.24 3.50016 4.39824 0
M  V30 13834 H 1368.39 1.94998 0.842 0
M  V30 13835 H 1370.66 0.843649 0.43239 0
M  V30 13836 H 1370.36 2.81547 2.10771 0
M  V30 13837 H 1370.24 1.63451 3.39947 0
M  V30 13838 H 1372.62 0.818872 2.83511 0
M  V30 13839 H 1372.71 2.03388 1.55136 0
M  V30 13840 H 1372.35 3.8662 3.29375 0
M  V30 13841 H 1372.28 2.62196 4.56684 0
M  V30 13842 H 1374.77 2.22082 3.05758 0
M  V30 13843 H 1375.08 5.03257 5.86475 0
M  V30 13844 H 1373.43 4.52065 5.27885 0
M  V30 13845 H 1376.62 2.81862 3.73726 0
M  V30 13846 H 1376.79 4.10063 5.0175 0
M  V30 13847 N 1370.2 -1.34667 0.818693 0
M  V30 13848 C 1371.16 -2.27908 0.243037 0
M  V30 13849 C 1372.16 -1.50106 -0.576622 0
M  V30 13850 O 1373.35 -1.69701 -0.393342 0
M  V30 13851 C 1370.48 -3.34455 -0.659759 0
M  V30 13852 H 1371.68 -2.80332 1.06555 0
M  V30 13853 H 1369.23 -1.44727 0.590237 0
M  V30 13854 H 1369.96 -2.87238 -1.50549 0
M  V30 13855 H 1369.75 -3.92031 -0.073567 0
M  V30 13856 H 1371.24 -4.04016 -1.05646 0
M  V30 13857 N 1371.68 -0.573274 -1.46804 0
M  V30 13858 C 1372.61 0.153316 -2.32996 0
M  V30 13859 C 1373.59 0.893013 -1.44773 0
M  V30 13860 O 1374.77 0.870329 -1.73606 0
M  V30 13861 C 1371.9 1.1736 -3.2687 0
M  V30 13862 C 1370.86 0.549347 -4.2446 0
M  V30 13863 C 1370.18 1.67542 -5.07773 0
M  V30 13864 C 1371.48 -0.50736 -5.1983 0
M  V30 13865 H 1373.18 -0.566305 -2.93995 0
M  V30 13866 H 1370.72 -0.273785 -1.41373 0
M  V30 13867 H 1372.68 1.6902 -3.86019 0
M  V30 13868 H 1371.4 1.92337 -2.63958 0
M  V30 13869 H 1370.06 0.0539142 -3.6656 0
M  V30 13870 H 1369.71 2.41463 -4.41253 0
M  V30 13871 H 1369.41 1.26343 -5.73856 0
M  V30 13872 H 1370.93 2.19496 -5.69784 0
M  V30 13873 H 1372.34 -0.0762061 -5.73249 0
M  V30 13874 H 1370.74 -0.839139 -5.94204 0
M  V30 13875 H 1371.81 -1.39723 -4.64333 0
M  V30 13876 N 1373.15 1.5451 -0.310553 0
M  V30 13877 C 1374.08 2.26827 0.554243 0
M  V30 13878 C 1375.07 1.27133 1.13009 0
M  V30 13879 O 1376.25 1.55923 1.15765 0
M  V30 13880 C 1373.38 3.01626 1.7216 0
M  V30 13881 C 1372.33 4.08547 1.27566 0
M  V30 13882 C 1371.66 4.71115 2.52893 0
M  V30 13883 C 1372.96 5.20766 0.399955 0
M  V30 13884 H 1374.65 2.9936 -0.0489475 0
M  V30 13885 H 1372.2 1.43978 -0.0249817 0
M  V30 13886 H 1374.15 3.50942 2.33276 0
M  V30 13887 H 1372.88 2.26688 2.35118 0
M  V30 13888 H 1371.54 3.60096 0.687499 0
M  V30 13889 H 1371.18 3.92805 3.14186 0
M  V30 13890 H 1370.88 5.43331 2.23752 0
M  V30 13891 H 1372.41 5.23198 3.14796 0
M  V30 13892 H 1373.82 5.65918 0.917054 0
M  V30 13893 H 1372.22 5.9976 0.2019 0
M  V30 13894 H 1373.29 4.81508 -0.572537 0
M  V30 13895 N 1374.63 0.0384594 1.57553 0
M  V30 13896 C 1375.88 -0.636879 1.91803 0
M  V30 13897 C 1376.2 -1.72128 0.916347 0
M  V30 13898 O 1375.47 -1.95858 -0.0407405 0
M  V30 13899 H 1374.05 -0.238237 0.707992 0
M  V30 13900 H 1376.71 0.0884651 1.94699 0
M  V30 13901 H 1375.81 -1.08364 2.92683 0
M  V30 13902 N 1376.11 -1.55841 -0.234795 0
M  V30 13903 C 1377.35 -1.80007 -0.968334 0
M  V30 13904 C 1377.72 -0.609903 -1.82055 0
M  V30 13905 O 1378.92 -0.730586 -2.58681 0
M  V30 13906 C 1377.19 -3.08991 -1.79609 0
M  V30 13907 S 1378.75 -3.54423 -2.58707 0
M  V30 13908 H 1375.56 -0.632112 -0.325508 0
M  V30 13909 H 1378.17 -1.94081 -0.235082 0
M  V30 13910 H 1376.87 -3.93667 -1.15993 0
M  V30 13911 H 1376.4 -2.97688 -2.57188 0
M  V30 13912 H 1378.42 -3.16713 -3.81978 0
M  V30 13913 N 1377.59 0.500963 -1.49426 0
M  V30 13914 C 1378.55 1.58478 -1.65582 0
M  V30 13915 C 1379.55 1.51897 -0.52762 0
M  V30 13916 O 1380.74 1.55049 -0.794071 0
M  V30 13917 C 1377.87 2.9813 -1.65322 0
M  V30 13918 H 1379.07 1.45483 -2.6225 0
M  V30 13919 H 1376.62 0.725199 -1.38458 0
M  V30 13920 H 1377.36 3.16602 -0.702384 0
M  V30 13921 H 1377.14 3.04315 -2.47255 0
M  V30 13922 H 1378.63 3.76874 -1.79878 0
M  V30 13923 N 1379.07 1.38501 0.752011 0
M  V30 13924 C 1380.01 1.35857 1.86578 0
M  V30 13925 C 1380.98 0.220873 1.64625 0
M  V30 13926 O 1382.17 0.413348 1.86269 0
M  V30 13927 C 1379.31 1.19102 3.23896 0
M  V30 13928 C 1378.42 2.42272 3.5767 0
M  V30 13929 C 1377.56 2.18236 4.843 0
M  V30 13930 C 1376.6 3.37169 5.10865 0
M  V30 13931 N 1375.73 3.12558 6.28691 0
M  V30 13932 H 1380.57 2.31073 1.88173 0
M  V30 13933 H 1378.11 1.14803 0.919712 0
M  V30 13934 H 1380.07 1.07404 4.03138 0
M  V30 13935 H 1378.7 0.275243 3.21624 0
M  V30 13936 H 1377.75 2.64638 2.7326 0
M  V30 13937 H 1379.06 3.3091 3.73229 0
M  V30 13938 H 1378.22 2.03682 5.71488 0
M  V30 13939 H 1376.96 1.26966 4.70883 0
M  V30 13940 H 1375.96 3.52241 4.22145 0
M  V30 13941 H 1377.19 4.29317 5.26178 0
M  V30 13942 H 1375.13 2.23937 6.16594 0
M  V30 13943 H 1375.05 3.94746 6.44757 0
M  V30 13944 H 1376.32 3.01663 7.18763 0
M  V30 13945 N 1380.55 -0.980364 1.23396 0
M  V30 13946 C 1381.51 -2.05433 1.01635 0
M  V30 13947 C 1382.51 -1.60785 -0.0218244 0
M  V30 13948 O 1383.7 -1.72832 0.217922 0
M  V30 13949 C 1380.83 -3.36631 0.537822 0
M  V30 13950 H 1382.02 -2.26172 1.96943 0
M  V30 13951 H 1379.58 -1.15378 1.05441 0
M  V30 13952 H 1380.31 -3.21581 -0.41903 0
M  V30 13953 H 1380.1 -3.70377 1.28698 0
M  V30 13954 H 1381.59 -4.1562 0.406213 0
M  V30 13955 N 1382.02 -1.04567 -1.17913 0
M  V30 13956 C 1382.93 -0.651674 -2.25367 0
M  V30 13957 C 1383.95 0.32437 -1.7095 0
M  V30 13958 O 1385.13 0.178039 -2.00612 0
M  V30 13959 C 1382.19 -0.0259452 -3.4669 0
M  V30 13960 C 1381.25 -1.05163 -4.1622 0
M  V30 13961 C 1380.48 -0.45567 -5.31751 0
M  V30 13962 O 1380.71 0.736698 -5.65623 0
M  V30 13963 O 1379.64 -1.18684 -5.90083 0
M  V30 13964 H 1383.47 -1.54704 -2.61344 0
M  V30 13965 H 1381.05 -0.816852 -1.25092 0
M  V30 13966 H 1382.93 0.322126 -4.20167 0
M  V30 13967 H 1381.61 0.843165 -3.12526 0
M  V30 13968 H 1380.52 -1.45159 -3.44789 0
M  V30 13969 H 1381.85 -1.89168 -4.54397 0
M  V30 13970 N 1383.5 1.34231 -0.825823 0
M  V30 13971 C 1384.73 2.02949 -0.427354 0
M  V30 13972 C 1385.15 1.61772 0.959755 0
M  V30 13973 O 1384.51 0.803799 1.62508 0
M  V30 13974 C 1384.56 3.56522 -0.540799 0
M  V30 13975 O 1383.66 4.10065 0.438213 0
M  V30 13976 H 1383 0.640378 -0.175535 0
M  V30 13977 H 1385.53 1.71416 -1.11704 0
M  V30 13978 H 1385.54 4.05857 -0.41763 0
M  V30 13979 H 1384.22 3.85839 -1.55246 0
M  V30 13980 H 1382.79 3.71894 0.273687 0
M  V30 13981 N 1384.98 0.581051 1.46498 0
M  V30 13982 C 1386.23 0.0658652 2.01993 0
M  V30 13983 C 1386.55 -1.29807 1.45516 0
M  V30 13984 O 1385.82 -1.85177 0.639233 0
M  V30 13985 H 1384.4 0.0213584 0.746695 0
M  V30 13986 H 1387.06 0.756456 1.79621 0
M  V30 13987 H 1386.16 -0.00438128 3.121 0
M  V30 13988 N 1386.46 -1.54343 0.318742 0
M  V30 13989 C 1387.87 -1.85922 -0.170309 0
M  V30 13990 C 1388.22 -1.24047 -1.52009 0
M  V30 13991 O 1387.34 -0.544705 -2.09432 0
M  V30 13992 C 1387.94 -3.37325 -0.315802 0
M  V30 13993 C 1386.5 -3.68871 -0.749073 0
M  V30 13994 C 1385.65 -2.76985 0.13209 0
M  V30 13995 H 1388.6 -1.4926 0.539185 0
M  V30 13996 H 1388.62 -3.62784 -1.14751 0
M  V30 13997 H 1388.13 -3.8233 0.66674 0
M  V30 13998 H 1386.23 -3.29396 -1.74153 0
M  V30 13999 H 1386.34 -4.75861 -0.556164 0
M  V30 14000 H 1384.71 -2.51672 -0.391564 0
M  V30 14001 H 1385.49 -3.24815 1.11131 0
M  V30 14002 N 1387.94 -0.0468143 -1.5753 0
M  V30 14003 C 1388.9 0.914225 -2.10177 0
M  V30 14004 C 1389.9 1.24271 -1.02045 0
M  V30 14005 O 1391.09 1.18012 -1.28136 0
M  V30 14006 C 1388.22 2.22544 -2.58238 0
M  V30 14007 H 1389.41 0.457922 -2.96383 0
M  V30 14008 H 1386.97 0.20152 -1.54995 0
M  V30 14009 H 1387.7 2.72765 -1.75413 0
M  V30 14010 H 1387.49 2.00007 -3.37253 0
M  V30 14011 H 1388.98 2.91392 -2.99133 0
M  V30 14012 N 1389.41 1.55964 0.226527 0
M  V30 14013 C 1390.64 1.83168 0.972846 0
M  V30 14014 C 1391.06 0.626512 1.7736 0
M  V30 14015 O 1390.42 -0.42468 1.76256 0
M  V30 14016 C 1390.47 3.08315 1.87014 0
M  V30 14017 O 1389.57 2.8666 2.96479 0
M  V30 14018 H 1388.92 0.604041 0.275736 0
M  V30 14019 H 1391.45 2.03172 0.241345 0
M  V30 14020 H 1391.46 3.38288 2.28091 0
M  V30 14021 H 1390.13 3.95663 1.28154 0
M  V30 14022 H 1388.71 2.67907 2.59384 0
M  V30 14023 N 1390.89 -0.493031 1.4969 0
M  V30 14024 C 1391.82 -1.60215 1.69863 0
M  V30 14025 C 1392.8 -1.61053 0.547362 0
M  V30 14026 O 1393.99 -1.77667 0.784093 0
M  V30 14027 C 1391.12 -2.98662 1.77252 0
M  V30 14028 C 1390.07 -3.1269 2.92248 0
M  V30 14029 C 1389.4 -4.52567 2.84758 0
M  V30 14030 C 1390.7 -2.91965 4.33074 0
M  V30 14031 H 1392.39 -1.43587 2.62723 0
M  V30 14032 H 1389.94 -0.689334 1.26429 0
M  V30 14033 H 1391.89 -3.7616 1.89951 0
M  V30 14034 H 1390.62 -3.16397 0.809976 0
M  V30 14035 H 1389.27 -2.37619 2.79164 0
M  V30 14036 H 1388.92 -4.6719 1.86394 0
M  V30 14037 H 1388.62 -4.62893 3.61944 0
M  V30 14038 H 1390.15 -5.32116 2.99475 0
M  V30 14039 H 1391.56 -3.59228 4.46798 0
M  V30 14040 H 1389.96 -3.13756 5.11544 0
M  V30 14041 H 1391.03 -1.88015 4.46966 0
M  V30 14042 N 1392.37 -1.38898 -0.744656 0
M  V30 14043 C 1393.6 -1.38848 -1.53391 0
M  V30 14044 C 1394.01 0.0194949 -1.8879 0
M  V30 14045 O 1393.37 0.988399 -1.53417 0
M  V30 14046 C 1393.42 -2.25243 -2.8275 0
M  V30 14047 O 1393.14 -3.60557 -2.48858 0
M  V30 14048 C 1394.64 -2.33471 -3.76837 0
M  V30 14049 H 1391.86 -0.4746 -0.474338 0
M  V30 14050 H 1394.41 -1.82591 -0.920902 0
M  V30 14051 H 1392.56 -1.84938 -3.40407 0
M  V30 14052 H 1392.98 -4.06142 -3.31887 0
M  V30 14053 H 1394.45 -2.9819 -4.64528 0
M  V30 14054 H 1394.93 -1.351 -4.17905 0
M  V30 14055 H 1395.53 -2.74205 -3.25103 0
M  V30 14056 N 1393.85 0.973806 -1.23914 0
M  V30 14057 C 1395.1 1.71027 -1.06923 0
M  V30 14058 C 1395.41 1.91612 0.392947 0
M  V30 14059 O 1396.62 2.62771 0.682927 0
M  V30 14060 C 1395.07 3.07811 -1.86496 0
M  V30 14061 C 1394.68 2.9509 -3.37085 0
M  V30 14062 C 1396.42 3.85371 -1.78015 0
M  V30 14063 C 1394.33 4.27145 -4.09024 0
M  V30 14064 H 1393.26 0.641329 -0.396501 0
M  V30 14065 H 1395.91 1.08562 -1.47941 0
M  V30 14066 H 1394.29 3.71069 -1.38288 0
M  V30 14067 H 1395.47 2.4088 -3.92827 0
M  V30 14068 H 1393.78 2.30999 -3.46451 0
M  V30 14069 H 1396.38 4.83147 -2.2907 0
M  V30 14070 H 1396.72 4.09594 -0.744196 0
M  V30 14071 H 1397.26 3.28827 -2.23869 0
M  V30 14072 H 1394 4.08117 -5.12953 0
M  V30 14073 H 1393.52 4.81194 -3.58068 0
M  V30 14074 H 1395.19 4.95798 -4.15685 0
M  V30 14075 N 1395.33 1.05191 1.17357 0
M  V30 14076 C 1396.57 0.771027 1.893 0
M  V30 14077 C 1396.93 -0.68931 1.792 0
M  V30 14078 O 1398.13 -1.0843 2.4596 0
M  V30 14079 C 1396.4 1.23822 3.35265 0
M  V30 14080 S 1397.96 1.0847 4.25182 0
M  V30 14081 H 1394.78 0.280008 0.653542 0
M  V30 14082 H 1397.38 1.34654 1.41734 0
M  V30 14083 H 1396.09 2.2962 3.40151 0
M  V30 14084 H 1395.62 0.656981 3.87875 0
M  V30 14085 H 1397.63 0.00886614 4.96199 0
M  V30 14086 N 1396.8 -1.33791 0.83293 0
M  V30 14087 C 1397.71 -2.33108 0.264169 0
M  V30 14088 C 1398.73 -1.6308 -0.606694 0
M  V30 14089 O 1399.91 -1.94777 -0.512225 0
M  V30 14090 C 1396.97 -3.42208 -0.556315 0
M  V30 14091 C 1396.03 -4.27966 0.338123 0
M  V30 14092 C 1395.27 -5.31856 -0.443297 0
M  V30 14093 O 1395.49 -5.45234 -1.6756 0
M  V30 14094 O 1394.42 -6.01632 0.179599 0
M  V30 14095 H 1398.25 -2.83602 1.08645 0
M  V30 14096 H 1395.83 -1.37027 0.595307 0
M  V30 14097 H 1397.72 -4.088 -1.02277 0
M  V30 14098 H 1396.39 -2.9394 -1.35575 0
M  V30 14099 H 1395.3 -3.64262 0.852293 0
M  V30 14100 H 1396.63 -4.79701 1.10217 0
M  V30 14101 N 1398.28 -0.588812 -1.46187 0
M  V30 14102 C 1399.23 0.140932 -2.30369 0
M  V30 14103 C 1400.2 0.878216 -1.40984 0
M  V30 14104 O 1401.38 0.867678 -1.69929 0
M  V30 14105 C 1398.52 1.14468 -3.25563 0
M  V30 14106 C 1397.64 0.410215 -4.30048 0
M  V30 14107 C 1396.77 1.40203 -5.12364 0
M  V30 14108 C 1395.81 0.65431 -6.08593 0
M  V30 14109 N 1394.95 1.59448 -6.83755 0
M  V30 14110 H 1399.79 -0.582976 -2.92242 0
M  V30 14111 H 1397.33 -0.299302 -1.44023 0
M  V30 14112 H 1399.28 1.73957 -3.79203 0
M  V30 14113 H 1397.91 1.83623 -2.65485 0
M  V30 14114 H 1396.97 -0.299822 -3.79217 0
M  V30 14115 H 1398.28 -0.174043 -4.98496 0
M  V30 14116 H 1397.43 2.06953 -5.70312 0
M  V30 14117 H 1396.17 2.02022 -4.4389 0
M  V30 14118 H 1395.18 -0.0269371 -5.49793 0
M  V30 14119 H 1396.4 0.0414285 -6.79087 0
M  V30 14120 H 1394.35 2.20066 -6.17986 0
M  V30 14121 H 1394.26 1.06318 -7.48487 0
M  V30 14122 H 1395.53 2.25215 -7.46256 0
M  V30 14123 N 1399.76 1.54172 -0.326923 0
M  V30 14124 C 1400.72 2.2311 0.524855 0
M  V30 14125 C 1401.72 1.22567 1.04087 0
M  V30 14126 O 1402.91 1.47123 0.932759 0
M  V30 14127 C 1400.05 2.93778 1.72937 0
M  V30 14128 H 1401.24 2.99799 -0.0778327 0
M  V30 14129 H 1398.79 1.56105 -0.0780484 0
M  V30 14130 H 1399.53 2.21234 2.3712 0
M  V30 14131 H 1399.31 3.67509 1.36674 0
M  V30 14132 H 1400.8 3.46292 2.33392 0
M  V30 14133 N 1401.24 0.0551678 1.57503 0
M  V30 14134 C 1402.46 -0.630692 1.97578 0
M  V30 14135 C 1402.89 -1.63348 0.932686 0
M  V30 14136 O 1402.25 -1.81004 -0.103632 0
M  V30 14137 C 1402.29 -1.29049 3.36718 0
M  V30 14138 O 1401.4 -2.40621 3.34926 0
M  V30 14139 H 1400.74 -0.163625 0.643524 0
M  V30 14140 H 1403.27 0.124753 2.04219 0
M  V30 14141 H 1403.28 -1.64124 3.73534 0
M  V30 14142 H 1401.95 -0.55559 4.12172 0
M  V30 14143 H 1400.53 -2.07463 3.0986 0
M  V30 14144 N 1402.72 -1.56081 -0.218252 0
M  V30 14145 C 1403.96 -1.78893 -0.940296 0
M  V30 14146 C 1404.29 -0.62425 -1.84738 0
M  V30 14147 O 1403.56 0.358686 -1.92588 0
M  V30 14148 H 1402.14 -0.659828 -0.350193 0
M  V30 14149 H 1404.8 -1.93546 -0.229316 0
M  V30 14150 H 1403.89 -2.71167 -1.54516 0
M  V30 14151 N 1404.2 0.485086 -1.49949 0
M  V30 14152 C 1405.43 1.25996 -1.63733 0
M  V30 14153 C 1405.83 1.8657 -0.31435 0
M  V30 14154 O 1405.18 1.69336 0.71211 0
M  V30 14155 C 1405.24 2.41842 -2.65994 0
M  V30 14156 C 1404.9 2.02014 -4.09926 0
M  V30 14157 C 1405.9 1.55068 -4.96236 0
M  V30 14158 C 1403.58 2.11162 -4.55759 0
M  V30 14159 C 1405.58 1.17796 -6.26421 0
M  V30 14160 C 1403.27 1.73501 -5.85953 0
M  V30 14161 C 1404.26 1.26894 -6.71109 0
M  V30 14162 O 1403.95 0.89749 -7.98874 0
M  V30 14163 H 1403.68 0.387743 -0.553743 0
M  V30 14164 H 1406.24 0.5871 -1.96831 0
M  V30 14165 H 1404.47 3.12254 -2.2811 0
M  V30 14166 H 1406.16 3.03837 -2.69143 0
M  V30 14167 H 1406.92 1.47434 -4.62048 0
M  V30 14168 H 1402.8 2.46389 -3.89633 0
M  V30 14169 H 1406.35 0.813467 -6.92841 0
M  V30 14170 H 1402.24 1.8079 -6.19665 0
M  V30 14171 H 1403.01 1.02757 -8.12024 0
M  V30 14172 N 1405.67 1.39291 0.737279 0
M  V30 14173 C 1406.6 1.40562 1.86452 0
M  V30 14174 C 1407.58 0.269283 1.67955 0
M  V30 14175 O 1408.77 0.474769 1.88307 0
M  V30 14176 C 1405.9 1.2461 3.24175 0
M  V30 14177 C 1404.85 2.35619 3.57306 0
M  V30 14178 C 1404.18 2.04758 4.93941 0
M  V30 14179 C 1405.48 3.77927 3.60512 0
M  V30 14180 H 1407.17 2.34896 1.85646 0
M  V30 14181 H 1404.72 1.13065 0.891756 0
M  V30 14182 H 1406.67 1.2412 4.02706 0
M  V30 14183 H 1405.4 0.267438 3.25503 0
M  V30 14184 H 1404.06 2.35322 2.81104 0
M  V30 14185 H 1403.7 1.05336 4.91847 0
M  V30 14186 H 1403.4 2.79117 5.17076 0
M  V30 14187 H 1404.93 2.05915 5.74832 0
M  V30 14188 H 1406.34 3.80166 4.29123 0
M  V30 14189 H 1404.74 4.51626 3.95164 0
M  V30 14190 H 1405.81 4.09068 2.60368 0
M  V30 14191 N 1407.15 -0.967221 1.24429 0
M  V30 14192 C 1408.08 -2.06479 0.994946 0
M  V30 14193 C 1409.1 -1.62761 -0.0357582 0
M  V30 14194 O 1410.29 -1.77361 0.201336 0
M  V30 14195 C 1407.39 -3.35487 0.479736 0
M  V30 14196 C 1406.56 -4.0811 1.57368 0
M  V30 14197 C 1405.62 -5.15392 1.06104 0
M  V30 14198 O 1404.64 -5.41539 1.75283 0
M  V30 14199 N 1405.85 -5.80406 -0.104288 0
M  V30 14200 H 1408.61 -2.28443 1.93995 0
M  V30 14201 H 1406.17 -1.13488 1.15465 0
M  V30 14202 H 1408.16 -4.04517 0.121528 0
M  V30 14203 H 1406.73 -3.1039 -0.371012 0
M  V30 14204 H 1405.95 -3.33351 2.10406 0
M  V30 14205 H 1407.24 -4.53391 2.30897 0
M  V30 14206 H 1406.64 -5.61566 -0.682638 0
M  V30 14207 H 1405.2 -6.50549 -0.403638 0
M  V30 14208 N 1408.63 -1.05812 -1.16797 0
M  V30 14209 C 1409.91 -0.685551 -1.83193 0
M  V30 14210 C 1410.29 0.833539 -1.93947 0
M  V30 14211 O 1409.63 1.74193 -1.47882 0
M  V30 14212 C 1409.84 -1.38183 -3.20479 0
M  V30 14213 C 1411.19 -1.52389 -3.96311 0
M  V30 14214 O 1412.22 -1.34134 -3.2998 0
M  V30 14215 O 1411.08 -1.82297 -5.15199 0
M  V30 14216 H 1408.17 -0.242095 -0.790771 0
M  V30 14217 H 1410.72 -1.15809 -1.24041 0
M  V30 14218 H 1409.49 -2.41791 -3.07657 0
M  V30 14219 H 1409.11 -0.899043 -3.87302 0
M  V30 14220 N 1410.11 1.33347 -0.840014 0
M  V30 14221 C 1411.33 2.02485 -0.448856 0
M  V30 14222 C 1411.76 1.62781 0.942543 0
M  V30 14223 O 1411.12 0.82099 1.61646 0
M  V30 14224 C 1411.16 3.55928 -0.578582 0
M  V30 14225 O 1410.27 4.10507 0.394695 0
M  V30 14226 H 1409.61 0.63848 -0.182317 0
M  V30 14227 H 1412.14 1.70221 -1.13516 0
M  V30 14228 H 1412.15 4.05391 -0.460653 0
M  V30 14229 H 1410.82 3.8417 -1.5933 0
M  V30 14230 H 1409.4 3.72164 0.234227 0
M  V30 14231 N 1411.59 0.596556 1.45873 0
M  V30 14232 C 1412.52 -0.116229 2.33211 0
M  V30 14233 C 1413.5 -0.869868 1.46176 0
M  V30 14234 O 1414.68 -0.842599 1.74968 0
M  V30 14235 C 1411.81 -1.12145 3.28696 0
M  V30 14236 C 1410.77 -0.481749 4.2528 0
M  V30 14237 C 1410.09 -1.59443 5.10374 0
M  V30 14238 C 1411.39 0.589996 5.18957 0
M  V30 14239 H 1413.09 0.613005 2.93057 0
M  V30 14240 H 1410.63 0.296242 1.4092 0
M  V30 14241 H 1412.58 -1.62857 3.88659 0
M  V30 14242 H 1411.31 -1.88114 2.66985 0
M  V30 14243 H 1409.97 0.0044092 3.666 0
M  V30 14244 H 1409.62 -2.34413 4.45039 0
M  V30 14245 H 1409.32 -1.17197 5.75794 0
M  V30 14246 H 1410.84 -2.10404 5.73204 0
M  V30 14247 H 1412.25 0.167395 5.73056 0
M  V30 14248 H 1410.65 0.933565 5.92794 0
M  V30 14249 H 1411.72 1.47093 4.62052 0
M  V30 14250 N 1413.06 -1.53996 0.335095 0
M  V30 14251 C 1414.03 -2.23385 -0.513015 0
M  V30 14252 C 1415.03 -1.23117 -1.03435 0
M  V30 14253 O 1416.22 -1.47616 -0.924944 0
M  V30 14254 C 1413.35 -2.94691 -1.71377 0
M  V30 14255 H 1414.54 -2.99753 0.0937306 0
M  V30 14256 H 1412.09 -1.56061 0.086326 0
M  V30 14257 H 1412.83 -2.22488 -2.35944 0
M  V30 14258 H 1412.61 -3.68228 -1.34723 0
M  V30 14259 H 1414.1 -3.47525 -2.31552 0
M  V30 14260 N 1414.54 -0.0635198 -1.57472 0
M  V30 14261 C 1415.77 0.616735 -1.97494 0
M  V30 14262 C 1416.18 1.63646 -0.941568 0
M  V30 14263 O 1415.54 1.82355 0.0727768 0
M  V30 14264 C 1415.59 1.29268 -3.37597 0
M  V30 14265 O 1415.31 0.313781 -4.36975 0
M  V30 14266 C 1416.81 2.06154 -3.92448 0
M  V30 14267 H 1414.03 0.167753 -0.649692 0
M  V30 14268 H 1416.58 -0.133475 -2.04064 0
M  V30 14269 H 1414.73 1.99404 -3.3214 0
M  V30 14270 H 1415.15 0.797723 -5.18398 0
M  V30 14271 H 1416.62 2.48853 -4.92723 0
M  V30 14272 H 1417.1 2.91474 -3.28541 0
M  V30 14273 H 1417.7 1.40903 -4.01281 0
M  V30 14274 N 1416.02 1.56195 0.209972 0
M  V30 14275 C 1417.25 1.8384 0.949228 0
M  V30 14276 C 1417.66 0.644141 1.77472 0
M  V30 14277 O 1417.02 -0.387276 1.78344 0
M  V30 14278 C 1417.07 3.10131 1.85745 0
M  V30 14279 O 1416.79 4.2495 1.06531 0
M  V30 14280 C 1418.29 3.50847 2.70963 0
M  V30 14281 H 1415.51 0.610856 0.277662 0
M  V30 14282 H 1418.06 2.03295 0.221708 0
M  V30 14283 H 1416.21 2.92618 2.53877 0
M  V30 14284 H 1416.63 4.96769 1.68287 0
M  V30 14285 H 1418.1 4.4222 3.30372 0
M  V30 14286 H 1418.58 2.73139 3.43936 0
M  V30 14287 H 1419.18 3.7084 2.08226 0
M  V30 14288 N 1417.5 -0.477127 1.50204 0
M  V30 14289 C 1418.91 -1.05815 1.53819 0
M  V30 14290 C 1419.26 -1.93264 0.338169 0
M  V30 14291 O 1418.38 -2.09305 -0.549576 0
M  V30 14292 C 1418.98 -1.92577 2.78746 0
M  V30 14293 C 1417.54 -2.45799 2.85061 0
M  V30 14294 C 1416.69 -1.23994 2.48034 0
M  V30 14295 H 1419.64 -0.259998 1.56556 0
M  V30 14296 H 1419.66 -2.7757 2.6026 0
M  V30 14297 H 1419.17 -1.28904 3.66068 0
M  V30 14298 H 1417.27 -3.13042 2.02077 0
M  V30 14299 H 1417.38 -2.81318 3.8781 0
M  V30 14300 H 1415.75 -1.5728 2.00338 0
M  V30 14301 H 1416.53 -0.619917 3.37657 0
M  V30 14302 N 1418.98 -1.3968 -0.729882 0
M  V30 14303 C 1419.94 -1.38577 -1.82562 0
M  V30 14304 C 1420.94 -0.281994 -1.58308 0
M  V30 14305 O 1422.13 -0.540165 -1.65614 0
M  V30 14306 C 1419.26 -1.16343 -3.20433 0
M  V30 14307 H 1420.45 -2.36086 -1.84942 0
M  V30 14308 H 1418.01 -1.25319 -0.934063 0
M  V30 14309 H 1418.74 -0.195372 -3.23711 0
M  V30 14310 H 1418.53 -1.96282 -3.39435 0
M  V30 14311 H 1420.02 -1.18325 -4.00486 0
M  V30 14312 N 1420.45 0.960609 -1.2494 0
M  V30 14313 C 1421.68 1.7446 -1.12153 0
M  V30 14314 C 1422.1 1.85335 0.321315 0
M  V30 14315 O 1421.46 1.32944 1.23271 0
M  V30 14316 C 1421.51 3.13945 -1.774 0
M  V30 14317 O 1420.61 3.9882 -1.04958 0
M  V30 14318 H 1419.96 0.536007 -0.391909 0
M  V30 14319 H 1422.49 1.2045 -1.65388 0
M  V30 14320 H 1422.5 3.64434 -1.83444 0
M  V30 14321 H 1421.17 3.05346 -2.82377 0
M  V30 14322 H 1419.75 3.57293 -1.06752 0
M  V30 14323 N 1421.93 1.0643 1.16234 0
M  V30 14324 C 1423.16 0.802671 1.91238 0
M  V30 14325 C 1423.58 -0.637222 1.76978 0
M  V30 14326 O 1422.94 -1.44419 1.09603 0
M  V30 14327 C 1422.99 1.20389 3.3991 0
M  V30 14328 O 1422.09 0.343516 4.10967 0
M  V30 14329 H 1421.43 0.29323 0.595745 0
M  V30 14330 H 1423.96 1.42046 1.47255 0
M  V30 14331 H 1423.97 1.17604 3.90683 0
M  V30 14332 H 1422.65 2.2527 3.49608 0
M  V30 14333 H 1421.23 0.433051 3.70377 0
M  V30 14334 N 1423.41 -1.329 0.847073 0
M  V30 14335 C 1424.64 -2.02244 0.459588 0
M  V30 14336 C 1425.06 -1.63279 -0.933897 0
M  V30 14337 O 1424.42 -0.829551 -1.61208 0
M  V30 14338 C 1424.47 -3.55616 0.59745 0
M  V30 14339 O 1423.57 -4.1071 -0.372919 0
M  V30 14340 H 1422.91 -0.637504 0.1857 0
M  V30 14341 H 1425.44 -1.69617 1.14417 0
M  V30 14342 H 1425.45 -4.05141 0.482145 0
M  V30 14343 H 1424.13 -3.8332 1.61365 0
M  V30 14344 H 1422.7 -3.72283 -0.214487 0
M  V30 14345 N 1424.89 -0.604284 -1.45555 0
M  V30 14346 C 1426.14 -0.0957836 -2.01472 0
M  V30 14347 C 1426.45 1.28016 -1.47889 0
M  V30 14348 O 1427.66 1.88121 -1.95762 0
M  V30 14349 C 1426.11 -0.120566 -3.59698 0
M  V30 14350 C 1425.72 -1.49616 -4.22278 0
M  V30 14351 C 1427.46 0.332865 -4.23193 0
M  V30 14352 C 1425.37 -1.4775 -5.72646 0
M  V30 14353 H 1424.3 -0.0320399 -0.753319 0
M  V30 14354 H 1426.95 -0.759125 -1.67061 0
M  V30 14355 H 1425.33 0.609365 -3.91283 0
M  V30 14356 H 1426.51 -2.24753 -4.02272 0
M  V30 14357 H 1424.82 -1.89141 -3.70965 0
M  V30 14358 H 1427.42 0.365951 -5.33446 0
M  V30 14359 H 1427.76 1.35487 -3.93635 0
M  V30 14360 H 1428.3 -0.343692 -3.96313 0
M  V30 14361 H 1425.04 -2.47701 -6.06898 0
M  V30 14362 H 1424.56 -0.768659 -5.94854 0
M  V30 14363 H 1426.23 -1.19971 -6.3578 0
M  V30 14364 N 1426.37 1.53816 -0.343257 0
M  V30 14365 C 1427.64 1.9315 0.308609 0
M  V30 14366 C 1428.02 1.27479 1.68263 0
M  V30 14367 O 1427.37 0.425614 2.24501 0
M  V30 14368 C 1427.58 3.46912 0.381176 0
M  V30 14369 C 1428.93 4.19868 0.632153 0
M  V30 14370 O 1429.95 3.53174 0.463303 0
M  V30 14371 O 1428.81 5.38016 0.959237 0
M  V30 14372 H 1425.91 0.807169 0.180022 0
M  V30 14373 H 1428.45 1.65053 -0.394412 0
M  V30 14374 H 1427.22 3.86932 -0.583058 0
M  V30 14375 H 1426.85 3.81175 1.13099 0
M  V30 14376 N 1427.84 0.0718701 1.57436 0
M  V30 14377 C 1428.79 -0.895335 2.12726 0
M  V30 14378 C 1429.76 -1.29528 1.03979 0
M  V30 14379 O 1430.95 -1.38113 1.31642 0
M  V30 14380 C 1428.09 -2.15755 2.6934 0
M  V30 14381 C 1427.2 -1.81023 3.92243 0
M  V30 14382 C 1426.33 -3.01856 4.371 0
M  V30 14383 C 1425.37 -2.63141 5.52651 0
M  V30 14384 N 1424.51 -3.76734 5.92466 0
M  V30 14385 H 1429.35 -0.416964 2.95068 0
M  V30 14386 H 1426.89 -0.194165 1.45813 0
M  V30 14387 H 1428.85 -2.89642 3.00272 0
M  V30 14388 H 1427.48 -2.61132 1.89762 0
M  V30 14389 H 1426.53 -0.971983 3.67773 0
M  V30 14390 H 1427.84 -1.4854 4.76169 0
M  V30 14391 H 1426.99 -3.84022 4.69694 0
M  V30 14392 H 1425.73 -3.37533 3.52027 0
M  V30 14393 H 1424.74 -1.79397 5.19708 0
M  V30 14394 H 1425.96 -2.28635 6.39455 0
M  V30 14395 H 1423.91 -4.12173 5.10343 0
M  V30 14396 H 1423.83 -3.48019 6.71132 0
M  V30 14397 H 1425.09 -4.59479 6.29682 0
M  V30 14398 N 1429.32 -1.56304 -0.201686 0
M  V30 14399 C 1430.29 -1.93171 -1.2336 0
M  V30 14400 C 1431.29 -0.812164 -1.38782 0
M  V30 14401 O 1432.48 -1.07967 -1.36707 0
M  V30 14402 C 1429.61 -2.19997 -2.60411 0
M  V30 14403 H 1430.8 -2.85483 -0.918654 0
M  V30 14404 H 1428.35 -1.49893 -0.442935 0
M  V30 14405 H 1429.09 -1.30301 -2.96972 0
M  V30 14406 H 1428.87 -3.01574 -2.5059 0
M  V30 14407 H 1430.36 -2.49547 -3.34838 0
M  V30 14408 N 1430.8 0.469154 -1.50455 0
M  V30 14409 C 1432.05 1.2229 -1.6178 0
M  V30 14410 C 1432.38 1.91577 -0.318073 0
M  V30 14411 O 1431.65 1.82205 0.68057 0
M  V30 14412 C 1431.94 2.26504 -2.79943 0
M  V30 14413 C 1431.79 1.61509 -4.19804 0
M  V30 14414 C 1433.11 3.27796 -2.93662 0
M  V30 14415 H 1430.23 0.443241 -0.588817 0
M  V30 14416 H 1432.87 0.516431 -1.82847 0
M  V30 14417 H 1431.02 2.86757 -2.62112 0
M  V30 14418 H 1432.69 1.04838 -4.49229 0
M  V30 14419 H 1430.94 0.918162 -4.23972 0
M  V30 14420 H 1431.61 2.37248 -4.98415 0
M  V30 14421 H 1434.08 2.77568 -3.09992 0
M  V30 14422 H 1432.96 3.98041 -3.77961 0
M  V30 14423 H 1433.22 3.92033 -2.04359 0
M  V30 14424 N 1432.28 1.40065 0.722464 0
M  V30 14425 C 1433.21 1.35695 1.84715 0
M  V30 14426 C 1434.22 0.263522 1.60653 0
M  V30 14427 O 1435.41 0.523382 1.70655 0
M  V30 14428 C 1432.51 1.08722 3.20987 0
M  V30 14429 C 1431.69 2.29586 3.72302 0
M  V30 14430 C 1430.74 1.98879 4.87169 0
M  V30 14431 O 1429.77 2.71681 5.00178 0
M  V30 14432 N 1430.97 0.962554 5.72464 0
M  V30 14433 H 1433.74 2.32621 1.88964 0
M  V30 14434 H 1431.3 1.3433 0.903723 0
M  V30 14435 H 1433.29 0.861772 3.95418 0
M  V30 14436 H 1431.86 0.204869 3.11928 0
M  V30 14437 H 1431.08 2.68004 2.8908 0
M  V30 14438 H 1432.37 3.10176 4.03322 0
M  V30 14439 H 1431.77 0.359452 5.64557 0
M  V30 14440 H 1430.32 0.797003 6.46909 0
M  V30 14441 N 1433.76 -0.95397 1.25448 0
M  V30 14442 C 1434.69 -2.06828 1.08372 0
M  V30 14443 C 1435.67 -1.70098 -0.00741585 0
M  V30 14444 O 1436.85 -1.93521 0.16224 0
M  V30 14445 C 1433.98 -3.40124 0.702365 0
M  V30 14446 C 1432.94 -3.90865 1.74381 0
M  V30 14447 C 1432.26 -5.20663 1.21712 0
M  V30 14448 C 1433.56 -4.17169 3.14273 0
M  V30 14449 H 1435.26 -2.21372 2.01581 0
M  V30 14450 H 1432.8 -1.06374 0.970592 0
M  V30 14451 H 1434.76 -4.17529 0.569837 0
M  V30 14452 H 1433.48 -3.2552 -0.265428 0
M  V30 14453 H 1432.14 -3.15628 1.86479 0
M  V30 14454 H 1431.79 -5.02429 0.23954 0
M  V30 14455 H 1431.49 -5.55581 1.91319 0
M  V30 14456 H 1433.01 -6.00665 1.097 0
M  V30 14457 H 1434.43 -4.85231 3.05325 0
M  V30 14458 H 1432.82 -4.63344 3.81356 0
M  V30 14459 H 1433.89 -3.23421 3.61285 0
M  V30 14460 N 1435.24 -1.07045 -1.15668 0
M  V30 14461 C 1436.48 -0.791735 -1.86381 0
M  V30 14462 C 1436.81 0.682084 -1.82148 0
M  V30 14463 O 1436.07 1.51617 -1.23737 0
M  V30 14464 C 1436.36 -1.24127 -3.35153 0
M  V30 14465 C 1436.03 -2.72051 -3.59582 0
M  V30 14466 C 1434.69 -3.12455 -3.65958 0
M  V30 14467 C 1437.04 -3.67547 -3.69538 0
M  V30 14468 C 1434.37 -4.4718 -3.79799 0
M  V30 14469 C 1436.72 -5.02029 -3.84902 0
M  V30 14470 C 1435.39 -5.42059 -3.89523 0
M  V30 14471 H 1434.66 -0.289717 -0.682016 0
M  V30 14472 H 1437.31 -1.34091 -1.36718 0
M  V30 14473 H 1435.61 -0.611428 -3.87 0
M  V30 14474 H 1437.31 -1.00256 -3.88265 0
M  V30 14475 H 1433.9 -2.39771 -3.55257 0
M  V30 14476 H 1438.08 -3.3746 -3.63915 0
M  V30 14477 H 1433.34 -4.77668 -3.81632 0
M  V30 14478 H 1437.51 -5.75902 -3.91548 0
M  V30 14479 H 1435.14 -6.46455 -4 0
M  V30 14480 N 1436.71 1.32449 -0.85411 0
M  V30 14481 C 1437.64 2.31383 -0.313697 0
M  V30 14482 C 1438.62 1.59656 0.586858 0
M  V30 14483 O 1439.81 1.87459 0.507216 0
M  V30 14484 C 1436.94 3.43693 0.499235 0
M  V30 14485 C 1435.89 4.26899 -0.306839 0
M  V30 14486 C 1435.22 5.30966 0.630795 0
M  V30 14487 C 1436.52 4.99318 -1.53229 0
M  V30 14488 H 1438.21 2.76832 -1.14037 0
M  V30 14489 H 1435.76 1.33091 -0.549805 0
M  V30 14490 H 1437.71 4.11944 0.887709 0
M  V30 14491 H 1436.44 2.96971 1.35926 0
M  V30 14492 H 1435.1 3.60294 -0.677061 0
M  V30 14493 H 1434.74 4.80498 1.48765 0
M  V30 14494 H 1434.44 5.87522 0.0954635 0
M  V30 14495 H 1435.97 6.0208 1.01646 0
M  V30 14496 H 1437.38 5.60253 -1.21614 0
M  V30 14497 H 1435.78 5.65596 -2.00552 0
M  V30 14498 H 1436.85 4.27213 -2.29383 0
M  V30 14499 N 1438.19 0.611994 1.45232 0
M  V30 14500 C 1439.43 0.111974 2.04093 0
M  V30 14501 C 1439.8 -1.23571 1.4695 0
M  V30 14502 O 1441 -1.82671 1.97192 0
M  V30 14503 C 1439.27 0.0779401 3.57315 0
M  V30 14504 S 1440.83 -0.360247 4.37319 0
M  V30 14505 H 1437.64 0.0517217 0.709116 0
M  V30 14506 H 1440.25 0.811087 1.77881 0
M  V30 14507 H 1438.95 1.06223 3.96415 0
M  V30 14508 H 1438.48 -0.643028 3.88109 0
M  V30 14509 H 1440.5 -1.6088 4.69396 0
M  V30 14510 N 1439.67 -1.53632 0.351409 0
M  V30 14511 C 1440.95 -1.93311 -0.298362 0
M  V30 14512 C 1441.33 -1.28369 -1.67584 0
M  V30 14513 O 1440.67 -0.437514 -2.24272 0
M  V30 14514 C 1440.88 -3.47109 -0.362773 0
M  V30 14515 C 1442.23 -4.20197 -0.609878 0
M  V30 14516 O 1443.26 -3.53415 -0.444566 0
M  V30 14517 O 1442.12 -5.38517 -0.930691 0
M  V30 14518 H 1439.21 -0.808112 -0.175739 0
M  V30 14519 H 1441.76 -1.64841 0.40316 0
M  V30 14520 H 1440.53 -3.86617 0.60357 0
M  V30 14521 H 1440.15 -3.81769 -1.11076 0
M  V30 14522 N 1441.15 -0.0802183 -1.57396 0
M  V30 14523 C 1442.08 0.881426 -2.16225 0
M  V30 14524 C 1443.06 1.30459 -1.09154 0
M  V30 14525 O 1444.24 1.37413 -1.37227 0
M  V30 14526 C 1441.37 2.14599 -2.73065 0
M  V30 14527 C 1440.33 1.86195 -3.85377 0
M  V30 14528 C 1439.65 3.19354 -4.28856 0
M  V30 14529 C 1440.95 1.16059 -5.09242 0
M  V30 14530 H 1442.65 0.391325 -2.96832 0
M  V30 14531 H 1440.19 0.186785 -1.42783 0
M  V30 14532 H 1442.15 2.82297 -3.12868 0
M  V30 14533 H 1440.87 2.65866 -1.89691 0
M  V30 14534 H 1439.53 1.209 -3.46091 0
M  V30 14535 H 1439.18 3.68479 -3.42392 0
M  V30 14536 H 1438.88 3.01137 -5.04569 0
M  V30 14537 H 1440.4 3.88235 -4.71281 0
M  V30 14538 H 1441.82 1.7384 -5.46308 0
M  V30 14539 H 1440.21 1.08072 -5.90288 0
M  V30 14540 H 1441.28 0.14098 -4.84695 0
M  V30 14541 N 1442.63 1.56409 0.193394 0
M  V30 14542 C 1443.56 1.97707 1.24234 0
M  V30 14543 C 1444.54 0.849286 1.47381 0
M  V30 14544 O 1445.72 1.11374 1.59089 0
M  V30 14545 C 1442.85 2.31804 2.5862 0
M  V30 14546 C 1441.81 3.47337 2.50082 0
M  V30 14547 C 1441.13 3.67114 3.88756 0
M  V30 14548 C 1442.43 4.81472 2.02441 0
M  V30 14549 H 1444.13 2.8558 0.89914 0
M  V30 14550 H 1441.67 1.37396 0.431078 0
M  V30 14551 H 1443.62 2.5929 3.32185 0
M  V30 14552 H 1442.35 1.40816 2.94684 0
M  V30 14553 H 1441.01 3.19944 1.78973 0
M  V30 14554 H 1440.66 2.73454 4.22175 0
M  V30 14555 H 1440.36 4.44838 3.83918 0
M  V30 14556 H 1441.88 3.96978 4.6394 0
M  V30 14557 H 1443.29 5.07978 2.65766 0
M  V30 14558 H 1441.69 5.62677 2.08601 0
M  V30 14559 H 1442.76 4.74941 0.977704 0
M  V30 14560 N 1444.1 -0.461169 1.50702 0
M  V30 14561 C 1445.03 -1.56576 1.73223 0
M  V30 14562 C 1446.01 -1.59855 0.581401 0
M  V30 14563 O 1447.2 -1.75964 0.821602 0
M  V30 14564 C 1444.33 -2.94835 1.83548 0
M  V30 14565 C 1443.28 -3.06421 2.98815 0
M  V30 14566 C 1442.61 -4.46425 2.94293 0
M  V30 14567 C 1443.91 -2.82714 4.3917 0
M  V30 14568 H 1445.6 -1.37982 2.65709 0
M  V30 14569 H 1443.15 -0.662362 1.27862 0
M  V30 14570 H 1445.1 -3.72047 1.97887 0
M  V30 14571 H 1443.83 -3.14608 0.876906 0
M  V30 14572 H 1442.49 -2.31644 2.84142 0
M  V30 14573 H 1442.13 -4.63131 1.96262 0
M  V30 14574 H 1441.83 -4.55111 3.71682 0
M  V30 14575 H 1443.36 -5.25644 3.10695 0
M  V30 14576 H 1444.77 -3.4967 4.54317 0
M  V30 14577 H 1443.17 -3.02835 5.18084 0
M  V30 14578 H 1444.24 -1.78492 4.50853 0
M  V30 14579 N 1445.58 -1.40446 -0.715026 0
M  V30 14580 C 1446.83 -1.3896 -1.47709 0
M  V30 14581 C 1447.16 0.00798698 -1.94198 0
M  V30 14582 O 1446.44 0.976732 -1.68197 0
M  V30 14583 C 1446.72 -2.37955 -2.70277 0
M  V30 14584 C 1446.57 -3.8674 -2.29678 0
M  V30 14585 C 1447.89 -2.34478 -3.72435 0
M  V30 14586 H 1445.01 -0.50607 -0.535782 0
M  V30 14587 H 1447.65 -1.71585 -0.815999 0
M  V30 14588 H 1445.8 -2.10264 -3.26682 0
M  V30 14589 H 1447.47 -4.2526 -1.7875 0
M  V30 14590 H 1445.72 -4.02547 -1.61674 0
M  V30 14591 H 1446.39 -4.51524 -3.17538 0
M  V30 14592 H 1448.86 -2.59007 -3.2566 0
M  V30 14593 H 1447.74 -3.05791 -4.55832 0
M  V30 14594 H 1448 -1.35661 -4.20771 0
M  V30 14595 N 1447.06 0.947303 -1.25952 0
M  V30 14596 C 1448.31 1.6953 -1.11299 0
M  V30 14597 C 1448.64 1.9113 0.343961 0
M  V30 14598 O 1447.91 1.48755 1.25309 0
M  V30 14599 C 1448.2 3.0738 -1.87588 0
M  V30 14600 C 1448.05 2.93145 -3.41154 0
M  V30 14601 C 1449.37 4.07396 -1.66483 0
M  V30 14602 H 1446.49 0.615281 -0.405707 0
M  V30 14603 H 1449.13 1.10064 -1.54874 0
M  V30 14604 H 1447.28 3.58143 -1.50553 0
M  V30 14605 H 1448.95 2.49651 -3.87907 0
M  V30 14606 H 1447.19 2.28902 -3.68492 0
M  V30 14607 H 1447.87 3.9089 -3.89755 0
M  V30 14608 H 1450.34 3.65572 -1.98738 0
M  V30 14609 H 1449.22 5.01876 -2.22287 0
M  V30 14610 H 1449.48 4.379 -0.607916 0
M  V30 14611 N 1448.54 1.07657 1.15099 0
M  V30 14612 C 1449.95 0.802696 1.37945 0
M  V30 14613 C 1450.15 -0.591622 1.92619 0
M  V30 14614 O 1449.21 -1.34979 2.13394 0
M  V30 14615 C 1450.52 1.87907 2.34759 0
M  V30 14616 C 1452.07 1.90418 2.48415 0
M  V30 14617 C 1452.55 2.97148 3.48521 0
M  V30 14618 N 1454.04 2.96271 3.56059 0
M  V30 14619 C 1454.77 3.75498 4.33346 0
M  V30 14620 N 1454.27 4.64583 5.1394 0
M  V30 14621 N 1456.06 3.63831 4.28466 0
M  V30 14622 H 1448.21 1.97578 0.779537 0
M  V30 14623 H 1450.48 0.856978 0.405331 0
M  V30 14624 H 1450.18 2.8811 2.01707 0
M  V30 14625 H 1450.06 1.74183 3.34575 0
M  V30 14626 H 1452.44 0.908655 2.80762 0
M  V30 14627 H 1452.52 2.0822 1.48586 0
M  V30 14628 H 1452.17 3.96903 3.16908 0
M  V30 14629 H 1452.1 2.76593 4.48112 0
M  V30 14630 H 1454.59 2.31697 2.98538 0
M  V30 14631 H 1454.9 5.2166 5.70167 0
M  V30 14632 H 1453.25 4.6863 5.13236 0
M  V30 14633 H 1456.44 2.93609 3.6457 0
M  V30 14634 H 1456.61 4.25818 4.8845 0
M  V30 14635 N 1450.02 -1.31994 0.861122 0
M  V30 14636 C 1451.24 -2.01211 0.481865 0
M  V30 14637 C 1451.66 -1.64687 -0.923233 0
M  V30 14638 O 1451.02 -0.87151 -1.60346 0
M  V30 14639 C 1451.07 -3.56162 0.618919 0
M  V30 14640 O 1450.79 -3.91376 1.96868 0
M  V30 14641 C 1452.29 -4.42652 0.239514 0
M  V30 14642 H 1449.51 -0.643922 0.188693 0
M  V30 14643 H 1452.05 -1.68427 1.15985 0
M  V30 14644 H 1450.21 -3.87398 -0.0114042 0
M  V30 14645 H 1450.62 -4.86095 1.97008 0
M  V30 14646 H 1452.1 -5.50646 0.386394 0
M  V30 14647 H 1452.57 -4.31466 -0.820598 0
M  V30 14648 H 1453.18 -4.16818 0.845175 0
M  V30 14649 N 1451.49 -0.619688 -1.44906 0
M  V30 14650 C 1452.72 -0.124598 -2.07025 0
M  V30 14651 C 1453.14 1.18698 -1.45919 0
M  V30 14652 O 1452.5 1.72552 -0.556366 0
M  V30 14653 C 1452.55 -0.0112238 -3.60598 0
M  V30 14654 O 1451.65 1.03582 -3.9918 0
M  V30 14655 H 1451 -0.0795631 -0.659216 0
M  V30 14656 H 1453.53 -0.853127 -1.85965 0
M  V30 14657 H 1453.54 0.183079 -4.07589 0
M  V30 14658 H 1452.21 -0.968849 -4.04458 0
M  V30 14659 H 1450.79 0.817008 -3.6384 0
M  V30 14660 N 1452.97 1.53444 -0.359552 0
M  V30 14661 C 1453.9 2.28475 0.4818 0
M  V30 14662 C 1454.88 1.30664 1.08908 0
M  V30 14663 O 1456.07 1.59527 1.10746 0
M  V30 14664 C 1453.2 3.06951 1.62477 0
M  V30 14665 C 1452.15 4.12399 1.14504 0
M  V30 14666 C 1451.48 4.78922 2.37777 0
M  V30 14667 C 1452.78 5.21775 0.234075 0
M  V30 14668 H 1454.47 2.99053 -0.144162 0
M  V30 14669 H 1452.02 1.43826 -0.0707746 0
M  V30 14670 H 1453.97 3.58186 2.21993 0
M  V30 14671 H 1452.7 2.34053 2.27787 0
M  V30 14672 H 1451.35 3.62101 0.572589 0
M  V30 14673 H 1451 4.02602 3.0153 0
M  V30 14674 H 1450.7 5.50175 2.06353 0
M  V30 14675 H 1452.23 5.32948 2.97991 0
M  V30 14676 H 1453.64 5.68549 0.736548 0
M  V30 14677 H 1452.04 6.00099 0.0109887 0
M  V30 14678 H 1453.11 4.79443 -0.725435 0
M  V30 14679 N 1454.45 0.0885642 1.57351 0
M  V30 14680 C 1455.7 -0.571435 1.95208 0
M  V30 14681 C 1456.05 -1.66196 0.96936 0
M  V30 14682 O 1455.34 -1.91599 -0.00570677 0
M  V30 14683 C 1455.54 -1.17764 3.37441 0
M  V30 14684 C 1455.37 -0.147362 4.49458 0
M  V30 14685 C 1454.14 0.273866 5.04557 0
M  V30 14686 C 1456.34 0.621935 5.10526 0
M  V30 14687 N 1454.32 1.29309 6.00127 0
M  V30 14688 C 1455.69 1.49317 6.01751 0
M  V30 14689 C 1457.74 0.676169 4.93287 0
M  V30 14690 C 1456.45 2.41386 6.77588 0
M  V30 14691 C 1458.47 1.58443 5.6978 0
M  V30 14692 C 1457.83 2.44331 6.60668 0
M  V30 14693 H 1453.93 -0.179629 0.76109 0
M  V30 14694 H 1456.52 0.169612 1.9396 0
M  V30 14695 H 1454.69 -1.88853 3.39395 0
M  V30 14696 H 1456.42 -1.79947 3.62493 0
M  V30 14697 H 1453.18 -0.112587 4.73466 0
M  V30 14698 H 1453.6 1.80072 6.52613 0
M  V30 14699 H 1458.24 0.0263199 4.22792 0
M  V30 14700 H 1455.96 3.07399 7.4735 0
M  V30 14701 H 1459.55 1.63145 5.58458 0
M  V30 14702 H 1458.43 3.1347 7.18823 0
M  V30 14703 N 1455.93 -1.56509 -0.185096 0
M  V30 14704 C 1457.34 -1.50318 -0.536334 0
M  V30 14705 C 1457.54 -0.790387 -1.85351 0
M  V30 14706 O 1456.6 -0.345039 -2.50131 0
M  V30 14707 C 1457.91 -2.95017 -0.581825 0
M  V30 14708 C 1459.46 -3.05746 -0.669974 0
M  V30 14709 C 1459.94 -4.51876 -0.746485 0
M  V30 14710 N 1461.43 -4.56067 -0.809746 0
M  V30 14711 C 1462.16 -5.66462 -0.889286 0
M  V30 14712 N 1461.66 -6.86523 -0.930509 0
M  V30 14713 N 1463.45 -5.54399 -0.927246 0
M  V30 14714 H 1455.6 -2.01262 0.678778 0
M  V30 14715 H 1457.87 -0.916313 0.243054 0
M  V30 14716 H 1457.57 -3.50268 0.317089 0
M  V30 14717 H 1457.45 -3.48916 -1.43309 0
M  V30 14718 H 1459.83 -2.50538 -1.55932 0
M  V30 14719 H 1459.91 -2.54955 0.207689 0
M  V30 14720 H 1459.56 -5.07711 0.138546 0
M  V30 14721 H 1459.49 -5.00408 -1.6401 0
M  V30 14722 H 1461.98 -3.6962 -0.786729 0
M  V30 14723 H 1462.29 -7.66407 -0.991992 0
M  V30 14724 H 1460.64 -6.89161 -0.899017 0
M  V30 14725 H 1463.83 -4.59524 -0.891947 0
M  V30 14726 H 1464 -6.40458 -0.985773 0
M  V30 14727 N 1457.41 0.45317 -1.50944 0
M  V30 14728 C 1458.34 1.56678 -1.67287 0
M  V30 14729 C 1459.35 1.53089 -0.553853 0
M  V30 14730 O 1460.54 1.58152 -0.827653 0
M  V30 14731 C 1457.64 2.95585 -1.65779 0
M  V30 14732 C 1456.81 3.2385 -2.94007 0
M  V30 14733 C 1455.87 4.42401 -2.84899 0
M  V30 14734 O 1454.9 4.4183 -3.58853 0
M  V30 14735 N 1456.1 5.4508 -1.99671 0
M  V30 14736 H 1458.87 1.43069 -2.63347 0
M  V30 14737 H 1456.43 0.641875 -1.48632 0
M  V30 14738 H 1458.42 3.7289 -1.57275 0
M  V30 14739 H 1456.99 3.02872 -0.773791 0
M  V30 14740 H 1456.21 2.34991 -3.16501 0
M  V30 14741 H 1457.5 3.39554 -3.7892 0
M  V30 14742 H 1456.89 5.48374 -1.38933 0
M  V30 14743 H 1455.45 6.21298 -1.97057 0
M  V30 14744 N 1458.88 1.40823 0.707568 0
M  V30 14745 C 1459.82 1.37646 1.83265 0
M  V30 14746 C 1460.83 0.280547 1.60365 0
M  V30 14747 O 1462.02 0.541453 1.7009 0
M  V30 14748 C 1459.12 1.12121 3.19816 0
M  V30 14749 C 1458.29 2.33522 3.69846 0
M  V30 14750 C 1457.35 2.04035 4.85032 0
M  V30 14751 O 1456.38 2.76971 4.97268 0
M  V30 14752 N 1457.58 1.02322 5.71411 0
M  V30 14753 H 1460.34 2.34612 1.86486 0
M  V30 14754 H 1457.9 1.35281 0.889424 0
M  V30 14755 H 1459.9 0.903663 3.94482 0
M  V30 14756 H 1458.47 0.237941 3.11693 0
M  V30 14757 H 1457.69 2.71055 2.86221 0
M  V30 14758 H 1458.97 3.14436 4.00009 0
M  V30 14759 H 1458.37 0.419311 5.64144 0
M  V30 14760 H 1456.93 0.865571 6.46027 0
M  V30 14761 N 1460.36 -0.94061 1.26453 0
M  V30 14762 C 1461.29 -2.04322 1.03852 0
M  V30 14763 C 1462.31 -1.628 -0.00122618 0
M  V30 14764 O 1463.5 -1.76894 0.238911 0
M  V30 14765 C 1460.6 -3.34394 0.550789 0
M  V30 14766 C 1459.77 -4.0468 1.6599 0
M  V30 14767 C 1458.83 -5.13025 1.17012 0
M  V30 14768 O 1457.85 -5.37699 1.8673 0
M  V30 14769 N 1459.06 -5.80497 0.0188478 0
M  V30 14770 H 1461.82 -2.24276 1.98797 0
M  V30 14771 H 1459.38 -1.11013 1.17846 0
M  V30 14772 H 1461.37 -4.04169 0.207305 0
M  V30 14773 H 1459.94 -3.11108 -0.30509 0
M  V30 14774 H 1459.16 -3.28813 2.17429 0
M  V30 14775 H 1460.45 -4.48392 2.40463 0
M  V30 14776 H 1459.85 -5.62888 -0.563368 0
M  V30 14777 H 1458.41 -6.51259 -0.265556 0
M  V30 14778 N 1461.84 -1.08266 -1.14527 0
M  V30 14779 C 1463.25 -0.832702 -1.67102 0
M  V30 14780 C 1463.6 0.640776 -1.85441 0
M  V30 14781 O 1462.73 1.49505 -1.56452 0
M  V30 14782 C 1463.32 -1.50502 -3.03537 0
M  V30 14783 C 1461.88 -1.30234 -3.53152 0
M  V30 14784 C 1461.03 -1.56873 -2.28661 0
M  V30 14785 H 1463.98 -1.24344 -0.986118 0
M  V30 14786 H 1464 -0.931426 -3.68924 0
M  V30 14787 H 1463.51 -2.57741 -2.90157 0
M  V30 14788 H 1461.61 -0.250582 -3.71756 0
M  V30 14789 H 1461.73 -2.02898 -4.34015 0
M  V30 14790 H 1460.09 -0.990214 -2.34663 0
M  V30 14791 H 1460.87 -2.65316 -2.17859 0
M  V30 14792 N 1463.32 1.31536 -0.86811 0
M  V30 14793 C 1464.73 1.78991 -0.530937 0
M  V30 14794 C 1465.08 1.71553 0.952046 0
M  V30 14795 O 1464.21 1.28216 1.74326 0
M  V30 14796 C 1464.8 3.25004 -0.956981 0
M  V30 14797 C 1463.36 3.70362 -0.671495 0
M  V30 14798 C 1462.51 2.52361 -1.14932 0
M  V30 14799 H 1465.46 1.18644 -1.05401 0
M  V30 14800 H 1465.48 3.79477 -0.278883 0
M  V30 14801 H 1464.99 3.30385 -2.03635 0
M  V30 14802 H 1463.09 3.70483 0.39659 0
M  V30 14803 H 1463.21 4.62581 -1.24722 0
M  V30 14804 H 1461.57 2.4826 -0.569144 0
M  V30 14805 H 1462.35 2.60489 -2.23608 0
M  V30 14806 N 1464.8 0.627364 1.44575 0
M  V30 14807 C 1465.76 -0.0700881 2.29093 0
M  V30 14808 C 1466.76 -0.775969 1.40838 0
M  V30 14809 O 1467.95 -0.621129 1.6275 0
M  V30 14810 C 1465.08 -1.10977 3.2233 0
M  V30 14811 H 1466.28 0.673234 2.92246 0
M  V30 14812 H 1463.83 0.387322 1.51425 0
M  V30 14813 H 1464.56 -1.8832 2.64019 0
M  V30 14814 H 1464.35 -0.607587 3.87364 0
M  V30 14815 H 1465.84 -1.59764 3.8583 0
M  V30 14816 N 1466.28 -1.53251 0.367684 0
M  V30 14817 C 1467.69 -1.86369 -0.111073 0
M  V30 14818 C 1468.04 -1.2882 -1.47986 0
M  V30 14819 O 1467.16 -0.611058 -2.07593 0
M  V30 14820 C 1467.76 -3.38159 -0.208325 0
M  V30 14821 C 1466.32 -3.71067 -0.63134 0
M  V30 14822 C 1465.46 -2.76425 0.220144 0
M  V30 14823 H 1468.41 -1.47469 0.586398 0
M  V30 14824 H 1468.44 -3.66252 -1.03151 0
M  V30 14825 H 1467.95 -3.80015 0.788038 0
M  V30 14826 H 1466.05 -3.34769 -1.63586 0
M  V30 14827 H 1466.16 -4.77389 -0.404491 0
M  V30 14828 H 1464.53 -2.5279 -0.311298 0
M  V30 14829 H 1465.31 -3.21115 1.21409 0
M  V30 14830 N 1467.75 -0.0969077 -1.57302 0
M  V30 14831 C 1468.72 0.846895 -2.1298 0
M  V30 14832 C 1469.72 1.20962 -1.05947 0
M  V30 14833 O 1470.91 1.13876 -1.31826 0
M  V30 14834 C 1468.04 2.14215 -2.65188 0
M  V30 14835 H 1469.23 0.363398 -2.9769 0
M  V30 14836 H 1466.78 0.152107 -1.55558 0
M  V30 14837 H 1467.52 2.67046 -1.84002 0
M  V30 14838 H 1467.3 1.89176 -3.43445 0
M  V30 14839 H 1468.79 2.81728 -3.08252 0
M  V30 14840 N 1469.23 1.56605 0.176793 0
M  V30 14841 C 1470.64 1.71418 0.739775 0
M  V30 14842 C 1470.99 0.706527 1.83037 0
M  V30 14843 O 1470.12 -0.133259 2.15989 0
M  V30 14844 C 1470.71 3.10799 1.34867 0
M  V30 14845 C 1469.27 3.27315 1.85854 0
M  V30 14846 C 1468.42 2.67371 0.73541 0
M  V30 14847 H 1471.37 1.58626 -0.0485305 0
M  V30 14848 H 1471.39 3.09146 2.21831 0
M  V30 14849 H 1470.9 3.84116 0.554688 0
M  V30 14850 H 1469 2.58947 2.67913 0
M  V30 14851 H 1469.12 4.35002 2.00774 0
M  V30 14852 H 1467.48 2.27035 1.15444 0
M  V30 14853 H 1468.26 3.43268 -0.0466351 0
M  V30 14854 N 1470.71 -0.445159 1.51182 0
M  V30 14855 C 1471.67 -1.52224 1.71349 0
M  V30 14856 C 1472.67 -1.49834 0.583632 0
M  V30 14857 O 1473.86 -1.51995 0.85107 0
M  V30 14858 C 1470.99 -2.91789 1.76273 0
M  V30 14859 H 1472.19 -1.35649 2.67468 0
M  V30 14860 H 1469.74 -0.673312 1.41054 0
M  V30 14861 H 1470.48 -3.13777 0.819405 0
M  V30 14862 H 1470.26 -2.94928 2.58379 0
M  V30 14863 H 1471.75 -3.69938 1.93741 0
M  V30 14864 N 1472.19 -1.41197 -0.700089 0
M  V30 14865 C 1473.15 -1.42419 -1.79582 0
M  V30 14866 C 1474.15 -0.31551 -1.57674 0
M  V30 14867 O 1475.34 -0.575173 -1.64431 0
M  V30 14868 C 1472.47 -1.23114 -3.17893 0
M  V30 14869 H 1473.67 -2.39956 -1.79892 0
M  V30 14870 H 1471.22 -1.27273 -0.907271 0
M  V30 14871 H 1471.95 -0.263992 -3.23224 0
M  V30 14872 H 1471.74 -2.03437 -3.35195 0
M  V30 14873 H 1473.23 -1.26793 -3.97886 0
M  V30 14874 N 1473.67 0.933891 -1.2695 0
M  V30 14875 C 1474.6 2.03768 -1.04934 0
M  V30 14876 C 1475.61 1.62798 -0.00740752 0
M  V30 14877 O 1476.8 1.76765 -0.248289 0
M  V30 14878 C 1473.9 3.34097 -0.568515 0
M  V30 14879 C 1473.07 4.03794 -1.68133 0
M  V30 14880 C 1472.13 5.12397 -1.19731 0
M  V30 14881 O 1471.16 5.36701 -1.89579 0
M  V30 14882 N 1472.36 5.80479 -0.0496327 0
M  V30 14883 H 1475.12 2.23219 -1.99984 0
M  V30 14884 H 1472.69 1.10386 -1.18433 0
M  V30 14885 H 1474.68 4.04053 -0.228736 0
M  V30 14886 H 1473.25 3.11265 0.288587 0
M  V30 14887 H 1472.47 3.27655 -2.1917 0
M  V30 14888 H 1473.76 4.4711 -2.42837 0
M  V30 14889 H 1473.15 5.63179 0.533509 0
M  V30 14890 H 1471.71 6.5139 0.231014 0
M  V30 14891 N 1475.14 1.08871 1.13951 0
M  V30 14892 C 1476.39 0.819665 1.84732 0
M  V30 14893 C 1476.71 -0.656535 1.83615 0
M  V30 14894 O 1475.98 -1.47614 1.28791 0
M  V30 14895 H 1474.56 0.30023 0.684011 0
M  V30 14896 H 1477.22 1.37568 1.38062 0
M  V30 14897 H 1476.32 1.16809 2.89417 0
M  V30 14898 N 1476.62 -1.31073 0.875073 0
M  V30 14899 C 1477.85 -2.00688 0.503179 0
M  V30 14900 C 1478.26 -1.65657 -0.905714 0
M  V30 14901 O 1477.62 -0.888468 -1.59413 0
M  V30 14902 C 1477.67 -3.55486 0.65666 0
M  V30 14903 O 1477.39 -3.89265 2.01007 0
M  V30 14904 C 1478.89 -4.42374 0.28645 0
M  V30 14905 H 1476.11 -0.641885 0.195512 0
M  V30 14906 H 1478.66 -1.67188 1.17765 0
M  V30 14907 H 1476.81 -3.87389 0.0296852 0
M  V30 14908 H 1477.23 -4.83978 2.02153 0
M  V30 14909 H 1478.7 -5.50205 0.444776 0
M  V30 14910 H 1479.18 -4.32312 -0.774789 0
M  V30 14911 H 1479.78 -4.15898 0.889336 0
M  V30 14912 N 1478.1 -0.635022 -1.4424 0
M  V30 14913 C 1479.33 -0.146549 -2.06882 0
M  V30 14914 C 1479.75 1.17143 -1.4717 0
M  V30 14915 O 1479.11 1.71952 -0.574636 0
M  V30 14916 C 1479.16 -0.0494694 -3.60566 0
M  V30 14917 O 1478.26 0.993423 -4.00256 0
M  V30 14918 H 1477.6 -0.0865505 -0.658335 0
M  V30 14919 H 1480.13 -0.872803 -1.85049 0
M  V30 14920 H 1480.14 0.139839 -4.0776 0
M  V30 14921 H 1478.82 -1.01169 -4.03407 0
M  V30 14922 H 1477.39 0.778372 -3.64686 0
M  V30 14923 N 1479.58 1.53054 -0.375806 0
M  V30 14924 C 1480.8 2.06296 0.213708 0
M  V30 14925 C 1481.23 1.24675 1.40846 0
M  V30 14926 O 1480.59 0.268371 1.79303 0
M  V30 14927 C 1480.63 3.55981 0.575301 0
M  V30 14928 O 1479.74 3.77023 1.67115 0
M  V30 14929 H 1479.08 0.66338 0.0286922 0
M  V30 14930 H 1481.61 1.97362 -0.539371 0
M  V30 14931 H 1481.62 3.99187 0.843431 0
M  V30 14932 H 1480.29 4.14829 -0.298258 0
M  V30 14933 H 1478.87 3.45712 1.39778 0
M  V30 14934 N 1481.06 0.105248 1.57248 0
M  V30 14935 C 1482.47 -0.251385 1.57608 0
M  V30 14936 C 1482.67 -1.677 1.11709 0
M  V30 14937 O 1481.73 -2.39552 0.798182 0
M  V30 14938 C 1483.04 -0.0305755 3.00684 0
M  V30 14939 C 1484.59 -0.0975409 3.12848 0
M  V30 14940 C 1485.06 0.0954024 4.57901 0
M  V30 14941 N 1486.56 0.040908 4.63182 0
M  V30 14942 C 1487.29 0.165298 5.73162 0
M  V30 14943 N 1486.79 0.345091 6.9194 0
M  V30 14944 N 1488.58 0.105847 5.62 0
M  V30 14945 H 1480.73 1.03658 1.85388 0
M  V30 14946 H 1482.99 0.407074 0.856151 0
M  V30 14947 H 1482.7 0.954461 3.38501 0
M  V30 14948 H 1482.57 -0.768477 3.69289 0
M  V30 14949 H 1484.96 -1.07309 2.74898 0
M  V30 14950 H 1485.04 0.672017 2.46815 0
M  V30 14951 H 1484.69 1.06786 4.96547 0
M  V30 14952 H 1484.62 -0.693974 5.22007 0
M  V30 14953 H 1487.11 -0.0951009 3.7778 0
M  V30 14954 H 1487.42 0.431243 7.71596 0
M  V30 14955 H 1485.76 0.38089 6.93955 0
M  V30 14956 H 1488.96 -0.0335544 4.68088 0
M  V30 14957 H 1489.13 0.206235 6.47672 0
M  V30 14958 N 1482.53 -1.56697 -0.168486 0
M  V30 14959 C 1483.95 -1.71808 -0.730674 0
M  V30 14960 C 1484.3 -0.716224 -1.8266 0
M  V30 14961 O 1483.42 0.121803 -2.16057 0
M  V30 14962 C 1484.02 -3.1151 -1.33217 0
M  V30 14963 C 1482.58 -3.28297 -1.84115 0
M  V30 14964 C 1481.72 -2.67757 -0.72122 0
M  V30 14965 H 1484.67 -1.58598 0.0569421 0
M  V30 14966 H 1484.69 -3.10318 -2.20189 0
M  V30 14967 H 1484.21 -3.84404 -0.53431 0
M  V30 14968 H 1482.31 -2.60364 -2.66536 0
M  V30 14969 H 1482.42 -4.3606 -1.98464 0
M  V30 14970 H 1480.78 -2.27644 -1.14239 0
M  V30 14971 H 1481.57 -3.43239 0.0648388 0
M  V30 14972 N 1484.01 0.437135 -1.51416 0
M  V30 14973 C 1484.94 1.54894 -1.68939 0
M  V30 14974 C 1485.96 1.52493 -0.570059 0
M  V30 14975 O 1487.15 1.57266 -0.844381 0
M  V30 14976 C 1484.25 2.9381 -1.68904 0
M  V30 14977 C 1483.42 3.20714 -2.97425 0
M  V30 14978 C 1482.48 4.39355 -2.89575 0
M  V30 14979 O 1481.5 4.37999 -3.63519 0
M  V30 14980 N 1482.71 5.42931 -2.05441 0
M  V30 14981 H 1485.47 1.40267 -2.64849 0
M  V30 14982 H 1483.03 0.626075 -1.49305 0
M  V30 14983 H 1485.02 3.71201 -1.61221 0
M  V30 14984 H 1483.59 3.02034 -0.805871 0
M  V30 14985 H 1482.81 2.31621 -3.18975 0
M  V30 14986 H 1484.1 3.35516 -3.825 0
M  V30 14987 H 1483.5 5.4687 -1.44742 0
M  V30 14988 H 1482.06 6.19173 -2.03636 0
M  V30 14989 N 1485.49 1.41566 0.692592 0
M  V30 14990 C 1486.45 1.43369 1.78824 0
M  V30 14991 C 1487.45 0.323867 1.57505 0
M  V30 14992 O 1488.64 0.583885 1.64123 0
M  V30 14993 C 1485.78 1.24798 3.17235 0
M  V30 14994 H 1486.97 2.40906 1.78617 0
M  V30 14995 H 1484.52 1.27752 0.900508 0
M  V30 14996 H 1485.26 0.281129 3.23079 0
M  V30 14997 H 1485.04 2.05212 3.34111 0
M  V30 14998 H 1486.53 1.28902 3.97208 0
M  V30 14999 N 1486.97 -0.927146 1.27443 0
M  V30 15000 C 1488.19 -1.71426 1.16739 0
M  V30 15001 C 1488.62 -1.86122 -0.272063 0
M  V30 15002 O 1487.98 -1.36165 -1.19703 0
M  V30 15003 C 1488.02 -3.09131 1.85661 0
M  V30 15004 O 1487.13 -3.95897 1.15495 0
M  V30 15005 H 1486.47 -0.525428 0.405983 0
M  V30 15006 H 1489 -1.16022 1.68523 0
M  V30 15007 H 1489.01 -3.59442 1.93042 0
M  V30 15008 H 1487.68 -2.97752 2.90373 0
M  V30 15009 H 1486.26 -3.54337 1.16187 0
M  V30 15010 N 1488.45 -1.09474 -1.13372 0
M  V30 15011 C 1489.41 -0.738173 -2.16988 0
M  V30 15012 C 1490.41 0.232488 -1.5911 0
M  V30 15013 O 1491.6 0.0106093 -1.74197 0
M  V30 15014 C 1488.73 -0.091724 -3.40777 0
M  V30 15015 H 1489.92 -1.65582 -2.50045 0
M  V30 15016 H 1487.48 -0.893994 -1.28209 0
M  V30 15017 H 1488.21 0.837129 -3.13309 0
M  V30 15018 H 1488 -0.790161 -3.84056 0
M  V30 15019 H 1489.49 0.142334 -4.17357 0
M  V30 15020 N 1489.92 1.30607 -0.882012 0
M  V30 15021 C 1490.85 2.30666 -0.362706 0
M  V30 15022 C 1491.84 1.60865 0.552861 0
M  V30 15023 O 1493.02 1.88493 0.467339 0
M  V30 15024 C 1490.15 3.44675 0.42622 0
M  V30 15025 C 1489.1 4.26152 -0.397322 0
M  V30 15026 C 1488.43 5.32185 0.518027 0
M  V30 15027 C 1489.73 4.95955 -1.63785 0
M  V30 15028 H 1491.42 2.74351 -1.19883 0
M  V30 15029 H 1488.97 1.31895 -0.577912 0
M  V30 15030 H 1490.92 4.13734 0.80013 0
M  V30 15031 H 1489.65 2.99787 1.29597 0
M  V30 15032 H 1488.31 3.58776 -0.753332 0
M  V30 15033 H 1487.95 4.83545 1.3854 0
M  V30 15034 H 1487.65 5.87593 -0.0291802 0
M  V30 15035 H 1489.18 6.04101 0.888518 0
M  V30 15036 H 1490.59 5.57547 -1.3347 0
M  V30 15037 H 1488.99 5.61215 -2.12504 0
M  V30 15038 H 1490.06 4.22252 -2.38394 0
M  V30 15039 N 1491.4 0.642663 1.43901 0
M  V30 15040 C 1492.31 -0.0562462 2.34533 0
M  V30 15041 C 1493.33 -0.823457 1.53281 0
M  V30 15042 O 1494.5 -0.773103 1.85971 0
M  V30 15043 C 1491.57 -1.01787 3.31422 0
M  V30 15044 C 1490.63 -0.248759 4.28579 0
M  V30 15045 C 1489.86 -1.16458 5.20839 0
M  V30 15046 O 1490.09 -2.40361 5.17284 0
M  V30 15047 O 1489.02 -0.642671 5.98459 0
M  V30 15048 H 1492.85 0.689476 2.9577 0
M  V30 15049 H 1490.43 0.402847 1.43866 0
M  V30 15050 H 1492.31 -1.5708 3.91029 0
M  V30 15051 H 1490.99 -1.744 2.72702 0
M  V30 15052 H 1489.9 0.347495 3.72483 0
M  V30 15053 H 1491.23 0.437589 4.90251 0
M  V30 15054 N 1492.88 -1.52852 0.383918 0
M  V30 15055 C 1493.81 -2.29213 -0.44539 0
M  V30 15056 C 1494.79 -1.3238 -1.06815 0
M  V30 15057 O 1495.98 -1.61269 -1.08194 0
M  V30 15058 C 1493.11 -3.09497 -1.57573 0
M  V30 15059 C 1492.06 -4.14168 -1.07928 0
M  V30 15060 C 1491.39 -4.82644 -2.30128 0
M  V30 15061 C 1492.69 -5.22082 -0.151035 0
M  V30 15062 H 1494.38 -2.98786 0.19172 0
M  V30 15063 H 1491.93 -1.43695 0.0936471 0
M  V30 15064 H 1493.88 -3.61672 -2.16267 0
M  V30 15065 H 1492.6 -2.37647 -2.24034 0
M  V30 15066 H 1491.26 -3.62966 -0.514909 0
M  V30 15067 H 1490.91 -4.07348 -2.95087 0
M  V30 15068 H 1490.61 -5.53388 -1.97574 0
M  V30 15069 H 1492.14 -5.37621 -2.89475 0
M  V30 15070 H 1493.55 -5.69649 -0.646003 0
M  V30 15071 H 1491.95 -6.00041 0.0844833 0
M  V30 15072 H 1493.02 -4.78228 0.801618 0
M  V30 15073 N 1494.36 -0.113586 -1.5719 0
M  V30 15074 C 1495.78 0.243023 -1.57739 0
M  V30 15075 C 1495.98 1.67105 -1.12597 0
M  V30 15076 O 1495.03 2.39126 -0.810874 0
M  V30 15077 C 1496.34 0.014629 -3.00696 0
M  V30 15078 C 1497.89 0.0809485 -3.12895 0
M  V30 15079 C 1498.37 -0.119685 -4.57844 0
M  V30 15080 N 1499.86 -0.0654711 -4.63154 0
M  V30 15081 C 1500.59 -0.195692 -5.73066 0
M  V30 15082 N 1500.09 -0.381782 -6.91747 0
M  V30 15083 N 1501.88 -0.13565 -5.61936 0
M  V30 15084 H 1494.03 -1.04639 -1.84836 0
M  V30 15085 H 1496.3 -0.411609 -0.85398 0
M  V30 15086 H 1496 -0.972399 -3.3799 0
M  V30 15087 H 1495.88 0.748882 -3.69691 0
M  V30 15088 H 1498.26 1.0585 -2.75463 0
M  V30 15089 H 1498.34 -0.685097 -2.46455 0
M  V30 15090 H 1497.99 -1.09418 -4.95974 0
M  V30 15091 H 1497.92 0.666281 -5.22368 0
M  V30 15092 H 1500.41 0.0750649 -3.77825 0
M  V30 15093 H 1500.72 -0.472157 -7.71356 0
M  V30 15094 H 1499.07 -0.417686 -6.93744 0
M  V30 15095 H 1502.26 0.0087301 -4.68099 0
M  V30 15096 H 1502.43 -0.240579 -6.47553 0
M  V30 15097 N 1495.84 1.56784 0.160173 0
M  V30 15098 C 1497.09 1.8226 0.873253 0
M  V30 15099 C 1497.41 0.692384 1.82294 0
M  V30 15100 O 1496.68 -0.286961 1.93787 0
M  V30 15101 H 1495.26 0.672371 0.325463 0
M  V30 15102 H 1497.92 1.94264 0.157325 0
M  V30 15103 H 1497.01 2.76714 1.44345 0
M  V30 15104 N 1497.32 -0.429099 1.51646 0
M  V30 15105 C 1498.56 -1.17784 1.64722 0
M  V30 15106 C 1498.89 -1.90998 0.367415 0
M  V30 15107 O 1498.15 -1.8463 -0.648862 0
M  V30 15108 C 1498.44 -2.2131 2.80636 0
M  V30 15109 C 1498.11 -1.65048 4.19607 0
M  V30 15110 C 1496.77 -1.49428 4.57411 0
M  V30 15111 C 1499.12 -1.23765 5.06292 0
M  V30 15112 C 1496.45 -0.910109 5.79598 0
M  V30 15113 C 1498.8 -0.667743 6.29066 0
M  V30 15114 C 1497.47 -0.498507 6.65636 0
M  V30 15115 H 1496.74 -0.431001 0.60276 0
M  V30 15116 H 1499.39 -0.46775 1.857 0
M  V30 15117 H 1497.69 -2.98388 2.53913 0
M  V30 15118 H 1499.39 -2.79079 2.87951 0
M  V30 15119 H 1495.98 -1.78185 3.89805 0
M  V30 15120 H 1500.16 -1.3465 4.77685 0
M  V30 15121 H 1495.42 -0.766825 6.06572 0
M  V30 15122 H 1499.59 -0.339377 6.95573 0
M  V30 15123 H 1497.22 -0.0437292 7.60187 0
M  V30 15124 N 1498.79 -1.41931 -0.685074 0
M  V30 15125 C 1499.73 -1.40545 -1.81052 0
M  V30 15126 C 1500.74 -0.306024 -1.59898 0
M  V30 15127 O 1501.93 -0.568444 -1.69207 0
M  V30 15128 C 1499.03 -1.17194 -3.17992 0
M  V30 15129 C 1498.2 -2.39376 -3.66084 0
M  V30 15130 C 1497.26 -2.11725 -4.81725 0
M  V30 15131 O 1496.29 -2.84847 -4.92799 0
M  V30 15132 N 1497.49 -1.11399 -5.69711 0
M  V30 15133 H 1500.25 -2.37549 -1.8273 0
M  V30 15134 H 1497.81 -1.36679 -0.86779 0
M  V30 15135 H 1499.81 -0.966307 -3.92994 0
M  V30 15136 H 1498.38 -0.287499 -3.11275 0
M  V30 15137 H 1497.6 -2.75575 -2.81873 0
M  V30 15138 H 1498.88 -3.2076 -3.94956 0
M  V30 15139 H 1498.28 -0.509008 -5.63405 0
M  V30 15140 H 1496.84 -0.968239 -6.44568 0
M  V30 15141 N 1500.27 0.920374 -1.27933 0
M  V30 15142 C 1501.69 1.19761 -1.05496 0
M  V30 15143 C 1501.89 2.00435 0.206864 0
M  V30 15144 O 1500.94 2.35518 0.910356 0
M  V30 15145 C 1502.26 1.93863 -2.29864 0
M  V30 15146 C 1503.8 2.06773 -2.34976 0
M  V30 15147 C 1504.28 2.84282 -3.59093 0
M  V30 15148 N 1505.77 2.91847 -3.59694 0
M  V30 15149 C 1506.51 3.52303 -4.52404 0
M  V30 15150 N 1506 4.14092 -5.55427 0
M  V30 15151 N 1507.79 3.49778 -4.40013 0
M  V30 15152 H 1499.95 0.381596 -2.08944 0
M  V30 15153 H 1502.21 0.231451 -0.919312 0
M  V30 15154 H 1501.91 1.42008 -3.21756 0
M  V30 15155 H 1501.79 2.94446 -2.35757 0
M  V30 15156 H 1504.18 2.57812 -1.43586 0
M  V30 15157 H 1504.26 1.05388 -2.33082 0
M  V30 15158 H 1503.9 2.33925 -4.50823 0
M  V30 15159 H 1503.83 3.85968 -3.5824 0
M  V30 15160 H 1506.32 2.4794 -2.85191 0
M  V30 15161 H 1506.63 4.58183 -6.22325 0
M  V30 15162 H 1504.98 4.12616 -5.59261 0
M  V30 15163 H 1508.17 3.00712 -3.58733 0
M  V30 15164 H 1508.34 3.96603 -5.12455 0
M  V30 15165 N 1501.75 1.10074 1.1279 0
M  V30 15166 C 1503.03 0.753069 1.80522 0
M  V30 15167 C 1503.41 -0.760982 1.96907 0
M  V30 15168 O 1502.75 -1.68584 1.54245 0
M  V30 15169 C 1502.96 1.49982 3.15129 0
M  V30 15170 C 1504.31 1.66993 3.90382 0
M  V30 15171 O 1505.34 1.46289 3.24774 0
M  V30 15172 O 1504.2 2.01293 5.08078 0
M  V30 15173 H 1501.29 0.271277 0.781241 0
M  V30 15174 H 1503.84 1.20333 1.19658 0
M  V30 15175 H 1502.61 2.53043 2.98471 0
M  V30 15176 H 1502.23 1.04217 3.83699 0
M  V30 15177 N 1503.23 -1.30138 0.888926 0
M  V30 15178 C 1504.16 -2.3047 0.374934 0
M  V30 15179 C 1505.14 -1.61156 -0.544322 0
M  V30 15180 O 1506.32 -1.88738 -0.457337 0
M  V30 15181 C 1503.45 -3.44896 -0.407935 0
M  V30 15182 C 1502.41 -4.25935 0.419916 0
M  V30 15183 C 1501.73 -5.32452 -0.489797 0
M  V30 15184 C 1503.03 -4.9508 1.66413 0
M  V30 15185 H 1504.73 -2.73711 1.21337 0
M  V30 15186 H 1502.27 -1.31586 0.584899 0
M  V30 15187 H 1504.23 -4.14153 -0.778177 0
M  V30 15188 H 1502.95 -3.0047 -1.28005 0
M  V30 15189 H 1501.61 -3.58372 0.772348 0
M  V30 15190 H 1501.26 -4.84273 -1.35974 0
M  V30 15191 H 1500.96 -5.87569 0.0603412 0
M  V30 15192 H 1502.48 -6.04563 -0.856468 0
M  V30 15193 H 1503.9 -5.56831 1.36425 0
M  V30 15194 H 1502.29 -5.6008 2.15477 0
M  V30 15195 H 1503.36 -4.20981 2.4063 0
M  V30 15196 N 1504.71 -0.650285 -1.43559 0
M  V30 15197 C 1505.93 -0.168483 -2.06715 0
M  V30 15198 C 1506.36 1.15576 -1.48404 0
M  V30 15199 O 1505.71 1.71333 -0.592842 0
M  V30 15200 C 1505.76 -0.0877095 -3.60493 0
M  V30 15201 O 1504.87 0.950915 -4.01287 0
M  V30 15202 H 1504.21 -0.0935281 -0.65738 0
M  V30 15203 H 1506.74 -0.892381 -1.84113 0
M  V30 15204 H 1506.75 0.0965825 -4.07886 0
M  V30 15205 H 1505.42 -1.05442 -4.02312 0
M  V30 15206 H 1504 0.739648 -3.65491 0
M  V30 15207 N 1506.18 1.52647 -0.392018 0
M  V30 15208 C 1507.41 2.06511 0.191815 0
M  V30 15209 C 1507.83 1.26162 1.39516 0
M  V30 15210 O 1507.19 0.287373 1.79008 0
M  V30 15211 C 1507.24 3.56571 0.537512 0
M  V30 15212 O 1506.34 3.78774 1.63106 0
M  V30 15213 H 1505.68 0.663647 0.0216546 0
M  V30 15214 H 1508.21 1.96779 -0.560274 0
M  V30 15215 H 1508.22 4.00059 0.801044 0
M  V30 15216 H 1506.9 4.14489 -0.342239 0
M  V30 15217 H 1505.48 3.47175 1.36103 0
M  V30 15218 N 1507.66 0.121921 1.57128 0
M  V30 15219 C 1508.59 -0.823788 2.18486 0
M  V30 15220 C 1509.57 -1.27519 1.12574 0
M  V30 15221 O 1510.76 -1.33727 1.40822 0
M  V30 15222 C 1507.89 -2.07284 2.78659 0
M  V30 15223 C 1506.84 -1.75912 3.90178 0
M  V30 15224 C 1506.17 -3.07871 4.37172 0
M  V30 15225 C 1507.47 -1.02517 5.1214 0
M  V30 15226 H 1509.16 -0.312488 2.97765 0
M  V30 15227 H 1506.71 -0.148862 1.43228 0
M  V30 15228 H 1508.66 -2.73903 3.20242 0
M  V30 15229 H 1507.39 -2.60743 1.96673 0
M  V30 15230 H 1506.04 -1.11681 3.49174 0
M  V30 15231 H 1505.69 -3.59271 3.52041 0
M  V30 15232 H 1505.39 -2.87653 5.12376 0
M  V30 15233 H 1506.92 -3.75604 4.81409 0
M  V30 15234 H 1508.33 -1.59295 5.50725 0
M  V30 15235 H 1506.73 -0.923836 5.92946 0
M  V30 15236 H 1507.8 -0.0124219 4.84898 0
M  V30 15237 N 1509.14 -1.56867 -0.151857 0
M  V30 15238 C 1510.56 -1.51422 -0.504328 0
M  V30 15239 C 1510.76 -0.829524 -1.83633 0
M  V30 15240 O 1509.81 -0.398018 -2.49343 0
M  V30 15241 C 1511.13 -2.96185 -0.519117 0
M  V30 15242 C 1512.67 -3.07098 -0.60497 0
M  V30 15243 C 1513.15 -4.53357 -0.650468 0
M  V30 15244 N 1514.64 -4.57682 -0.712825 0
M  V30 15245 C 1515.37 -5.68221 -0.768931 0
M  V30 15246 N 1514.87 -6.88342 -0.784678 0
M  V30 15247 N 1516.66 -5.56241 -0.809441 0
M  V30 15248 H 1508.81 -1.99777 0.721316 0
M  V30 15249 H 1511.08 -0.910951 0.262436 0
M  V30 15250 H 1510.78 -3.49516 0.391315 0
M  V30 15251 H 1510.66 -3.51877 -1.35876 0
M  V30 15252 H 1513.04 -2.53789 -1.50582 0
M  V30 15253 H 1513.13 -2.54458 0.261722 0
M  V30 15254 H 1512.77 -5.07303 0.246207 0
M  V30 15255 H 1512.7 -5.03775 -1.53358 0
M  V30 15256 H 1515.19 -3.71206 -0.708151 0
M  V30 15257 H 1515.5 -7.68339 -0.829202 0
M  V30 15258 H 1513.85 -6.90913 -0.752634 0
M  V30 15259 H 1517.04 -4.61312 -0.794274 0
M  V30 15260 H 1517.21 -6.42405 -0.849701 0
M  V30 15261 N 1510.62 0.421051 -1.51871 0
M  V30 15262 C 1512.03 0.758781 -1.40409 0
M  V30 15263 C 1512.23 1.95219 -0.499197 0
M  V30 15264 O 1511.29 2.52469 0.0395216 0
M  V30 15265 C 1512.6 1.02388 -2.82731 0
M  V30 15266 C 1514.15 1.12733 -2.91994 0
M  V30 15267 C 1514.63 1.42527 -4.35259 0
M  V30 15268 N 1516.12 1.49417 -4.38439 0
M  V30 15269 C 1516.85 1.74074 -5.46339 0
M  V30 15270 N 1516.35 1.96414 -6.64375 0
M  V30 15271 N 1518.14 1.7599 -5.33839 0
M  V30 15272 H 1510.29 -0.364682 -2.09246 0
M  V30 15273 H 1512.56 -0.100819 -0.942624 0
M  V30 15274 H 1512.26 0.219491 -3.51014 0
M  V30 15275 H 1512.14 1.94724 -3.23052 0
M  V30 15276 H 1514.52 1.92233 -2.23899 0
M  V30 15277 H 1514.6 0.182611 -2.55147 0
M  V30 15278 H 1514.25 0.635486 -5.03909 0
M  V30 15279 H 1514.18 2.38231 -4.69631 0
M  V30 15280 H 1516.67 1.3399 -3.53348 0
M  V30 15281 H 1516.98 2.14644 -7.42393 0
M  V30 15282 H 1515.33 1.93702 -6.67461 0
M  V30 15283 H 1518.52 1.58067 -4.40605 0
M  V30 15284 H 1518.69 1.94868 -6.18005 0
M  V30 15285 N 1512.1 1.42293 0.677538 0
M  V30 15286 C 1513.03 1.48344 1.80323 0
M  V30 15287 C 1514.01 0.340276 1.66662 0
M  V30 15288 O 1515.19 0.554209 1.86124 0
M  V30 15289 C 1512.32 1.38247 3.18599 0
M  V30 15290 C 1511.28 2.50562 3.46991 0
M  V30 15291 C 1510.6 2.25524 4.84812 0
M  V30 15292 C 1511.9 3.92877 3.44158 0
M  V30 15293 H 1513.6 2.42558 1.75516 0
M  V30 15294 H 1511.14 1.16746 0.842999 0
M  V30 15295 H 1513.1 1.41089 3.97079 0
M  V30 15296 H 1511.82 0.405255 3.24076 0
M  V30 15297 H 1510.48 2.47032 2.7087 0
M  V30 15298 H 1510.13 1.26102 4.86937 0
M  V30 15299 H 1509.83 3.00797 5.04772 0
M  V30 15300 H 1511.35 2.3011 5.65581 0
M  V30 15301 H 1512.76 3.98024 4.12613 0
M  V30 15302 H 1511.16 4.6798 3.75653 0
M  V30 15303 H 1512.23 4.19743 2.42783 0
M  V30 15304 N 1513.57 -0.913576 1.28419 0
M  V30 15305 C 1514.54 -1.99757 1.12382 0
M  V30 15306 C 1515.54 -1.60675 0.063435 0
M  V30 15307 O 1516.73 -1.71433 0.30923 0
M  V30 15308 C 1513.86 -3.33307 0.715506 0
M  V30 15309 H 1515.05 -2.15414 2.08655 0
M  V30 15310 H 1512.61 -1.09626 1.11408 0
M  V30 15311 H 1513.34 -3.23351 -0.247977 0
M  V30 15312 H 1513.13 -3.63034 1.4815 0
M  V30 15313 H 1514.62 -4.12882 0.625953 0
M  V30 15314 N 1515.05 -1.1067 -1.12204 0
M  V30 15315 C 1515.98 -0.715581 -2.17743 0
M  V30 15316 C 1517 0.248892 -1.60886 0
M  V30 15317 O 1518.19 0.0329917 -1.7847 0
M  V30 15318 C 1515.29 -0.0356388 -3.38881 0
M  V30 15319 C 1514.46 -1.0249 -4.25223 0
M  V30 15320 C 1513.52 -0.375998 -5.24855 0
M  V30 15321 O 1512.54 -1.02753 -5.59849 0
M  V30 15322 N 1513.75 0.864525 -5.74026 0
M  V30 15323 H 1516.51 -1.62362 -2.5191 0
M  V30 15324 H 1514.07 -0.995851 -1.2765 0
M  V30 15325 H 1516.06 0.41 -4.02618 0
M  V30 15326 H 1514.63 0.77485 -3.02845 0
M  V30 15327 H 1513.85 -1.64874 -3.58065 0
M  V30 15328 H 1515.14 -1.69446 -4.79756 0
M  V30 15329 H 1514.54 1.41317 -5.47764 0
M  V30 15330 H 1513.1 1.25327 -6.39638 0
M  V30 15331 N 1516.53 1.29665 -0.895815 0
M  V30 15332 C 1517.76 2.00399 -0.534333 0
M  V30 15333 C 1518.18 1.66632 0.872654 0
M  V30 15334 O 1517.54 0.888811 1.58018 0
M  V30 15335 C 1517.59 3.53154 -0.729023 0
M  V30 15336 O 1516.69 4.11812 0.22023 0
M  V30 15337 H 1516.03 0.630173 -0.209233 0
M  V30 15338 H 1518.56 1.65253 -1.20634 0
M  V30 15339 H 1518.57 4.03073 -0.632179 0
M  V30 15340 H 1517.25 3.77067 -1.75481 0
M  V30 15341 H 1515.82 3.72822 0.0761687 0
M  V30 15342 N 1518.01 0.657889 1.43212 0
M  V30 15343 C 1519.26 0.173187 2.01758 0
M  V30 15344 C 1519.58 -1.21447 1.51924 0
M  V30 15345 O 1518.84 -1.82568 0.704807 0
M  V30 15346 C 1519.14 0.138025 3.57133 0
M  V30 15347 C 1518.8 1.46806 4.26332 0
M  V30 15348 C 1517.47 1.83227 4.44951 0
M  V30 15349 C 1519.82 2.34476 4.65478 0
M  V30 15350 C 1517.15 3.06975 4.99983 0
M  V30 15351 C 1519.5 3.57521 5.21883 0
M  V30 15352 C 1518.16 3.94132 5.38717 0
M  V30 15353 H 1517.43 0.0633735 0.738285 0
M  V30 15354 H 1520.08 0.849524 1.71626 0
M  V30 15355 H 1518.38 -0.621776 3.86835 0
M  V30 15356 H 1520.08 -0.253948 4.00195 0
M  V30 15357 H 1516.67 1.17469 4.12188 0
M  V30 15358 H 1520.85 2.07628 4.50782 0
M  V30 15359 H 1516.11 3.35383 5.11202 0
M  V30 15360 H 1520.28 4.25669 5.51161 0
M  V30 15361 H 1517.91 4.901 5.81125 0
M  V30 15362 N 1519.49 -1.52437 0.400108 0
M  V30 15363 C 1520.9 -1.5952 0.0505611 0
M  V30 15364 C 1521.1 -1.4135 -1.43606 0
M  V30 15365 O 1520.16 -1.23591 -2.20185 0
M  V30 15366 C 1521.47 -2.95859 0.537411 0
M  V30 15367 C 1523.02 -3.09067 0.494603 0
M  V30 15368 C 1523.49 -4.47873 0.957815 0
M  V30 15369 N 1524.99 -4.54087 0.914267 0
M  V30 15370 C 1525.72 -5.59744 1.24397 0
M  V30 15371 N 1525.22 -6.72995 1.64469 0
M  V30 15372 N 1527.01 -5.49905 1.16452 0
M  V30 15373 H 1519.16 -1.62496 1.36781 0
M  V30 15374 H 1521.42 -0.763947 0.561328 0
M  V30 15375 H 1521.13 -3.14407 1.57611 0
M  V30 15376 H 1521 -3.77156 -0.0577652 0
M  V30 15377 H 1523.39 -2.90209 -0.535035 0
M  V30 15378 H 1523.47 -2.29698 1.12572 0
M  V30 15379 H 1523.12 -4.67473 1.98574 0
M  V30 15380 H 1523.05 -5.25724 0.303602 0
M  V30 15381 H 1525.54 -3.72787 0.619536 0
M  V30 15382 H 1525.85 -7.49594 1.87961 0
M  V30 15383 H 1524.19 -6.74298 1.68364 0
M  V30 15384 H 1527.39 -4.60311 0.850401 0
M  V30 15385 H 1527.56 -6.32142 1.42478 0
M  V30 15386 N 1520.96 -0.130252 -1.57061 0
M  V30 15387 C 1522.38 0.393318 -1.8251 0
M  V30 15388 C 1522.73 1.65862 -1.04806 0
M  V30 15389 O 1521.85 2.14473 -0.288118 0
M  V30 15390 C 1522.45 0.720366 -3.31053 0
M  V30 15391 C 1521.01 1.18852 -3.57143 0
M  V30 15392 C 1520.15 0.202964 -2.76556 0
M  V30 15393 H 1523.1 -0.355217 -1.54674 0
M  V30 15394 H 1523.12 1.57671 -3.46295 0
M  V30 15395 H 1522.64 -0.200719 -3.87581 0
M  V30 15396 H 1520.74 2.12612 -3.05985 0
M  V30 15397 H 1520.85 1.12607 -4.65678 0
M  V30 15398 H 1519.21 0.692264 -2.45112 0
M  V30 15399 H 1520 -0.711417 -3.35848 0
M  V30 15400 N 1522.44 1.56945 0.143535 0
M  V30 15401 C 1523.41 1.97616 1.16106 0
M  V30 15402 C 1524.41 0.863113 1.35672 0
M  V30 15403 O 1525.6 1.12966 1.32606 0
M  V30 15404 C 1522.73 2.29511 2.52067 0
M  V30 15405 H 1523.92 2.88696 0.812066 0
M  V30 15406 H 1521.47 1.51433 0.386999 0
M  V30 15407 H 1522.21 1.41233 2.91931 0
M  V30 15408 H 1521.99 3.10667 2.39225 0
M  V30 15409 H 1523.48 2.61802 3.25345 0
M  V30 15410 N 1523.92 -0.412991 1.52093 0
M  V30 15411 C 1524.85 -1.52374 1.69874 0
M  V30 15412 C 1525.83 -1.53148 0.546311 0
M  V30 15413 O 1527.02 -1.71913 0.773188 0
M  V30 15414 C 1524.14 -2.90914 1.73455 0
M  V30 15415 C 1523.19 -3.08068 2.94952 0
M  V30 15416 S 1524.02 -2.81789 4.55363 0
M  V30 15417 C 1525.18 -4.22566 4.61724 0
M  V30 15418 H 1525.41 -1.37062 2.63821 0
M  V30 15419 H 1522.94 -0.604312 1.42082 0
M  V30 15420 H 1524.9 -3.7076 1.76203 0
M  V30 15421 H 1523.56 -3.03571 0.806429 0
M  V30 15422 H 1522.76 -4.09417 2.93928 0
M  V30 15423 H 1522.36 -2.36082 2.90071 0
M  V30 15424 H 1524.65 -5.16145 4.38863 0
M  V30 15425 H 1525.59 -4.28615 5.63644 0
M  V30 15426 H 1526 -4.07357 3.90795 0
M  V30 15427 N 1525.4 -1.4265 -0.669982 0
M  V30 15428 C 1526.82 -1.25682 -0.983682 0
M  V30 15429 C 1527.02 -0.164456 -2.00828 0
M  V30 15430 O 1526.07 0.462711 -2.48224 0
M  V30 15431 C 1527.38 -2.61536 -1.4839 0
M  V30 15432 C 1528.93 -2.6893 -1.60143 0
M  V30 15433 C 1529.41 -4.05162 -2.1356 0
M  V30 15434 N 1530.9 -4.07141 -2.20886 0
M  V30 15435 C 1531.63 -5.09371 -2.63303 0
M  V30 15436 N 1531.13 -6.21983 -3.05137 0
M  V30 15437 N 1532.92 -4.96727 -2.63094 0
M  V30 15438 H 1525.07 -2.12398 0.0083059 0
M  V30 15439 H 1527.34 -0.946173 -0.058823 0
M  V30 15440 H 1527.04 -3.42351 -0.805527 0
M  V30 15441 H 1526.92 -2.85786 -2.46183 0
M  V30 15442 H 1529.3 -1.88457 -2.27085 0
M  V30 15443 H 1529.38 -2.48463 -0.608266 0
M  V30 15444 H 1529.03 -4.86094 -1.47224 0
M  V30 15445 H 1528.96 -4.22984 -3.13676 0
M  V30 15446 H 1531.45 -3.25846 -1.91396 0
M  V30 15447 H 1531.76 -6.95835 -3.36204 0
M  V30 15448 H 1530.11 -6.25481 -3.02983 0
M  V30 15449 H 1533.3 -4.07824 -2.29777 0
M  V30 15450 H 1533.47 -5.76531 -2.95831 0
M  V30 15451 N 1526.88 0.906753 -1.28902 0
M  V30 15452 C 1528.29 1.18635 -1.06761 0
M  V30 15453 C 1528.49 2.00643 0.185594 0
M  V30 15454 O 1527.55 2.3647 0.885324 0
M  V30 15455 C 1528.86 1.91414 -2.31907 0
M  V30 15456 C 1530.41 2.04269 -2.37156 0
M  V30 15457 C 1530.89 2.80458 -3.62088 0
M  V30 15458 N 1532.38 2.88016 -3.62769 0
M  V30 15459 C 1533.11 3.47485 -4.56116 0
M  V30 15460 N 1532.61 4.08178 -5.59788 0
M  V30 15461 N 1534.4 3.45092 -4.43698 0
M  V30 15462 H 1526.55 0.359413 -2.09337 0
M  V30 15463 H 1528.81 0.221688 -0.921715 0
M  V30 15464 H 1528.52 1.38587 -3.23244 0
M  V30 15465 H 1528.39 2.91929 -2.38867 0
M  V30 15466 H 1530.78 2.56275 -1.46312 0
M  V30 15467 H 1530.86 1.0291 -2.34186 0
M  V30 15468 H 1530.51 2.2913 -4.53279 0
M  V30 15469 H 1530.44 3.82147 -3.62314 0
M  V30 15470 H 1532.93 2.44902 -2.87805 0
M  V30 15471 H 1533.24 4.51557 -6.27149 0
M  V30 15472 H 1531.59 4.06661 -5.63606 0
M  V30 15473 H 1534.78 2.96891 -3.61903 0
M  V30 15474 H 1534.95 3.91145 -5.16633 0
M  V30 15475 N 1528.36 1.11264 1.11616 0
M  V30 15476 C 1529.6 0.861639 1.83585 0
M  V30 15477 C 1529.93 -0.611221 1.8433 0
M  V30 15478 O 1529.21 -1.45116 1.29505 0
M  V30 15479 C 1529.49 1.42157 3.30852 0
M  V30 15480 C 1529.35 2.96192 3.38512 0
M  V30 15481 C 1530.66 1.07099 4.2687 0
M  V30 15482 H 1527.78 0.314464 0.666545 0
M  V30 15483 H 1530.43 1.37722 1.30892 0
M  V30 15484 H 1528.58 0.983054 3.75857 0
M  V30 15485 H 1530.25 3.48634 3.0208 0
M  V30 15486 H 1528.49 3.32353 2.7879 0
M  V30 15487 H 1529.16 3.30457 4.42156 0
M  V30 15488 H 1531.64 1.44952 3.90036 0
M  V30 15489 H 1530.51 1.48957 5.28302 0
M  V30 15490 H 1530.77 -0.018482 4.42096 0
M  V30 15491 N 1529.83 -1.29188 0.902679 0
M  V30 15492 C 1531.08 -1.95438 0.530124 0
M  V30 15493 C 1531.41 -1.71142 -0.924149 0
M  V30 15494 O 1530.66 -1.01901 -1.67077 0
M  V30 15495 C 1530.96 -3.48951 0.772542 0
M  V30 15496 C 1530.63 -3.93328 2.20464 0
M  V30 15497 C 1529.29 -4.05155 2.59621 0
M  V30 15498 C 1531.64 -4.16216 3.13709 0
M  V30 15499 C 1528.97 -4.37242 3.91198 0
M  V30 15500 C 1531.32 -4.49779 4.44839 0
M  V30 15501 C 1529.99 -4.59817 4.83865 0
M  V30 15502 H 1529.26 -0.715158 0.193986 0
M  V30 15503 H 1531.9 -1.5373 1.1419 0
M  V30 15504 H 1530.21 -3.91723 0.0778683 0
M  V30 15505 H 1531.91 -3.98311 0.463623 0
M  V30 15506 H 1528.5 -3.84641 1.89075 0
M  V30 15507 H 1532.68 -4.06542 2.8467 0
M  V30 15508 H 1527.94 -4.43217 4.21152 0
M  V30 15509 H 1532.11 -4.66439 5.17115 0
M  V30 15510 H 1529.74 -4.84435 5.85856 0
M  V30 15511 N 1531.31 -0.665475 -1.42861 0
M  V30 15512 C 1532.24 0.00482845 -2.335 0
M  V30 15513 C 1533.22 0.799135 -1.50159 0
M  V30 15514 O 1534.41 0.75816 -1.78789 0
M  V30 15515 C 1531.54 0.963347 -3.33672 0
M  V30 15516 C 1530.49 0.278294 -4.27094 0
M  V30 15517 C 1529.82 1.34911 -5.174 0
M  V30 15518 C 1531.12 -0.836925 -5.15551 0
M  V30 15519 H 1532.81 -0.752129 -2.89799 0
M  V30 15520 H 1530.36 -0.363139 -1.39346 0
M  V30 15521 H 1532.31 1.44128 -3.95986 0
M  V30 15522 H 1531.03 1.75161 -2.75656 0
M  V30 15523 H 1529.69 -0.179314 -3.66161 0
M  V30 15524 H 1529.34 2.12912 -4.55716 0
M  V30 15525 H 1529.04 0.895919 -5.8073 0
M  V30 15526 H 1530.57 1.82816 -5.8259 0
M  V30 15527 H 1531.98 -0.440617 -5.71604 0
M  V30 15528 H 1530.38 -1.21533 -5.87665 0
M  V30 15529 H 1531.45 -1.6897 -4.54507 0
M  V30 15530 N 1532.79 1.52222 -0.408187 0
M  V30 15531 C 1533.74 2.2381 0.435101 0
M  V30 15532 C 1534.72 1.24908 1.01424 0
M  V30 15533 O 1535.92 1.50151 0.937216 0
M  V30 15534 C 1533.04 3.06229 1.55173 0
M  V30 15535 C 1532.13 4.12541 0.98341 0
M  V30 15536 N 1532.52 5.05602 0.141664 0
M  V30 15537 C 1530.82 4.28008 1.25401 0
M  V30 15538 C 1531.52 5.81438 -0.174417 0
M  V30 15539 N 1530.5 5.41861 0.434479 0
M  V30 15540 H 1534.3 2.93117 -0.214323 0
M  V30 15541 H 1531.81 1.60923 -0.218556 0
M  V30 15542 H 1533.81 3.56067 2.16845 0
M  V30 15543 H 1532.47 2.3846 2.20379 0
M  V30 15544 H 1533.48 5.17422 -0.222569 0
M  V30 15545 H 1530.16 3.71468 1.90572 0
M  V30 15546 H 1531.55 6.66404 -0.857609 0
M  V30 15547 N 1534.27 0.138579 1.5699 0
M  V30 15548 C 1535.18 -0.817548 2.19894 0
M  V30 15549 C 1536.19 -1.27806 1.18075 0
M  V30 15550 O 1537.37 -1.33699 1.5062 0
M  V30 15551 C 1534.43 -2.04244 2.80152 0
M  V30 15552 C 1533.5 -1.63197 3.97071 0
M  V30 15553 C 1532.73 -2.79847 4.54446 0
M  V30 15554 O 1532.95 -3.95827 4.10703 0
M  V30 15555 O 1531.89 -2.55804 5.44838 0
M  V30 15556 H 1535.71 -0.312123 3.02092 0
M  V30 15557 H 1533.3 -0.0880281 1.4914 0
M  V30 15558 H 1535.18 -2.75945 3.18485 0
M  V30 15559 H 1533.85 -2.53755 2.00973 0
M  V30 15560 H 1532.76 -0.885448 3.6347 0
M  V30 15561 H 1534.09 -1.1841 4.77745 0
M  V30 15562 N 1535.75 -1.57019 -0.13521 0
M  V30 15563 C 1536.71 -1.98229 -1.15056 0
M  V30 15564 C 1537.71 -0.870295 -1.35213 0
M  V30 15565 O 1538.9 -1.13668 -1.32005 0
M  V30 15566 C 1536.03 -2.30844 -2.50846 0
M  V30 15567 H 1537.22 -2.89123 -0.796744 0
M  V30 15568 H 1534.78 -1.51636 -0.378962 0
M  V30 15569 H 1535.51 -1.42779 -2.91178 0
M  V30 15570 H 1535.3 -3.11931 -2.37574 0
M  V30 15571 H 1536.79 -2.63524 -3.23952 0
M  V30 15572 N 1537.22 0.404919 -1.52309 0
M  V30 15573 C 1538.45 1.17309 -1.70429 0
M  V30 15574 C 1538.87 1.84169 -0.415617 0
M  V30 15575 O 1538.22 1.7205 0.608693 0
M  V30 15576 C 1538.28 2.23306 -2.84282 0
M  V30 15577 O 1538 1.59176 -4.0816 0
M  V30 15578 C 1539.5 3.12972 -3.13948 0
M  V30 15579 H 1536.72 0.352348 -0.571045 0
M  V30 15580 H 1539.26 0.475851 -1.98887 0
M  V30 15581 H 1537.42 2.88693 -2.58332 0
M  V30 15582 H 1537.83 2.29481 -4.71634 0
M  V30 15583 H 1539.3 3.83411 -3.97115 0
M  V30 15584 H 1539.78 3.75582 -2.27672 0
M  V30 15585 H 1540.39 2.53251 -3.41678 0
M  V30 15586 N 1538.7 1.43003 0.662408 0
M  V30 15587 C 1539.67 1.4713 1.75743 0
M  V30 15588 C 1540.67 0.357203 1.56782 0
M  V30 15589 O 1541.86 0.618566 1.62848 0
M  V30 15590 C 1538.99 1.31499 3.14517 0
M  V30 15591 H 1540.18 2.44641 1.73467 0
M  V30 15592 H 1537.73 1.29633 0.873208 0
M  V30 15593 H 1538.47 0.349596 3.2241 0
M  V30 15594 H 1538.25 2.12253 3.29683 0
M  V30 15595 H 1539.74 1.37298 3.94384 0
M  V30 15596 N 1540.18 -0.899904 1.29381 0
M  V30 15597 C 1541.6 -1.18067 1.07388 0
M  V30 15598 C 1541.8 -2.00739 -0.174951 0
M  V30 15599 O 1540.85 -2.36937 -0.872771 0
M  V30 15600 C 1542.17 -1.90182 2.32919 0
M  V30 15601 C 1543.71 -2.03009 2.38236 0
M  V30 15602 C 1544.19 -2.78533 3.6357 0
M  V30 15603 N 1545.68 -2.86088 3.64291 0
M  V30 15604 C 1546.41 -3.45062 4.57952 0
M  V30 15605 N 1545.91 -4.05204 5.61945 0
M  V30 15606 N 1547.7 -3.42734 4.45522 0
M  V30 15607 H 1539.85 -0.348306 2.09525 0
M  V30 15608 H 1542.12 -0.216796 0.922878 0
M  V30 15609 H 1541.82 -1.36871 3.23974 0
M  V30 15610 H 1541.7 -2.90658 2.40412 0
M  V30 15611 H 1544.08 -2.55495 1.47669 0
M  V30 15612 H 1544.17 -1.01666 2.34729 0
M  V30 15613 H 1543.81 -2.26723 4.54488 0
M  V30 15614 H 1543.74 -3.8022 3.64335 0
M  V30 15615 H 1546.23 -2.43372 2.891 0
M  V30 15616 H 1546.54 -4.48225 6.29535 0
M  V30 15617 H 1544.89 -4.03667 5.65755 0
M  V30 15618 H 1548.08 -2.94967 3.63472 0
M  V30 15619 H 1548.25 -3.884 5.187 0
M  V30 15620 N 1541.66 -1.11854 -1.11024 0
M  V30 15621 C 1542.59 -0.803129 -2.19253 0
M  V30 15622 C 1543.57 0.230417 -1.68532 0
M  V30 15623 O 1544.75 0.0929421 -1.93977 0
M  V30 15624 C 1541.88 -0.250265 -3.46397 0
M  V30 15625 C 1540.84 -1.21617 -4.10357 0
M  V30 15626 C 1540.16 -0.523821 -5.32128 0
M  V30 15627 C 1541.46 -2.56852 -4.54779 0
M  V30 15628 H 1543.16 -1.7081 -2.45895 0
M  V30 15629 H 1540.7 -0.822712 -1.18184 0
M  V30 15630 H 1542.66 -0.0173732 -4.21396 0
M  V30 15631 H 1541.38 0.690018 -3.19228 0
M  V30 15632 H 1540.04 -1.43477 -3.37357 0
M  V30 15633 H 1539.69 0.421408 -5.01232 0
M  V30 15634 H 1539.39 -1.16809 -5.75873 0
M  V30 15635 H 1540.91 -0.299823 -6.09863 0
M  V30 15636 H 1542.33 -2.39056 -5.21081 0
M  V30 15637 H 1540.72 -3.17301 -5.09353 0
M  V30 15638 H 1541.79 -3.15751 -3.68007 0
M  V30 15639 N 1543.14 1.28707 -0.909517 0
M  V30 15640 C 1544.07 2.25665 -0.339165 0
M  V30 15641 C 1545.05 1.52863 0.554222 0
M  V30 15642 O 1546.23 1.8178 0.498829 0
M  V30 15643 C 1543.36 3.34753 0.515592 0
M  V30 15644 C 1542.4 4.25359 -0.31183 0
M  V30 15645 S 1543.24 5.07265 -1.71588 0
M  V30 15646 C 1544.39 6.19848 -0.868312 0
M  V30 15647 H 1544.63 2.73695 -1.16097 0
M  V30 15648 H 1542.16 1.37082 -0.710492 0
M  V30 15649 H 1544.12 3.98059 1.00294 0
M  V30 15650 H 1542.78 2.85399 1.31173 0
M  V30 15651 H 1541.97 5.02841 0.341555 0
M  V30 15652 H 1541.57 3.66753 -0.73268 0
M  V30 15653 H 1543.87 6.77432 -0.0960601 0
M  V30 15654 H 1544.81 6.89424 -1.61554 0
M  V30 15655 H 1545.22 5.62948 -0.418357 0
M  V30 15656 N 1544.61 0.673042 1.42506 0
M  V30 15657 C 1545.58 0.00283156 2.292 0
M  V30 15658 C 1546.58 -0.73077 1.43235 0
M  V30 15659 O 1547.77 -0.569037 1.64644 0
M  V30 15660 C 1544.9 -1.00666 3.25698 0
M  V30 15661 H 1546.09 0.765869 2.89956 0
M  V30 15662 H 1543.65 0.435301 1.50116 0
M  V30 15663 H 1544.38 -1.79825 2.69877 0
M  V30 15664 H 1544.17 -0.484043 3.89101 0
M  V30 15665 H 1545.66 -1.47409 3.90718 0
M  V30 15666 N 1546.09 -1.52004 0.416254 0
M  V30 15667 C 1547.34 -2.0149 -0.15689 0
M  V30 15668 C 1547.66 -1.30343 -1.45037 0
M  V30 15669 O 1546.93 -0.431503 -1.91089 0
M  V30 15670 H 1545.51 -0.744508 -0.0609682 0
M  V30 15671 H 1548.17 -1.86857 0.55413 0
M  V30 15672 H 1547.27 -3.10155 -0.347917 0
M  V30 15673 N 1547.57 -0.146903 -1.56914 0
M  V30 15674 C 1548.53 0.778709 -2.15566 0
M  V30 15675 C 1549.53 1.1753 -1.09742 0
M  V30 15676 O 1550.72 1.09624 -1.35382 0
M  V30 15677 C 1547.86 2.0567 -2.71869 0
M  V30 15678 H 1549.05 0.268506 -2.98696 0
M  V30 15679 H 1546.6 0.10254 -1.55963 0
M  V30 15680 H 1547.34 2.61057 -1.92405 0
M  V30 15681 H 1547.12 1.78154 -3.4929 0
M  V30 15682 H 1548.61 2.71779 -3.17059 0
M  V30 15683 N 1549.05 1.57088 0.126881 0
M  V30 15684 C 1550.27 1.88984 0.854389 0
M  V30 15685 C 1550.7 0.738037 1.73016 0
M  V30 15686 O 1550.06 -0.311728 1.786 0
M  V30 15687 C 1550.1 3.19584 1.67028 0
M  V30 15688 O 1549.21 3.04935 2.77648 0
M  V30 15689 H 1548.55 0.620354 0.236763 0
M  V30 15690 H 1551.08 2.04295 0.111647 0
M  V30 15691 H 1551.09 3.52109 2.06115 0
M  V30 15692 H 1549.76 4.03012 1.02732 0
M  V30 15693 H 1548.34 2.83861 2.41821 0
M  V30 15694 N 1550.53 -0.396836 1.52522 0
M  V30 15695 C 1551.94 -0.975124 1.59211 0
M  V30 15696 C 1552.29 -1.91199 0.440138 0
M  V30 15697 O 1551.41 -2.11924 -0.437856 0
M  V30 15698 C 1552.01 -1.77531 2.88562 0
M  V30 15699 C 1550.57 -2.30343 2.9769 0
M  V30 15700 C 1549.71 -1.10671 2.54258 0
M  V30 15701 H 1552.67 -0.176646 1.57714 0
M  V30 15702 H 1552.69 -2.63384 2.74607 0
M  V30 15703 H 1552.2 -1.09318 3.72386 0
M  V30 15704 H 1550.3 -3.01891 2.18387 0
M  V30 15705 H 1550.41 -2.60366 4.02177 0
M  V30 15706 H 1548.78 -1.46439 2.08393 0
M  V30 15707 H 1549.56 -0.440061 3.40468 0
M  V30 15708 N 1552.01 -1.43353 -0.654814 0
M  V30 15709 C 1553.23 -1.48322 -1.4425 0
M  V30 15710 C 1553.65 -0.100608 -1.88532 0
M  V30 15711 O 1553.01 0.888831 -1.59393 0
M  V30 15712 C 1553.06 -2.42769 -2.67853 0
M  V30 15713 O 1552.78 -3.75653 -2.25424 0
M  V30 15714 C 1554.28 -2.56964 -3.61226 0
M  V30 15715 H 1551.5 -0.503805 -0.443195 0
M  V30 15716 H 1554.04 -1.88078 -0.802916 0
M  V30 15717 H 1552.2 -2.06212 -3.27956 0
M  V30 15718 H 1552.61 -4.26427 -3.05386 0
M  V30 15719 H 1554.09 -3.27129 -4.44624 0
M  V30 15720 H 1554.56 -1.61404 -4.08467 0
M  V30 15721 H 1555.17 -2.94325 -3.07006 0
M  V30 15722 N 1553.48 0.89303 -1.29857 0
M  V30 15723 C 1554.9 1.17496 -1.08013 0
M  V30 15724 C 1555.1 2.00829 0.164302 0
M  V30 15725 O 1554.16 2.37396 0.860194 0
M  V30 15726 C 1555.47 1.88944 -2.33924 0
M  V30 15727 C 1557.02 2.01742 -2.3931 0
M  V30 15728 C 1557.49 2.76601 -3.65042 0
M  V30 15729 N 1558.98 2.84152 -3.65803 0
M  V30 15730 C 1559.72 3.42628 -4.59776 0
M  V30 15731 N 1559.21 4.02218 -5.64086 0
M  V30 15732 N 1561.01 3.40366 -4.47334 0
M  V30 15733 H 1553.16 0.33719 -2.09706 0
M  V30 15734 H 1555.42 0.211899 -0.924014 0
M  V30 15735 H 1555.13 1.35151 -3.24695 0
M  V30 15736 H 1555 2.89379 -2.4195 0
M  V30 15737 H 1557.39 2.54708 -1.49022 0
M  V30 15738 H 1557.47 1.0042 -2.35265 0
M  V30 15739 H 1557.11 2.24309 -4.55684 0
M  V30 15740 H 1557.04 3.78283 -3.66346 0
M  V30 15741 H 1559.53 2.41835 -2.90386 0
M  V30 15742 H 1559.85 4.4488 -6.31903 0
M  V30 15743 H 1558.19 4.00661 -5.67887 0
M  V30 15744 H 1561.38 2.93035 -3.65031 0
M  V30 15745 H 1561.56 3.85644 -5.20752 0
M  V30 15746 N 1554.96 1.12442 1.10429 0
M  V30 15747 C 1556.19 0.902599 1.86174 0
M  V30 15748 C 1556.6 -0.548147 1.80668 0
M  V30 15749 O 1555.96 -1.37898 1.19543 0
M  V30 15750 C 1556.01 1.36912 3.34571 0
M  V30 15751 O 1555.73 2.763 3.39985 0
M  V30 15752 C 1557.23 1.18424 4.27189 0
M  V30 15753 H 1554.45 0.322534 0.588399 0
M  V30 15754 H 1557 1.49439 1.396 0
M  V30 15755 H 1555.15 0.82055 3.7861 0
M  V30 15756 H 1555.57 2.96772 4.32466 0
M  V30 15757 H 1557.04 1.55954 5.29511 0
M  V30 15758 H 1557.52 0.12483 4.39023 0
M  V30 15759 H 1558.12 1.72032 3.88954 0
M  V30 15760 N 1556.44 -1.28223 0.91633 0
M  V30 15761 C 1557.39 -2.24848 0.377829 0
M  V30 15762 C 1558.37 -1.52553 -0.511507 0
M  V30 15763 O 1559.57 -1.73489 -0.350808 0
M  V30 15764 C 1556.69 -3.41206 -0.378635 0
M  V30 15765 C 1555.78 -4.20818 0.526567 0
M  V30 15766 N 1556.17 -4.78429 1.64132 0
M  V30 15767 C 1554.47 -4.44796 0.327436 0
M  V30 15768 C 1555.17 -5.38355 2.20339 0
M  V30 15769 N 1554.15 -5.22657 1.49434 0
M  V30 15770 H 1557.95 -2.66963 1.22914 0
M  V30 15771 H 1555.46 -1.43024 0.769282 0
M  V30 15772 H 1557.46 -4.09514 -0.781283 0
M  V30 15773 H 1556.12 -3.00623 -1.22701 0
M  V30 15774 H 1557.13 -4.76718 2.02387 0
M  V30 15775 H 1553.81 -4.14717 -0.481214 0
M  V30 15776 H 1555.2 -5.93948 3.14126 0
M  V30 15777 N 1557.92 -0.68059 -1.42147 0
M  V30 15778 C 1558.85 0.0331442 -2.29176 0
M  V30 15779 C 1559.86 0.759652 -1.4399 0
M  V30 15780 O 1561.05 0.612846 -1.6765 0
M  V30 15781 C 1558.15 1.07077 -3.2154 0
M  V30 15782 C 1557.32 0.416914 -4.35409 0
M  V30 15783 C 1556.38 1.3551 -5.08452 0
M  V30 15784 O 1555.41 0.853198 -5.62769 0
M  V30 15785 N 1556.61 2.68815 -5.14508 0
M  V30 15786 H 1559.38 -0.713963 -2.91072 0
M  V30 15787 H 1556.94 -0.525451 -1.53136 0
M  V30 15788 H 1558.93 1.6998 -3.67272 0
M  V30 15789 H 1557.5 1.71955 -2.61056 0
M  V30 15790 H 1556.72 -0.391734 -3.92249 0
M  V30 15791 H 1558.01 -0.0383564 -5.08786 0
M  V30 15792 H 1557.41 3.12125 -4.71799 0
M  V30 15793 H 1555.96 3.26951 -5.63867 0
M  V30 15794 N 1559.4 1.51781 -0.424309 0
M  V30 15795 C 1560.33 2.30313 0.384462 0
M  V30 15796 C 1561.31 1.35166 1.03268 0
M  V30 15797 O 1562.49 1.64081 1.0388 0
M  V30 15798 C 1559.62 3.13566 1.49311 0
M  V30 15799 C 1558.58 4.16884 0.969096 0
M  V30 15800 C 1557.9 4.88576 2.17251 0
M  V30 15801 C 1559.2 5.22298 0.0125613 0
M  V30 15802 H 1560.9 2.98172 -0.270871 0
M  V30 15803 H 1558.44 1.43396 -0.131712 0
M  V30 15804 H 1560.39 3.67279 2.06602 0
M  V30 15805 H 1559.12 2.43504 2.17655 0
M  V30 15806 H 1557.78 3.64203 0.418494 0
M  V30 15807 H 1557.43 4.15029 2.84183 0
M  V30 15808 H 1557.13 5.58432 1.82833 0
M  V30 15809 H 1558.65 5.45107 2.75119 0
M  V30 15810 H 1560.06 5.71161 0.494744 0
M  V30 15811 H 1558.46 5.99606 -0.243544 0
M  V30 15812 H 1559.53 4.75935 -0.92813 0
M  V30 15813 N 1560.87 0.155222 1.56834 0
M  V30 15814 C 1561.8 -0.777258 2.20184 0
M  V30 15815 C 1562.78 -1.25102 1.15254 0
M  V30 15816 O 1563.97 -1.3071 1.43627 0
M  V30 15817 C 1561.1 -2.01326 2.82993 0
M  V30 15818 C 1560.05 -1.67596 3.93822 0
M  V30 15819 C 1559.38 -2.98529 4.43604 0
M  V30 15820 C 1560.68 -0.916302 5.142 0
M  V30 15821 H 1562.37 -0.249257 2.98361 0
M  V30 15822 H 1559.92 -0.118448 1.43512 0
M  V30 15823 H 1561.87 -2.67048 3.2598 0
M  V30 15824 H 1560.6 -2.56513 2.0216 0
M  V30 15825 H 1559.26 -1.0425 3.51465 0
M  V30 15826 H 1558.9 -3.51723 3.59583 0
M  V30 15827 H 1558.6 -2.76721 5.18362 0
M  V30 15828 H 1560.13 -3.65308 4.89267 0
M  V30 15829 H 1561.54 -1.47577 5.5398 0
M  V30 15830 H 1559.94 -0.797856 5.94772 0
M  V30 15831 H 1561.01 0.0904351 4.84816 0
M  V30 15832 N 1562.35 -1.57153 -0.118549 0
M  V30 15833 C 1563.63 -1.75846 -0.856587 0
M  V30 15834 C 1564.01 -0.730801 -1.98047 0
M  V30 15835 O 1563.36 0.245156 -2.27181 0
M  V30 15836 C 1563.57 -3.20864 -1.37286 0
M  V30 15837 C 1564.91 -3.83378 -1.82501 0
M  V30 15838 O 1565.94 -3.24469 -1.46964 0
M  V30 15839 O 1564.8 -4.86922 -2.48132 0
M  V30 15840 H 1561.89 -0.72002 -0.406817 0
M  V30 15841 H 1564.44 -1.69392 -0.102254 0
M  V30 15842 H 1563.21 -3.87177 -0.566531 0
M  V30 15843 H 1562.83 -3.31858 -2.18988 0
M  V30 15844 N 1563.83 0.388742 -1.5273 0
M  V30 15845 C 1565.25 0.728828 -1.41987 0
M  V30 15846 C 1565.45 1.94116 -0.540493 0
M  V30 15847 O 1564.5 2.52496 -0.0140397 0
M  V30 15848 C 1565.81 0.963683 -2.8484 0
M  V30 15849 C 1567.36 1.06514 -2.94319 0
M  V30 15850 C 1567.84 1.33262 -4.38184 0
M  V30 15851 N 1569.33 1.40083 -4.4151 0
M  V30 15852 C 1570.06 1.62446 -5.49908 0
M  V30 15853 N 1569.56 1.82277 -6.68391 0
M  V30 15854 N 1571.35 1.64627 -5.37452 0
M  V30 15855 H 1563.5 -0.408984 -2.08425 0
M  V30 15856 H 1565.77 -0.120791 -0.940273 0
M  V30 15857 H 1565.47 0.144986 -3.51401 0
M  V30 15858 H 1565.35 1.87828 -3.27109 0
M  V30 15859 H 1567.73 1.8744 -2.27926 0
M  V30 15860 H 1567.81 0.12845 -2.55477 0
M  V30 15861 H 1567.46 0.528457 -5.05143 0
M  V30 15862 H 1567.39 2.28216 -4.74579 0
M  V30 15863 H 1569.88 1.26465 -3.56111 0
M  V30 15864 H 1570.19 1.98848 -7.46779 0
M  V30 15865 H 1568.54 1.79501 -6.7142 0
M  V30 15866 H 1571.73 1.48686 -4.43858 0
M  V30 15867 H 1571.9 1.81715 -6.22 0
M  V30 15868 N 1565.31 1.43698 0.647203 0
M  V30 15869 C 1566.53 1.49301 1.43958 0
M  V30 15870 C 1566.96 0.11395 1.87755 0
M  V30 15871 O 1566.32 -0.893571 1.5775 0
M  V30 15872 C 1566.36 2.44905 2.64677 0
M  V30 15873 O 1565.47 1.93947 3.63948 0
M  V30 15874 H 1564.81 0.504771 0.431396 0
M  V30 15875 H 1567.34 1.88673 0.791432 0
M  V30 15876 H 1567.35 2.62409 3.12419 0
M  V30 15877 H 1566.02 3.45083 2.32143 0
M  V30 15878 H 1564.6 1.86133 3.23124 0
M  V30 15879 N 1566.79 -0.886131 1.30328 0
M  V30 15880 C 1567.72 -2.00793 1.19183 0
M  V30 15881 C 1568.7 -1.69899 0.08276 0
M  V30 15882 O 1569.88 -1.92389 0.264593 0
M  V30 15883 C 1567.01 -3.35922 0.881669 0
M  V30 15884 C 1565.97 -3.81072 1.94855 0
M  V30 15885 C 1565.29 -5.1348 1.4914 0
M  V30 15886 C 1566.59 -3.99923 3.35944 0
M  V30 15887 H 1568.29 -2.10375 2.13032 0
M  V30 15888 H 1565.83 -1.0108 1.02561 0
M  V30 15889 H 1567.79 -4.13922 0.790359 0
M  V30 15890 H 1566.51 -3.26469 -0.0925037 0
M  V30 15891 H 1565.17 -3.053 2.02947 0
M  V30 15892 H 1564.82 -5.00453 0.50553 0
M  V30 15893 H 1564.52 -5.44659 2.205 0
M  V30 15894 H 1566.04 -5.94005 1.41386 0
M  V30 15895 H 1567.45 -4.68364 3.30617 0
M  V30 15896 H 1565.85 -4.42477 4.05381 0
M  V30 15897 H 1566.92 -3.03816 3.77921 0
M  V30 15898 N 1568.26 -1.13026 -1.09832 0
M  V30 15899 C 1569.68 -0.867598 -1.33959 0
M  V30 15900 C 1569.88 0.499047 -1.95222 0
M  V30 15901 O 1568.94 1.24644 -2.19591 0
M  V30 15902 C 1570.25 -1.98893 -2.25526 0
M  V30 15903 C 1571.8 -2.02054 -2.39047 0
M  V30 15904 C 1572.27 -3.13438 -3.33947 0
M  V30 15905 N 1573.76 -3.12921 -3.41518 0
M  V30 15906 C 1574.5 -3.95746 -4.14937 0
M  V30 15907 N 1573.99 -4.88574 -4.91189 0
M  V30 15908 N 1575.79 -3.8386 -4.10619 0
M  V30 15909 H 1567.94 -2.01072 -0.684382 0
M  V30 15910 H 1570.2 -0.875341 -0.363982 0
M  V30 15911 H 1569.91 -2.97405 -1.87731 0
M  V30 15912 H 1569.78 -1.89948 -3.25883 0
M  V30 15913 H 1572.17 -1.04158 -2.76107 0
M  V30 15914 H 1572.25 -2.15072 -1.38483 0
M  V30 15915 H 1571.89 -4.11571 -2.9761 0
M  V30 15916 H 1571.82 -2.97658 -4.34405 0
M  V30 15917 H 1574.31 -2.45677 -2.87144 0
M  V30 15918 H 1574.63 -5.48269 -5.44629 0
M  V30 15919 H 1572.97 -4.92583 -4.90292 0
M  V30 15920 H 1576.16 -3.10669 -3.50146 0
M  V30 15921 H 1576.34 -4.48637 -4.67577 0
M  V30 15922 N 1569.74 1.27735 -0.923117 0
M  V30 15923 C 1571.16 1.46952 -0.622666 0
M  V30 15924 C 1571.36 1.8364 0.829384 0
M  V30 15925 O 1570.41 1.94705 1.60767 0
M  V30 15926 C 1571.73 2.56545 -1.56861 0
M  V30 15927 C 1573.28 2.70408 -1.57634 0
M  V30 15928 C 1573.75 3.83154 -2.50913 0
M  V30 15929 N 1575.24 3.90521 -2.49093 0
M  V30 15930 C 1575.98 4.77167 -3.17962 0
M  V30 15931 N 1575.47 5.68334 -3.96193 0
M  V30 15932 N 1577.27 4.70857 -3.07002 0
M  V30 15933 H 1569.42 1.02205 -1.86193 0
M  V30 15934 H 1571.68 0.509982 -0.799138 0
M  V30 15935 H 1571.39 2.3637 -2.60427 0
M  V30 15936 H 1571.26 3.53839 -1.30681 0
M  V30 15937 H 1573.65 2.89967 -0.548005 0
M  V30 15938 H 1573.73 1.73615 -1.8786 0
M  V30 15939 H 1573.37 3.64349 -3.53853 0
M  V30 15940 H 1573.3 4.79365 -2.17984 0
M  V30 15941 H 1575.79 3.25329 -1.92274 0
M  V30 15942 H 1576.11 6.31298 -4.45738 0
M  V30 15943 H 1574.45 5.68144 -4.00297 0
M  V30 15944 H 1577.64 3.98629 -2.45382 0
M  V30 15945 H 1577.81 5.38166 -3.60945 0
M  V30 15946 N 1571.22 0.688118 1.41784 0
M  V30 15947 C 1572.64 0.358943 1.55511 0
M  V30 15948 C 1572.84 -1.13469 1.66514 0
M  V30 15949 O 1571.89 -1.92039 1.63943 0
M  V30 15950 C 1573.21 1.10094 2.79821 0
M  V30 15951 C 1574.75 1.08456 2.93609 0
M  V30 15952 C 1575.23 1.80815 4.20797 0
M  V30 15953 N 1576.72 1.77748 4.27738 0
M  V30 15954 C 1577.45 2.30581 5.24995 0
M  V30 15955 N 1576.95 2.91854 6.28326 0
M  V30 15956 N 1578.74 2.2088 5.16884 0
M  V30 15957 H 1570.89 1.65695 1.32886 0
M  V30 15958 H 1573.16 0.698818 0.640592 0
M  V30 15959 H 1572.86 2.15589 2.77874 0
M  V30 15960 H 1572.74 0.674713 3.71117 0
M  V30 15961 H 1575.12 0.0378955 2.95076 0
M  V30 15962 H 1575.21 1.54978 2.03508 0
M  V30 15963 H 1574.85 2.85457 4.20092 0
M  V30 15964 H 1574.78 1.31732 5.09857 0
M  V30 15965 H 1577.27 1.33069 3.53696 0
M  V30 15966 H 1577.58 3.29755 6.98915 0
M  V30 15967 H 1575.93 2.95929 6.28849 0
M  V30 15968 H 1579.12 1.72689 4.35082 0
M  V30 15969 H 1579.29 2.62359 5.92513 0
M  V30 15970 N 1572.7 -1.51554 0.432352 0
M  V30 15971 C 1573.66 -2.26195 -0.369912 0
M  V30 15972 C 1574.66 -1.29446 -0.953961 0
M  V30 15973 O 1575.85 -1.53199 -0.829193 0
M  V30 15974 C 1572.98 -3.04993 -1.52289 0
M  V30 15975 H 1574.18 -2.98551 0.284173 0
M  V30 15976 H 1571.73 -1.55197 0.1854 0
M  V30 15977 H 1572.46 -2.37043 -2.21317 0
M  V30 15978 H 1572.25 -3.76051 -1.11032 0
M  V30 15979 H 1573.74 -3.61547 -2.08982 0
M  V30 15980 N 1574.18 -0.163538 -1.56749 0
M  V30 15981 C 1575.42 0.482449 -1.96257 0
M  V30 15982 C 1575.75 1.64302 -1.05023 0
M  V30 15983 O 1575.02 1.95562 -0.115027 0
M  V30 15984 H 1573.6 0.181222 -0.724684 0
M  V30 15985 H 1576.26 -0.242903 -1.9338 0
M  V30 15986 H 1575.35 0.847634 -3.00369 0
M  V30 15987 N 1575.65 1.57214 0.110213 0
M  V30 15988 C 1577.07 1.74402 0.666405 0
M  V30 15989 C 1577.42 0.783524 1.79876 0
M  V30 15990 O 1576.54 -0.0415306 2.1636 0
M  V30 15991 C 1577.14 3.1624 1.21564 0
M  V30 15992 C 1575.7 3.34904 1.71804 0
M  V30 15993 C 1574.84 2.70249 0.621347 0
M  V30 15994 H 1577.79 1.58277 -0.115765 0
M  V30 15995 H 1577.81 3.18276 2.0852 0
M  V30 15996 H 1577.33 3.86123 0.391273 0
M  V30 15997 H 1575.43 2.70077 2.56689 0
M  V30 15998 H 1575.54 4.43126 1.82143 0
M  V30 15999 H 1573.9 2.31727 1.05711 0
M  V30 16000 H 1574.69 3.42762 -0.192185 0
M  V30 16001 N 1577.13 -0.380637 1.52934 0
M  V30 16002 C 1578.38 -1.12261 1.68053 0
M  V30 16003 C 1578.7 -1.90263 0.427191 0
M  V30 16004 O 1577.97 -1.87768 -0.558559 0
M  V30 16005 H 1576.55 -0.41742 0.619491 0
M  V30 16006 H 1579.21 -0.430906 1.90077 0
M  V30 16007 H 1578.31 -1.82085 2.53479 0
M  V30 16008 N 1578.61 -1.44039 -0.639573 0
M  V30 16009 C 1579.86 -1.46088 -1.39652 0
M  V30 16010 C 1580.18 -0.0914602 -1.94785 0
M  V30 16011 O 1579.45 0.875097 -1.75268 0
M  V30 16012 H 1578.03 -0.537901 -0.518335 0
M  V30 16013 H 1580.69 -1.79751 -0.753365 0
M  V30 16014 H 1579.79 -2.1814 -2.23207 0
M  V30 16015 N 1580.09 0.879207 -1.30796 0
M  V30 16016 C 1581.04 1.98553 -1.17667 0
M  V30 16017 C 1582.01 1.65974 -0.0647231 0
M  V30 16018 O 1583.19 1.89336 -0.235941 0
M  V30 16019 C 1580.33 3.3368 -0.880434 0
M  V30 16020 C 1579.44 3.78913 -2.07482 0
M  V30 16021 C 1578.58 5.02714 -1.71617 0
M  V30 16022 C 1577.62 5.40371 -2.87517 0
M  V30 16023 N 1576.75 6.55352 -2.5191 0
M  V30 16024 H 1581.59 2.09115 -2.12309 0
M  V30 16025 H 1579.13 1.02382 -1.05623 0
M  V30 16026 H 1581.09 4.11467 -0.689278 0
M  V30 16027 H 1579.72 3.22787 0.0291283 0
M  V30 16028 H 1578.77 2.96987 -2.37704 0
M  V30 16029 H 1580.08 4.02757 -2.94259 0
M  V30 16030 H 1579.24 5.88142 -1.4891 0
M  V30 16031 H 1577.98 4.80754 -0.820181 0
M  V30 16032 H 1576.98 4.53466 -3.10883 0
M  V30 16033 H 1578.21 5.64301 -3.77811 0
M  V30 16034 H 1576.15 6.34956 -1.64823 0
M  V30 16035 H 1576.07 6.79093 -3.32217 0
M  V30 16036 H 1577.34 7.43996 -2.32573 0
M  V30 16037 N 1581.57 1.13606 1.09231 0
M  V30 16038 C 1582.82 0.897278 1.81089 0
M  V30 16039 C 1583.14 -0.578066 1.86235 0
M  V30 16040 O 1582.41 -1.42018 1.34935 0
M  V30 16041 H 1580.99 0.328971 0.670662 0
M  V30 16042 H 1583.65 1.433 1.32103 0
M  V30 16043 H 1582.74 1.28979 2.84202 0
M  V30 16044 N 1583.05 -1.27244 0.929878 0
M  V30 16045 C 1584.29 -1.93886 0.570331 0
M  V30 16046 C 1584.61 -1.7342 -0.891656 0
M  V30 16047 O 1583.88 -1.0832 -1.63228 0
M  V30 16048 H 1582.46 -0.717476 0.207937 0
M  V30 16049 H 1585.13 -1.5491 1.18275 0
M  V30 16050 H 1584.22 -3.02236 0.778463 0
M  V30 16051 N 1584.52 -0.695628 -1.41417 0
M  V30 16052 C 1585.49 -0.0392949 -2.29166 0
M  V30 16053 C 1586.49 0.70789 -1.4438 0
M  V30 16054 O 1587.68 0.542771 -1.65528 0
M  V30 16055 C 1584.81 0.954719 -3.27258 0
M  V30 16056 H 1586 -0.811902 -2.88701 0
M  V30 16057 H 1583.55 -0.459128 -1.49405 0
M  V30 16058 H 1584.29 1.75509 -2.72703 0
M  V30 16059 H 1584.07 0.422079 -3.89822 0
M  V30 16060 H 1585.56 1.41174 -3.93014 0
M  V30 16061 N 1586 1.51322 -0.440383 0
M  V30 16062 C 1587.25 2.02413 0.125248 0
M  V30 16063 C 1587.58 1.32374 1.42094 0
M  V30 16064 O 1586.86 0.439624 1.89467 0
M  V30 16065 C 1587.14 3.58483 0.340858 0
M  V30 16066 C 1586.99 4.39134 -0.973701 0
M  V30 16067 C 1588.31 4.25891 1.10927 0
M  V30 16068 H 1585.43 0.735683 0.0440452 0
M  V30 16069 H 1588.07 1.80932 -0.579976 0
M  V30 16070 H 1586.22 3.76917 0.941572 0
M  V30 16071 H 1587.89 4.32343 -1.60863 0
M  V30 16072 H 1586.14 4.04097 -1.57759 0
M  V30 16073 H 1586.81 5.46506 -0.776845 0
M  V30 16074 H 1589.28 4.11746 0.600403 0
M  V30 16075 H 1588.16 5.34967 1.2289 0
M  V30 16076 H 1588.42 3.86958 2.13813 0
M  V30 16077 N 1587.48 0.171848 1.5666 0
M  V30 16078 C 1588.44 -0.744316 2.16778 0
M  V30 16079 C 1589.44 -1.15769 1.11598 0
M  V30 16080 O 1590.63 -1.07456 1.37109 0
M  V30 16081 C 1587.76 -2.01319 2.75106 0
M  V30 16082 H 1588.96 -0.220952 2.99085 0
M  V30 16083 H 1586.51 -0.0777149 1.56107 0
M  V30 16084 H 1587.25 -2.57963 1.96534 0
M  V30 16085 H 1587.03 -1.72575 3.5208 0
M  V30 16086 H 1588.52 -2.667 3.21342 0
M  V30 16087 N 1588.96 -1.5727 -0.101874 0
M  V30 16088 C 1589.87 -2.04896 -1.14257 0
M  V30 16089 C 1590.88 -0.972561 -1.44282 0
M  V30 16090 O 1592.06 -1.28526 -1.55058 0
M  V30 16091 C 1589.12 -2.45818 -2.44488 0
M  V30 16092 C 1588.19 -3.6762 -2.21707 0
M  V30 16093 C 1587.42 -4.06581 -3.45728 0
M  V30 16094 O 1587.64 -3.45702 -4.53703 0
M  V30 16095 O 1586.58 -4.99578 -3.35716 0
M  V30 16096 H 1590.4 -2.93827 -0.768085 0
M  V30 16097 H 1587.99 -1.46065 -0.313902 0
M  V30 16098 H 1589.87 -2.72796 -3.21186 0
M  V30 16099 H 1588.54 -1.60028 -2.81377 0
M  V30 16100 H 1587.45 -3.45768 -1.42812 0
M  V30 16101 H 1588.78 -4.54169 -1.89714 0
M  V30 16102 N 1590.44 0.372521 -1.53134 0
M  V30 16103 C 1591.37 1.4621 -1.82057 0
M  V30 16104 C 1592.35 1.56194 -0.673612 0
M  V30 16105 O 1593.53 1.70875 -0.922797 0
M  V30 16106 C 1590.66 2.83632 -2.00425 0
M  V30 16107 C 1589.62 2.88478 -3.16171 0
M  V30 16108 C 1588.94 4.28508 -3.19821 0
M  V30 16109 C 1590.24 2.56628 -4.54906 0
M  V30 16110 H 1591.94 1.22256 -2.73302 0
M  V30 16111 H 1589.48 0.586688 -1.31507 0
M  V30 16112 H 1591.43 3.59876 -2.19242 0
M  V30 16113 H 1590.16 3.0896 -1.05884 0
M  V30 16114 H 1588.82 2.14684 -2.97164 0
M  V30 16115 H 1588.47 4.509 -2.2293 0
M  V30 16116 H 1588.17 4.32667 -3.97584 0
M  V30 16117 H 1589.69 5.06635 -3.40813 0
M  V30 16118 H 1591.1 3.22587 -4.73931 0
M  V30 16119 H 1589.5 2.72114 -5.34859 0
M  V30 16120 H 1590.57 1.51902 -4.60493 0
M  V30 16121 N 1591.91 1.44376 0.631925 0
M  V30 16122 C 1592.82 1.5367 1.77264 0
M  V30 16123 C 1593.84 0.422425 1.68794 0
M  V30 16124 O 1595.02 0.679656 1.89585 0
M  V30 16125 C 1592.08 1.47743 3.13644 0
M  V30 16126 C 1591.14 2.70015 3.33752 0
M  V30 16127 C 1590.37 2.64362 4.63626 0
M  V30 16128 O 1590.6 1.7032 5.44378 0
M  V30 16129 O 1589.53 3.55201 4.85918 0
M  V30 16130 H 1593.36 2.5004 1.72376 0
M  V30 16131 H 1590.94 1.26614 0.793052 0
M  V30 16132 H 1592.82 1.46958 3.94945 0
M  V30 16133 H 1591.5 0.545165 3.19076 0
M  V30 16134 H 1590.41 2.76369 2.52133 0
M  V30 16135 H 1591.74 3.62286 3.33181 0
M  V30 16136 N 1593.39 -0.872258 1.31261 0
M  V30 16137 C 1594.8 -1.44077 1.18738 0
M  V30 16138 C 1595.15 -1.95105 -0.207037 0
M  V30 16139 O 1594.28 -1.86083 -1.10464 0
M  V30 16140 C 1594.87 -2.61884 2.14947 0
M  V30 16141 C 1593.43 -3.14787 2.06364 0
M  V30 16142 C 1592.58 -1.87495 2.04306 0
M  V30 16143 H 1595.53 -0.681011 1.43345 0
M  V30 16144 H 1595.55 -3.38501 1.73773 0
M  V30 16145 H 1595.06 -2.24715 3.16425 0
M  V30 16146 H 1593.16 -3.56582 1.08073 0
M  V30 16147 H 1593.28 -3.77225 2.95361 0
M  V30 16148 H 1591.64 -2.06361 1.49288 0
M  V30 16149 H 1592.42 -1.52566 3.07536 0
M  V30 16150 N 1594.87 -1.14184 -1.08627 0
M  V30 16151 C 1596.29 -0.881757 -1.33031 0
M  V30 16152 C 1596.49 0.478313 -1.95741 0
M  V30 16153 O 1595.54 1.22308 -2.209 0
M  V30 16154 C 1596.85 -2.01274 -2.23404 0
M  V30 16155 C 1598.4 -2.04578 -2.3689 0
M  V30 16156 C 1598.88 -3.16962 -3.30604 0
M  V30 16157 N 1600.37 -3.16526 -3.3818 0
M  V30 16158 C 1601.1 -4.00124 -4.10716 0
M  V30 16159 N 1600.6 -4.93757 -4.8598 0
M  V30 16160 N 1602.39 -3.88193 -4.06525 0
M  V30 16161 H 1594.54 -2.01787 -0.663017 0
M  V30 16162 H 1596.81 -0.879152 -0.354677 0
M  V30 16163 H 1596.51 -2.9938 -1.84566 0
M  V30 16164 H 1596.39 -1.93393 -3.2385 0
M  V30 16165 H 1598.77 -1.0708 -2.74987 0
M  V30 16166 H 1598.85 -2.16529 -1.36194 0
M  V30 16167 H 1598.5 -4.14704 -2.93228 0
M  V30 16168 H 1598.43 -3.02248 -4.31223 0
M  V30 16169 H 1600.92 -2.48708 -2.84522 0
M  V30 16170 H 1601.23 -5.54015 -5.38783 0
M  V30 16171 H 1599.58 -4.97756 -4.8504 0
M  V30 16172 H 1602.77 -3.14365 -3.46831 0
M  V30 16173 H 1602.94 -4.53571 -4.62793 0
M  V30 16174 N 1596.35 1.26749 -0.936613 0
M  V30 16175 C 1597.76 1.75925 -0.62507 0
M  V30 16176 C 1598.11 1.76359 0.859771 0
M  V30 16177 O 1597.24 1.37277 1.67284 0
M  V30 16178 C 1597.83 3.19474 -1.12791 0
M  V30 16179 C 1596.39 3.66282 -0.866872 0
M  V30 16180 C 1595.54 2.45913 -1.28148 0
M  V30 16181 H 1598.49 1.1289 -1.11542 0
M  V30 16182 H 1598.51 3.77465 -0.479643 0
M  V30 16183 H 1598.02 3.19126 -2.20862 0
M  V30 16184 H 1596.12 3.72065 0.199647 0
M  V30 16185 H 1596.23 4.55319 -1.49067 0
M  V30 16186 H 1594.6 2.44894 -0.699941 0
M  V30 16187 H 1595.38 2.4827 -2.37101 0
M  V30 16188 N 1597.83 0.703118 1.41046 0
M  V30 16189 C 1599.05 0.246552 2.05426 0
M  V30 16190 C 1599.47 -1.10704 1.52938 0
M  V30 16191 O 1598.83 -1.69329 0.680733 0
M  V30 16192 C 1598.88 0.203953 3.60924 0
M  V30 16193 O 1598.6 1.50408 4.11472 0
M  V30 16194 C 1600.1 -0.272686 4.42461 0
M  V30 16195 H 1597.32 0.113157 0.66139 0
M  V30 16196 H 1599.86 0.957823 1.80682 0
M  V30 16197 H 1598.02 -0.458194 3.84681 0
M  V30 16198 H 1598.43 1.39622 5.05575 0
M  V30 16199 H 1599.91 -0.251357 5.51427 0
M  V30 16200 H 1600.38 -1.31282 4.1912 0
M  V30 16201 H 1600.99 0.358733 4.23784 0
M  V30 16202 N 1599.3 -1.51086 0.448402 0
M  V30 16203 C 1600.72 -1.59278 0.101286 0
M  V30 16204 C 1600.92 -1.45847 -1.39036 0
M  V30 16205 O 1599.98 -1.30534 -2.16142 0
M  V30 16206 C 1601.29 -2.93999 0.631264 0
M  V30 16207 C 1602.84 -3.07337 0.59268 0
M  V30 16208 C 1603.31 -4.44599 1.09982 0
M  V30 16209 N 1604.8 -4.50949 1.05827 0
M  V30 16210 C 1605.54 -5.55503 1.42142 0
M  V30 16211 N 1605.03 -6.67422 1.85796 0
M  V30 16212 N 1606.83 -5.45922 1.33888 0
M  V30 16213 H 1598.98 -1.58062 1.41881 0
M  V30 16214 H 1601.24 -0.745702 0.585349 0
M  V30 16215 H 1600.95 -3.09233 1.67534 0
M  V30 16216 H 1600.82 -3.77149 0.0622533 0
M  V30 16217 H 1603.21 -2.91764 -0.442437 0
M  V30 16218 H 1603.29 -2.26 1.19823 0
M  V30 16219 H 1602.93 -4.60919 2.13345 0
M  V30 16220 H 1602.86 -5.24492 0.470703 0
M  V30 16221 H 1605.35 -3.70627 0.737822 0
M  V30 16222 H 1605.67 -7.43234 2.11714 0
M  V30 16223 H 1604.01 -6.68601 1.89731 0
M  V30 16224 H 1607.2 -4.57372 0.996415 0
M  V30 16225 H 1607.38 -6.2729 1.62517 0
M  V30 16226 N 1600.78 -0.180154 -1.56567 0
M  V30 16227 C 1602.2 0.175902 -1.58628 0
M  V30 16228 C 1602.4 1.62179 -1.19583 0
M  V30 16229 O 1601.45 2.35471 -0.911566 0
M  V30 16230 C 1602.77 -0.11292 -3.00488 0
M  V30 16231 C 1604.32 -0.051834 -3.12957 0
M  V30 16232 C 1604.79 -0.313764 -4.56924 0
M  V30 16233 N 1606.28 -0.261852 -4.62459 0
M  V30 16234 C 1607.02 -0.438573 -5.7172 0
M  V30 16235 N 1606.51 -0.674832 -6.89506 0
M  V30 16236 N 1608.31 -0.373864 -5.60855 0
M  V30 16237 H 1600.46 -1.12385 -1.80232 0
M  V30 16238 H 1602.72 -0.447459 -0.835754 0
M  V30 16239 H 1602.43 -1.11488 -3.33562 0
M  V30 16240 H 1602.3 0.591409 -3.72535 0
M  V30 16241 H 1604.69 0.940711 -2.79705 0
M  V30 16242 H 1604.77 -0.78901 -2.43327 0
M  V30 16243 H 1604.41 -1.30356 -4.90887 0
M  V30 16244 H 1604.34 0.444127 -5.24724 0
M  V30 16245 H 1606.83 -0.0852513 -3.77804 0
M  V30 16246 H 1607.15 -0.798891 -7.6866 0
M  V30 16247 H 1605.49 -0.711551 -6.91348 0
M  V30 16248 H 1608.68 -0.189815 -4.67715 0
M  V30 16249 H 1608.85 -0.515012 -6.4595 0
M  V30 16250 N 1602.26 1.57322 0.0935319 0
M  V30 16251 C 1603.17 2.05499 1.13169 0
M  V30 16252 C 1604.19 0.980199 1.43764 0
M  V30 16253 O 1605.36 1.29347 1.54374 0
M  V30 16254 C 1602.43 2.47111 2.43181 0
M  V30 16255 C 1601.49 3.68791 2.19754 0
M  V30 16256 C 1600.72 4.08408 3.43567 0
M  V30 16257 O 1600.94 3.48104 4.51863 0
M  V30 16258 O 1599.88 5.01351 3.33062 0
M  V30 16259 H 1603.7 2.9423 0.752491 0
M  V30 16260 H 1601.29 1.4623 0.306151 0
M  V30 16261 H 1603.17 2.74495 3.19735 0
M  V30 16262 H 1601.85 1.61518 2.80524 0
M  V30 16263 H 1600.75 3.46521 1.40976 0
M  V30 16264 H 1602.09 4.55169 1.87303 0
M  V30 16265 N 1603.74 -0.364395 1.53329 0
M  V30 16266 C 1604.69 -1.4466 1.76232 0
M  V30 16267 C 1605.67 -1.48605 0.616884 0
M  V30 16268 O 1606.86 -1.53826 0.875589 0
M  V30 16269 C 1603.99 -2.82078 1.95671 0
M  V30 16270 C 1603.08 -2.82606 3.16219 0
M  V30 16271 N 1603.47 -2.52781 4.38105 0
M  V30 16272 C 1601.77 -3.13766 3.16965 0
M  V30 16273 C 1602.47 -2.61017 5.19851 0
M  V30 16274 N 1601.45 -2.95777 4.56088 0
M  V30 16275 H 1605.25 -1.20465 2.68077 0
M  V30 16276 H 1602.76 -0.572589 1.51971 0
M  V30 16277 H 1604.76 -3.60026 2.10206 0
M  V30 16278 H 1603.42 -3.07236 1.05054 0
M  V30 16279 H 1604.43 -2.26353 4.65816 0
M  V30 16280 H 1601.11 -3.44231 2.36245 0
M  V30 16281 H 1602.5 -2.41294 6.27078 0
M  V30 16282 N 1605.22 -1.44709 -0.62426 0
M  V30 16283 C 1606.18 -1.51738 -1.7178 0
M  V30 16284 C 1607.18 -0.398646 -1.5578 0
M  V30 16285 O 1608.37 -0.661525 -1.61151 0
M  V30 16286 C 1605.5 -1.39792 -3.1092 0
M  V30 16287 H 1606.69 -2.49154 -1.6692 0
M  V30 16288 H 1604.25 -1.31903 -0.838531 0
M  V30 16289 H 1604.98 -0.434955 -3.2137 0
M  V30 16290 H 1604.77 -2.20919 -3.2394 0
M  V30 16291 H 1606.26 -1.47706 -3.90606 0
M  V30 16292 N 1606.69 0.865285 -1.31722 0
M  V30 16293 C 1607.6 2.00542 -1.21738 0
M  V30 16294 C 1608.62 1.7349 -0.133124 0
M  V30 16295 O 1609.8 1.98303 -0.351809 0
M  V30 16296 C 1606.86 3.33993 -0.930045 0
M  V30 16297 C 1605.92 3.74337 -2.10167 0
M  V30 16298 C 1605.16 5.0142 -1.82795 0
M  V30 16299 O 1605.38 5.65242 -0.765345 0
M  V30 16300 O 1604.31 5.38642 -2.68604 0
M  V30 16301 H 1608.14 2.11898 -2.17561 0
M  V30 16302 H 1605.72 0.994313 -1.11507 0
M  V30 16303 H 1607.61 4.14008 -0.785846 0
M  V30 16304 H 1606.28 3.237 -0.00188642 0
M  V30 16305 H 1605.19 2.94943 -2.3013 0
M  V30 16306 H 1606.52 3.89261 -3.01225 0
M  V30 16307 N 1608.17 1.14759 1.0802 0
M  V30 16308 C 1609.14 0.840859 2.13219 0
M  V30 16309 C 1610.14 -0.156309 1.60038 0
M  V30 16310 O 1611.33 0.0725143 1.74049 0
M  V30 16311 C 1608.46 0.254208 3.39951 0
M  V30 16312 H 1609.65 1.77323 2.4186 0
M  V30 16313 H 1607.2 0.954146 1.23797 0
M  V30 16314 H 1607.94 -0.686692 3.16946 0
M  V30 16315 H 1607.72 0.972499 3.79848 0
M  V30 16316 H 1609.21 0.0569551 4.17561 0
M  V30 16317 N 1609.65 -1.26251 0.943322 0
M  V30 16318 C 1610.58 -2.28673 0.472347 0
M  V30 16319 C 1611.56 -1.63319 -0.475481 0
M  V30 16320 O 1612.75 -1.90508 -0.376875 0
M  V30 16321 C 1609.88 -3.46316 -0.261286 0
M  V30 16322 C 1608.83 -4.23771 0.600192 0
M  V30 16323 C 1608.16 -5.3405 -0.263525 0
M  V30 16324 C 1609.46 -4.87576 1.87262 0
M  V30 16325 H 1611.15 -2.68319 1.32836 0
M  V30 16326 H 1608.7 -1.28987 0.640182 0
M  V30 16327 H 1610.65 -4.1708 -0.601821 0
M  V30 16328 H 1609.37 -3.05629 -1.15146 0
M  V30 16329 H 1608.03 -3.54774 0.923651 0
M  V30 16330 H 1607.68 -4.89604 -1.15312 0
M  V30 16331 H 1607.38 -5.86784 0.309495 0
M  V30 16332 H 1608.9 -6.07652 -0.599281 0
M  V30 16333 H 1610.32 -5.50544 1.59919 0
M  V30 16334 H 1608.72 -5.50437 2.39038 0
M  V30 16335 H 1609.79 -4.10397 2.58268 0
M  V30 16336 N 1611.13 -0.710588 -1.40671 0
M  V30 16337 C 1612.06 -0.0694601 -2.33397 0
M  V30 16338 C 1613.04 0.750959 -1.52626 0
M  V30 16339 O 1614.23 0.700896 -1.81111 0
M  V30 16340 C 1611.36 0.856704 -3.36568 0
M  V30 16341 C 1610.31 0.142276 -4.27763 0
M  V30 16342 C 1609.64 1.18382 -5.21431 0
M  V30 16343 C 1610.94 -1.00052 -5.12627 0
M  V30 16344 H 1612.63 -0.843945 -2.87259 0
M  V30 16345 H 1610.18 -0.407287 -1.3812 0
M  V30 16346 H 1612.13 1.31457 -4.00371 0
M  V30 16347 H 1610.85 1.66303 -2.81089 0
M  V30 16348 H 1609.51 -0.295714 -3.65405 0
M  V30 16349 H 1609.16 1.98306 -4.62259 0
M  V30 16350 H 1608.86 0.71071 -5.83286 0
M  V30 16351 H 1610.38 1.64189 -5.88111 0
M  V30 16352 H 1611.8 -0.622246 -5.69913 0
M  V30 16353 H 1610.19 -1.40168 -5.83501 0
M  V30 16354 H 1611.26 -1.83345 -4.48902 0
M  V30 16355 N 1612.61 1.50847 -0.456408 0
M  V30 16356 C 1613.54 2.31077 0.335523 0
M  V30 16357 C 1614.52 1.37326 1.00377 0
M  V30 16358 O 1615.7 1.66247 1.00376 0
M  V30 16359 C 1612.83 3.16662 1.42627 0
M  V30 16360 C 1611.79 4.18846 0.88045 0
M  V30 16361 C 1611.11 4.93074 2.06838 0
M  V30 16362 C 1612.41 5.22208 -0.0982288 0
M  V30 16363 H 1614.11 2.97531 -0.334056 0
M  V30 16364 H 1611.65 1.43085 -0.162099 0
M  V30 16365 H 1613.61 3.71578 1.98765 0
M  V30 16366 H 1612.33 2.48066 2.12441 0
M  V30 16367 H 1610.99 3.65009 0.341147 0
M  V30 16368 H 1610.64 4.20963 2.75316 0
M  V30 16369 H 1610.34 5.62184 1.70947 0
M  V30 16370 H 1611.86 5.5082 2.63494 0
M  V30 16371 H 1613.28 5.72082 0.373481 0
M  V30 16372 H 1611.67 5.98954 -0.370674 0
M  V30 16373 H 1612.74 4.73859 -1.02887 0
M  V30 16374 N 1614.09 0.188454 1.56469 0
M  V30 16375 C 1615.05 -0.721282 2.17555 0
M  V30 16376 C 1616.05 -1.14579 1.1282 0
M  V30 16377 O 1617.24 -1.05996 1.38241 0
M  V30 16378 C 1614.37 -1.9839 2.77226 0
M  V30 16379 H 1615.56 -0.189218 2.99302 0
M  V30 16380 H 1613.12 -0.0611533 1.5618 0
M  V30 16381 H 1613.85 -2.55864 1.99259 0
M  V30 16382 H 1613.64 -1.68831 3.53891 0
M  V30 16383 H 1615.13 -2.63277 3.24153 0
M  V30 16384 N 1615.56 -1.5737 -0.0851874 0
M  V30 16385 C 1616.79 -1.91183 -0.803983 0
M  V30 16386 C 1617.21 -0.78365 -1.70999 0
M  V30 16387 O 1616.57 0.264266 -1.79364 0
M  V30 16388 C 1616.62 -3.239 -1.58496 0
M  V30 16389 O 1615.72 -3.12189 -2.69466 0
M  V30 16390 H 1615.06 -0.626413 -0.220233 0
M  V30 16391 H 1617.59 -2.04519 -0.0574426 0
M  V30 16392 H 1617.6 -3.5745 -1.96707 0
M  V30 16393 H 1616.28 -4.05594 -0.920111 0
M  V30 16394 H 1614.86 -2.90173 -2.3421 0
M  V30 16395 N 1617.04 0.356258 -1.53521 0
M  V30 16396 C 1618.28 1.10649 -1.71861 0
M  V30 16397 C 1618.65 1.86277 -0.465286 0
M  V30 16398 O 1619.85 2.63613 -0.52552 0
M  V30 16399 C 1618.12 2.03282 -2.93958 0
M  V30 16400 S 1619.68 2.85699 -3.33048 0
M  V30 16401 H 1616.49 0.374066 -0.604645 0
M  V30 16402 H 1619.1 0.386526 -1.91641 0
M  V30 16403 H 1617.8 1.46501 -3.83361 0
M  V30 16404 H 1617.33 2.79736 -2.76607 0
M  V30 16405 H 1619.35 4.05634 -2.85789 0
M  V30 16406 N 1618.52 1.45038 0.616577 0
M  V30 16407 C 1619.75 1.51874 1.40064 0
M  V30 16408 C 1620.16 0.147105 1.88627 0
M  V30 16409 O 1619.5 -0.85995 1.62329 0
M  V30 16410 C 1619.56 2.43421 2.64549 0
M  V30 16411 C 1619.23 3.90326 2.37685 0
M  V30 16412 C 1620.22 4.80471 1.98605 0
M  V30 16413 C 1617.91 4.35163 2.50875 0
M  V30 16414 C 1619.9 6.13456 1.73064 0
M  V30 16415 C 1617.59 5.68192 2.24947 0
M  V30 16416 C 1618.59 6.57157 1.86102 0
M  V30 16417 O 1618.28 7.87721 1.60472 0
M  V30 16418 H 1618.01 0.517048 0.435474 0
M  V30 16419 H 1620.56 1.90826 0.759899 0
M  V30 16420 H 1618.79 1.99423 3.31312 0
M  V30 16421 H 1620.48 2.41042 3.26579 0
M  V30 16422 H 1621.25 4.47098 1.87959 0
M  V30 16423 H 1617.13 3.66165 2.80078 0
M  V30 16424 H 1620.67 6.82855 1.42669 0
M  V30 16425 H 1616.57 6.01122 2.35207 0
M  V30 16426 H 1617.33 7.99661 1.74598 0
M  V30 16427 N 1620 -0.858287 1.32179 0
M  V30 16428 C 1620.93 -1.98219 1.23415 0
M  V30 16429 C 1621.91 -1.69685 0.118779 0
M  V30 16430 O 1623.09 -1.91785 0.305342 0
M  V30 16431 C 1620.22 -3.33977 0.952725 0
M  V30 16432 C 1619.18 -3.76853 2.02894 0
M  V30 16433 C 1618.5 -5.10201 1.59999 0
M  V30 16434 C 1619.8 -3.92707 3.44352 0
M  V30 16435 H 1621.5 -2.05809 2.17446 0
M  V30 16436 H 1619.04 -0.988817 1.04682 0
M  V30 16437 H 1621 -4.12152 0.87798 0
M  V30 16438 H 1619.72 -3.26592 -0.023234 0
M  V30 16439 H 1618.38 -3.00926 2.09378 0
M  V30 16440 H 1618.03 -4.99268 0.61157 0
M  V30 16441 H 1617.73 -5.39859 2.32004 0
M  V30 16442 H 1619.25 -5.90873 1.53954 0
M  V30 16443 H 1620.67 -4.61246 3.40477 0
M  V30 16444 H 1619.06 -4.33779 4.14675 0
M  V30 16445 H 1620.13 -2.95731 3.8428 0
M  V30 16446 N 1621.48 -1.1533 -1.07409 0
M  V30 16447 C 1622.89 -0.937287 -1.61468 0
M  V30 16448 C 1623.24 0.521545 -1.89141 0
M  V30 16449 O 1622.36 1.39253 -1.65643 0
M  V30 16450 C 1622.96 -1.69501 -2.93351 0
M  V30 16451 C 1621.52 -1.52429 -3.44154 0
M  V30 16452 C 1620.66 -1.71098 -2.18222 0
M  V30 16453 H 1623.61 -1.30364 -0.905044 0
M  V30 16454 H 1623.64 -1.16416 -3.62253 0
M  V30 16455 H 1623.15 -2.75672 -2.73178 0
M  V30 16456 H 1621.25 -0.486498 -3.6941 0
M  V30 16457 H 1621.36 -2.30089 -4.20233 0
M  V30 16458 H 1619.73 -1.13745 -2.27891 0
M  V30 16459 H 1620.51 -2.78634 -2.00545 0
M  V30 16460 N 1622.95 1.25748 -0.950004 0
M  V30 16461 C 1624.36 1.75253 -0.643694 0
M  V30 16462 C 1624.72 1.77261 0.841017 0
M  V30 16463 O 1623.84 1.39043 1.65819 0
M  V30 16464 C 1624.44 3.1826 -1.16173 0
M  V30 16465 C 1622.99 3.65342 -0.905672 0
M  V30 16466 C 1622.14 2.4454 -1.30749 0
M  V30 16467 H 1625.09 1.117 -1.12733 0
M  V30 16468 H 1625.11 3.76935 -0.519651 0
M  V30 16469 H 1624.63 3.16766 -2.24234 0
M  V30 16470 H 1622.73 3.72256 0.160174 0
M  V30 16471 H 1622.84 4.53713 -1.53888 0
M  V30 16472 H 1621.2 2.44138 -0.725876 0
M  V30 16473 H 1621.99 2.45741 -2.39721 0
M  V30 16474 N 1624.43 0.718038 1.40292 0
M  V30 16475 C 1625.68 0.258092 2.00445 0
M  V30 16476 C 1626 -1.15347 1.57226 0
M  V30 16477 O 1625.27 -1.78241 0.812822 0
M  V30 16478 H 1623.85 0.0924316 0.741259 0
M  V30 16479 H 1626.51 0.924216 1.71593 0
M  V30 16480 H 1625.61 0.293113 3.10721 0
M  V30 16481 N 1625.91 -1.50602 0.464402 0
M  V30 16482 C 1627.16 -2.02287 -0.0928919 0
M  V30 16483 C 1627.49 -1.34685 -1.40321 0
M  V30 16484 O 1626.74 -0.459304 -1.90234 0
M  V30 16485 C 1627.04 -3.55859 -0.331507 0
M  V30 16486 C 1626.71 -4.41902 0.896292 0
M  V30 16487 C 1625.37 -4.65137 1.23294 0
M  V30 16488 C 1627.72 -4.92208 1.71409 0
M  V30 16489 C 1625.05 -5.35922 2.38757 0
M  V30 16490 C 1627.4 -5.6426 2.85995 0
M  V30 16491 C 1626.06 -5.85751 3.20082 0
M  V30 16492 H 1625.33 -0.74022 -0.0339916 0
M  V30 16493 H 1627.98 -1.81284 0.61712 0
M  V30 16494 H 1626.29 -3.7534 -1.1237 0
M  V30 16495 H 1627.98 -3.93409 -0.776566 0
M  V30 16496 H 1624.57 -4.24033 0.624007 0
M  V30 16497 H 1628.76 -4.74117 1.46719 0
M  V30 16498 H 1624.01 -5.50769 2.65449 0
M  V30 16499 H 1628.19 -6.02223 3.49714 0
M  V30 16500 H 1625.81 -6.40377 4.09659 0
M  V30 16501 N 1627.39 -0.19675 -1.56367 0
M  V30 16502 C 1628.32 0.718607 -2.22167 0
M  V30 16503 C 1629.3 1.22002 -1.1853 0
M  V30 16504 O 1630.48 1.26856 -1.47042 0
M  V30 16505 C 1627.61 1.93753 -2.88231 0
M  V30 16506 C 1626.57 1.57096 -3.98127 0
M  V30 16507 C 1625.89 2.86663 -4.51363 0
M  V30 16508 C 1627.19 0.779649 -5.16448 0
M  V30 16509 H 1628.89 0.170064 -2.98917 0
M  V30 16510 H 1626.43 0.0803568 -1.43776 0
M  V30 16511 H 1628.39 2.58312 -3.32946 0
M  V30 16512 H 1627.11 2.51063 -2.0889 0
M  V30 16513 H 1625.77 0.948947 -3.54105 0
M  V30 16514 H 1625.42 3.42066 -3.68782 0
M  V30 16515 H 1625.12 2.6288 -5.25517 0
M  V30 16516 H 1626.64 3.52207 -4.98781 0
M  V30 16517 H 1628.06 1.32838 -5.57698 0
M  V30 16518 H 1626.45 0.639882 -5.96679 0
M  V30 16519 H 1627.52 -0.218944 -4.84405 0
M  V30 16520 N 1628.87 1.57413 0.0768405 0
M  V30 16521 C 1630.09 1.91607 0.793833 0
M  V30 16522 C 1630.52 0.792708 1.70581 0
M  V30 16523 O 1629.87 -0.25475 1.79501 0
M  V30 16524 C 1629.92 3.24736 1.56776 0
M  V30 16525 O 1629.03 3.13613 2.67807 0
M  V30 16526 H 1628.37 0.627572 0.216908 0
M  V30 16527 H 1630.9 2.04547 0.0465957 0
M  V30 16528 H 1630.91 3.58488 1.94809 0
M  V30 16529 H 1629.58 4.06077 0.898588 0
M  V30 16530 H 1628.16 2.91411 2.32668 0
M  V30 16531 N 1630.34 -0.348112 1.53707 0
M  V30 16532 C 1631.31 -1.41018 1.80683 0
M  V30 16533 C 1632.31 -1.4582 0.67774 0
M  V30 16534 O 1633.5 -1.46275 0.94601 0
M  V30 16535 C 1630.63 -2.79988 1.94473 0
M  V30 16536 H 1631.82 -1.18365 2.75554 0
M  V30 16537 H 1629.38 -0.582244 1.4505 0
M  V30 16538 H 1630.11 -3.07931 1.0173 0
M  V30 16539 H 1629.9 -2.77899 2.76612 0
M  V30 16540 H 1631.39 -3.56868 2.16876 0
M  V30 16541 N 1631.82 -1.45363 -0.608876 0
M  V30 16542 C 1633.23 -1.43794 -1.19081 0
M  V30 16543 C 1633.58 -0.164874 -1.95506 0
M  V30 16544 O 1632.71 0.733623 -2.03585 0
M  V30 16545 C 1633.3 -2.60506 -2.16615 0
M  V30 16546 C 1631.86 -2.62061 -2.70187 0
M  V30 16547 C 1631.01 -2.36018 -1.4557 0
M  V30 16548 H 1633.96 -1.53622 -0.39826 0
M  V30 16549 H 1633.98 -2.34531 -2.99625 0
M  V30 16550 H 1633.49 -3.53147 -1.60963 0
M  V30 16551 H 1631.6 -1.73423 -3.2978 0
M  V30 16552 H 1631.71 -3.61242 -3.14708 0
M  V30 16553 H 1630.07 -1.8555 -1.74481 0
M  V30 16554 H 1630.86 -3.30802 -0.917884 0
M  V30 16555 N 1633.3 0.851265 -1.32632 0
M  V30 16556 C 1634.55 1.60252 -1.23141 0
M  V30 16557 C 1634.87 1.93909 0.205946 0
M  V30 16558 O 1634.14 1.59914 1.13156 0
M  V30 16559 H 1632.72 0.594137 -0.452781 0
M  V30 16560 H 1635.38 1.01806 -1.66197 0
M  V30 16561 H 1634.48 2.53796 -1.81643 0
M  V30 16562 N 1634.78 1.15898 1.06796 0
M  V30 16563 C 1635.71 0.818654 2.14081 0
M  V30 16564 C 1636.72 -0.171847 1.6189 0
M  V30 16565 O 1637.91 0.052196 1.78424 0
M  V30 16566 C 1635.01 0.197283 3.38325 0
M  V30 16567 C 1634.19 1.22662 4.19849 0
M  V30 16568 C 1633.24 0.625985 5.22463 0
M  V30 16569 O 1632.27 1.29347 5.54309 0
M  V30 16570 N 1633.47 -0.589665 5.77497 0
M  V30 16571 H 1636.24 1.74196 2.43877 0
M  V30 16572 H 1633.8 1.05562 1.22753 0
M  V30 16573 H 1635.79 -0.217439 4.04115 0
M  V30 16574 H 1634.36 -0.629476 3.06197 0
M  V30 16575 H 1633.58 1.8177 3.49791 0
M  V30 16576 H 1634.87 1.92143 4.71125 0
M  V30 16577 H 1634.27 -1.15022 5.53883 0
M  V30 16578 H 1632.82 -0.946667 6.44889 0
M  V30 16579 N 1636.26 -1.25243 0.956659 0
M  V30 16580 C 1637.67 -1.4525 0.661409 0
M  V30 16581 C 1637.87 -1.85774 -0.780404 0
M  V30 16582 O 1636.93 -1.98899 -1.55549 0
M  V30 16583 C 1638.24 -2.52296 1.63607 0
M  V30 16584 C 1639.79 -2.66134 1.64748 0
M  V30 16585 C 1640.26 -3.76366 2.60983 0
M  V30 16586 N 1641.76 -3.8378 2.5936 0
M  V30 16587 C 1642.49 -4.68569 3.30501 0
M  V30 16588 N 1641.99 -5.5763 4.11122 0
M  V30 16589 N 1643.78 -4.62551 3.19378 0
M  V30 16590 H 1635.93 -0.972321 1.88838 0
M  V30 16591 H 1638.19 -0.488615 0.812379 0
M  V30 16592 H 1637.9 -2.29382 2.66603 0
M  V30 16593 H 1637.77 -3.5025 1.40017 0
M  V30 16594 H 1640.16 -2.88412 0.624692 0
M  V30 16595 H 1640.24 -1.68573 1.92397 0
M  V30 16596 H 1639.89 -3.54839 3.63389 0
M  V30 16597 H 1639.82 -4.73417 2.30617 0
M  V30 16598 H 1642.31 -3.20117 2.00832 0
M  V30 16599 H 1642.62 -6.19258 4.62319 0
M  V30 16600 H 1640.96 -5.57331 4.15219 0
M  V30 16601 H 1644.16 -3.91983 2.55865 0
M  V30 16602 H 1644.33 -5.28407 3.75086 0
M  V30 16603 N 1637.73 -0.725468 -1.3991 0
M  V30 16604 C 1638.98 -0.26965 -2.00999 0
M  V30 16605 C 1639.31 1.13727 -1.57416 0
M  V30 16606 O 1638.59 1.77345 -0.798693 0
M  V30 16607 C 1638.87 -0.360784 -3.58288 0
M  V30 16608 C 1638.72 -1.80679 -4.11916 0
M  V30 16609 C 1640.04 0.262328 -4.39317 0
M  V30 16610 H 1637.16 -0.0994547 -0.730259 0
M  V30 16611 H 1639.8 -0.91983 -1.6625 0
M  V30 16612 H 1637.95 0.192779 -3.88021 0
M  V30 16613 H 1639.63 -2.4165 -3.92942 0
M  V30 16614 H 1637.87 -2.33127 -3.65834 0
M  V30 16615 H 1638.54 -1.82189 -5.21068 0
M  V30 16616 H 1641.02 -0.209452 -4.15573 0
M  V30 16617 H 1639.89 0.168166 -5.48642 0
M  V30 16618 H 1640.15 1.34716 -4.21075 0
M  V30 16619 N 1639.21 1.50354 -0.472382 0
M  V30 16620 C 1640.46 2.01934 0.0820006 0
M  V30 16621 C 1640.78 1.35636 1.401 0
M  V30 16622 O 1640.05 0.502127 1.89355 0
M  V30 16623 H 1638.63 0.746258 0.0332943 0
M  V30 16624 H 1641.29 1.84671 -0.623099 0
M  V30 16625 H 1640.39 3.11232 0.232565 0
M  V30 16626 N 1640.69 0.205039 1.56261 0
M  V30 16627 C 1641.62 -0.751391 2.15475 0
M  V30 16628 C 1642.6 -1.20265 1.09431 0
M  V30 16629 O 1643.79 -1.28837 1.37598 0
M  V30 16630 C 1640.91 -2.01598 2.72169 0
M  V30 16631 C 1639.96 -1.70605 3.90892 0
M  V30 16632 S 1640.79 -0.845372 5.28785 0
M  V30 16633 C 1641.95 -2.11989 5.88907 0
M  V30 16634 H 1642.18 -0.248043 2.96263 0
M  V30 16635 H 1639.71 -0.0100808 1.54397 0
M  V30 16636 H 1641.67 -2.74217 3.05475 0
M  V30 16637 H 1640.33 -2.49045 1.91403 0
M  V30 16638 H 1639.53 -2.6452 4.29005 0
M  V30 16639 H 1639.13 -1.0606 3.58646 0
M  V30 16640 H 1641.42 -3.0715 6.03875 0
M  V30 16641 H 1642.36 -1.78292 6.85286 0
M  V30 16642 H 1642.77 -2.25289 5.17596 0
M  V30 16643 N 1642.17 -1.57451 -0.0684915 0
M  V30 16644 C 1643.1 -2.06954 -1.0813 0
M  V30 16645 C 1644.08 -0.963716 -1.40166 0
M  V30 16646 O 1645.27 -1.23664 -1.49736 0
M  V30 16647 C 1642.4 -2.51622 -2.39381 0
M  V30 16648 C 1641.35 -3.66111 -2.2169 0
M  V30 16649 C 1640.68 -3.96846 -3.58354 0
M  V30 16650 C 1641.98 -4.96036 -1.63541 0
M  V30 16651 H 1643.67 -2.91822 -0.66936 0
M  V30 16652 H 1641.22 -1.40387 -0.320533 0
M  V30 16653 H 1643.17 -2.84867 -3.1053 0
M  V30 16654 H 1641.89 -1.63788 -2.82562 0
M  V30 16655 H 1640.55 -3.33155 -1.52982 0
M  V30 16656 H 1640.2 -3.06137 -3.9911 0
M  V30 16657 H 1639.9 -4.73939 -3.47354 0
M  V30 16658 H 1641.42 -4.3259 -4.30927 0
M  V30 16659 H 1642.84 -5.27491 -2.24559 0
M  V30 16660 H 1641.23 -5.77474 -1.63228 0
M  V30 16661 H 1642.3 -4.81208 -0.597199 0
M  V30 16662 N 1643.65 0.339955 -1.5389 0
M  V30 16663 C 1644.61 1.40058 -1.81429 0
M  V30 16664 C 1645.61 1.45458 -0.685463 0
M  V30 16665 O 1646.8 1.45771 -0.953754 0
M  V30 16666 C 1643.93 2.78952 -1.95955 0
M  V30 16667 H 1645.13 1.16902 -2.76178 0
M  V30 16668 H 1642.68 0.574543 -1.45357 0
M  V30 16669 H 1643.41 3.07387 -1.03361 0
M  V30 16670 H 1643.2 2.76429 -2.78082 0
M  V30 16671 H 1644.69 3.55713 -2.18765 0
M  V30 16672 N 1645.13 1.45684 0.601159 0
M  V30 16673 C 1646.04 1.57396 1.73965 0
M  V30 16674 C 1647.05 0.458133 1.6786 0
M  V30 16675 O 1648.23 0.719717 1.88101 0
M  V30 16676 C 1645.29 1.54363 3.1044 0
M  V30 16677 C 1644.35 2.77034 3.27949 0
M  V30 16678 C 1643.59 2.74136 4.57914 0
M  V30 16679 O 1643.81 1.81829 5.40643 0
M  V30 16680 O 1642.74 3.65428 4.78274 0
M  V30 16681 H 1646.57 2.5364 1.67034 0
M  V30 16682 H 1644.15 1.28267 0.766017 0
M  V30 16683 H 1646.04 1.55302 3.91739 0
M  V30 16684 H 1644.71 0.612723 3.17848 0
M  V30 16685 H 1643.62 2.81655 2.46214 0
M  V30 16686 H 1644.95 3.69272 3.25422 0
M  V30 16687 N 1646.6 -0.84422 1.33082 0
M  V30 16688 C 1647.57 -1.93519 1.22813 0
M  V30 16689 C 1648.57 -1.60113 0.148516 0
M  V30 16690 O 1649.76 -1.69553 0.399668 0
M  V30 16691 C 1646.89 -3.29045 0.891179 0
M  V30 16692 H 1648.08 -2.04051 2.1978 0
M  V30 16693 H 1645.63 -1.03567 1.17063 0
M  V30 16694 H 1646.37 -3.2421 -0.0762276 0
M  V30 16695 H 1646.15 -3.54671 1.67186 0
M  V30 16696 H 1647.64 -4.08984 0.843932 0
M  V30 16697 N 1648.08 -1.16463 -1.0618 0
M  V30 16698 C 1649.04 -0.874674 -2.11854 0
M  V30 16699 C 1650.04 0.130829 -1.60267 0
M  V30 16700 O 1651.23 -0.100195 -1.73912 0
M  V30 16701 C 1648.37 -0.30826 -3.39503 0
M  V30 16702 H 1649.56 -1.81149 -2.39009 0
M  V30 16703 H 1647.11 -0.973721 -1.22264 0
M  V30 16704 H 1647.85 0.636181 -3.17999 0
M  V30 16705 H 1647.63 -1.03281 -3.78253 0
M  V30 16706 H 1649.12 -0.123378 -4.17418 0
M  V30 16707 N 1649.56 1.24734 -0.963288 0
M  V30 16708 C 1650.98 1.44897 -0.669103 0
M  V30 16709 C 1651.18 1.86185 0.770541 0
M  V30 16710 O 1650.23 1.99721 1.54492 0
M  V30 16711 C 1651.54 2.51425 -1.64943 0
M  V30 16712 C 1653.09 2.65256 -1.66157 0
M  V30 16713 C 1653.57 3.74977 -2.62976 0
M  V30 16714 N 1655.06 3.82399 -2.61391 0
M  V30 16715 C 1655.79 4.66809 -3.32981 0
M  V30 16716 N 1655.29 5.55441 -4.14073 0
M  V30 16717 N 1657.08 4.60851 -3.21827 0
M  V30 16718 H 1649.23 0.962292 -1.89351 0
M  V30 16719 H 1651.5 0.4843 -0.814958 0
M  V30 16720 H 1651.2 2.27965 -2.67815 0
M  V30 16721 H 1651.08 3.49503 -1.41872 0
M  V30 16722 H 1653.46 2.88077 -0.639978 0
M  V30 16723 H 1653.54 1.67551 -1.93288 0
M  V30 16724 H 1653.19 3.52907 -3.65266 0
M  V30 16725 H 1653.12 4.72187 -2.33125 0
M  V30 16726 H 1655.61 3.19048 -2.02527 0
M  V30 16727 H 1655.92 6.16798 -4.65597 0
M  V30 16728 H 1654.27 5.55121 -4.18169 0
M  V30 16729 H 1657.46 3.90621 -2.5794 0
M  V30 16730 H 1657.63 5.26411 -3.77883 0
M  V30 16731 N 1651.04 0.732878 1.39523 0
M  V30 16732 C 1652.27 0.29007 2.04857 0
M  V30 16733 C 1652.68 -1.07435 1.55252 0
M  V30 16734 O 1652.04 -1.67847 0.716497 0
M  V30 16735 C 1652.09 0.280464 3.6041 0
M  V30 16736 O 1651.81 1.59102 4.08189 0
M  V30 16737 C 1653.31 -0.178772 4.42939 0
M  V30 16738 H 1650.53 0.12716 0.658841 0
M  V30 16739 H 1653.07 0.995933 1.7861 0
M  V30 16740 H 1651.23 -0.376494 3.85566 0
M  V30 16741 H 1651.64 1.50314 5.025 0
M  V30 16742 H 1653.12 -0.134335 5.51837 0
M  V30 16743 H 1653.59 -1.22362 4.21811 0
M  V30 16744 H 1654.2 0.448543 4.22928 0
M  V30 16745 N 1652.52 -1.50101 0.480349 0
M  V30 16746 C 1653.45 -2.31581 -0.298718 0
M  V30 16747 C 1654.43 -1.38905 -0.981798 0
M  V30 16748 O 1655.61 -1.67823 -0.977188 0
M  V30 16749 C 1652.74 -3.18891 -1.37571 0
M  V30 16750 C 1651.7 -4.20194 -0.813704 0
M  V30 16751 C 1651.02 -4.96302 -1.98968 0
M  V30 16752 C 1652.32 -5.21985 0.181295 0
M  V30 16753 H 1654.02 -2.96961 0.381349 0
M  V30 16754 H 1651.56 -1.42809 0.184842 0
M  V30 16755 H 1653.51 -3.74694 -1.92828 0
M  V30 16756 H 1652.24 -2.51414 -2.08467 0
M  V30 16757 H 1650.9 -3.65506 -0.283034 0
M  V30 16758 H 1650.55 -4.2529 -2.68584 0
M  V30 16759 H 1650.25 -5.64833 -1.61981 0
M  V30 16760 H 1651.77 -5.54943 -2.54698 0
M  V30 16761 H 1653.18 -5.72604 -0.28242 0
M  V30 16762 H 1651.58 -5.98289 0.465916 0
M  V30 16763 H 1652.65 -4.72162 1.10413 0
M  V30 16764 N 1653.99 -0.213323 -1.5615 0
M  V30 16765 C 1654.9 0.711703 -2.23544 0
M  V30 16766 C 1655.92 1.22027 -1.24038 0
M  V30 16767 O 1657.1 1.26361 -1.56828 0
M  V30 16768 C 1654.16 1.90645 -2.89578 0
M  V30 16769 C 1653.22 1.44066 -4.04405 0
M  V30 16770 C 1652.45 2.57846 -4.6728 0
M  V30 16771 O 1652.68 3.75781 -4.29121 0
M  V30 16772 O 1651.61 2.29518 -5.56422 0
M  V30 16773 H 1655.44 0.167635 -3.03237 0
M  V30 16774 H 1653.02 0.016771 -1.49391 0
M  V30 16775 H 1654.9 2.60435 -3.31288 0
M  V30 16776 H 1653.58 2.43877 -2.12851 0
M  V30 16777 H 1652.49 0.711024 -3.67281 0
M  V30 16778 H 1653.82 0.954809 -4.8285 0
M  V30 16779 N 1655.47 1.57485 0.0601405 0
M  V30 16780 C 1656.42 2.04487 1.07023 0
M  V30 16781 C 1657.39 0.927738 1.37776 0
M  V30 16782 O 1658.57 1.19621 1.48645 0
M  V30 16783 C 1655.71 2.50338 2.37539 0
M  V30 16784 C 1654.83 3.75717 2.13215 0
M  V30 16785 C 1653.96 4.10304 3.37378 0
M  V30 16786 C 1653 5.2869 3.0847 0
M  V30 16787 N 1652.14 5.58858 4.24996 0
M  V30 16788 H 1656.98 2.90544 0.662444 0
M  V30 16789 H 1654.52 1.43676 0.315515 0
M  V30 16790 H 1656.47 2.74978 3.13756 0
M  V30 16791 H 1655.1 1.67242 2.76098 0
M  V30 16792 H 1654.16 3.58348 1.27636 0
M  V30 16793 H 1655.47 4.62068 1.87869 0
M  V30 16794 H 1654.62 4.35907 4.21983 0
M  V30 16795 H 1653.36 3.22544 3.6581 0
M  V30 16796 H 1652.37 5.02871 2.22262 0
M  V30 16797 H 1653.59 6.18077 2.81349 0
M  V30 16798 H 1651.54 4.74058 4.53437 0
M  V30 16799 H 1651.45 6.39652 4.02965 0
M  V30 16800 H 1652.72 5.89019 5.10565 0
M  V30 16801 N 1656.95 -0.331789 1.54068 0
M  V30 16802 C 1657.88 -1.41332 1.8587 0
M  V30 16803 C 1658.86 -1.54353 0.714787 0
M  V30 16804 O 1660.05 -1.68368 0.967777 0
M  V30 16805 C 1657.18 -2.78218 2.07875 0
M  V30 16806 C 1656.13 -2.79994 3.23709 0
M  V30 16807 C 1655.46 -4.19878 3.31069 0
M  V30 16808 C 1656.76 -2.44476 4.6155 0
M  V30 16809 H 1658.45 -1.14966 2.76447 0
M  V30 16810 H 1656 -0.551615 1.33016 0
M  V30 16811 H 1657.95 -3.53937 2.28706 0
M  V30 16812 H 1656.67 -3.06044 1.14038 0
M  V30 16813 H 1655.33 -2.0673 3.02751 0
M  V30 16814 H 1654.98 -4.44831 2.34807 0
M  V30 16815 H 1654.68 -4.21974 4.08915 0
M  V30 16816 H 1656.2 -4.97421 3.54125 0
M  V30 16817 H 1657.62 -3.09908 4.82317 0
M  V30 16818 H 1656.02 -2.57837 5.41886 0
M  V30 16819 H 1657.09 -1.3964 4.64358 0
M  V30 16820 N 1658.43 -1.46001 -0.593424 0
M  V30 16821 C 1659.68 -1.50457 -1.34933 0
M  V30 16822 C 1660 -0.153383 -1.94396 0
M  V30 16823 O 1659.27 0.818894 -1.77963 0
M  V30 16824 H 1657.85 -0.554119 -0.50096 0
M  V30 16825 H 1660.51 -1.82057 -0.695798 0
M  V30 16826 H 1659.61 -2.25131 -2.16154 0
M  V30 16827 N 1659.91 0.83715 -1.33527 0
M  V30 16828 C 1661.18 1.57727 -1.15678 0
M  V30 16829 C 1661.56 2.09286 0.276178 0
M  V30 16830 O 1660.91 1.89589 1.27547 0
M  V30 16831 C 1661.12 2.70978 -2.19936 0
M  V30 16832 C 1662.47 3.40114 -2.5418 0
M  V30 16833 O 1663.49 2.81221 -2.18616 0
M  V30 16834 O 1662.35 4.46431 -3.15217 0
M  V30 16835 H 1659.45 0.69545 -0.447525 0
M  V30 16836 H 1661.99 0.879756 -1.45115 0
M  V30 16837 H 1660.76 2.30532 -3.16181 0
M  V30 16838 H 1660.39 3.48393 -1.91594 0
M  V30 16839 N 1661.38 1.17024 1.05561 0
M  V30 16840 C 1662.8 0.916718 1.30646 0
M  V30 16841 C 1663 -0.426248 1.9694 0
M  V30 16842 O 1662.06 -1.16408 2.24065 0
M  V30 16843 C 1663.37 2.07126 2.17989 0
M  V30 16844 C 1664.92 2.10787 2.31383 0
M  V30 16845 C 1665.39 3.25616 3.22084 0
M  V30 16846 N 1666.88 3.25381 3.29669 0
M  V30 16847 C 1667.62 4.10873 3.99964 0
M  V30 16848 N 1667.11 5.06468 4.72718 0
M  V30 16849 N 1668.91 3.98835 3.9609 0
M  V30 16850 H 1661.06 2.03474 0.609284 0
M  V30 16851 H 1663.32 0.888247 0.331243 0
M  V30 16852 H 1663.03 3.04168 1.76564 0
M  V30 16853 H 1662.9 2.01912 3.18609 0
M  V30 16854 H 1665.29 1.14333 2.72051 0
M  V30 16855 H 1665.37 2.20064 1.30405 0
M  V30 16856 H 1665.01 4.22333 2.8213 0
M  V30 16857 H 1664.94 3.13575 4.23058 0
M  V30 16858 H 1667.43 2.56164 2.77828 0
M  V30 16859 H 1667.75 5.68105 5.23905 0
M  V30 16860 H 1666.09 5.10441 4.71673 0
M  V30 16861 H 1669.28 3.23451 3.38375 0
M  V30 16862 H 1669.46 4.65682 4.50604 0
M  V30 16863 N 1662.86 -1.24221 0.969889 0
M  V30 16864 C 1664.28 -1.4454 0.676778 0
M  V30 16865 C 1664.48 -1.86591 -0.760656 0
M  V30 16866 O 1663.53 -2.00538 -1.5343 0
M  V30 16867 C 1664.85 -2.50546 1.66274 0
M  V30 16868 C 1666.4 -2.64372 1.67561 0
M  V30 16869 C 1666.87 -3.73577 2.6496 0
M  V30 16870 N 1668.36 -3.81007 2.63416 0
M  V30 16871 C 1669.1 -4.65037 3.35452 0
M  V30 16872 N 1668.59 -5.53238 4.17013 0
M  V30 16873 N 1670.39 -4.59138 3.24266 0
M  V30 16874 H 1662.54 -0.952237 1.89858 0
M  V30 16875 H 1664.8 -0.479972 0.817515 0
M  V30 16876 H 1664.51 -2.26541 2.6902 0
M  V30 16877 H 1664.38 -3.48745 1.43724 0
M  V30 16878 H 1666.77 -2.87733 0.655247 0
M  V30 16879 H 1666.85 -1.66523 1.94174 0
M  V30 16880 H 1666.49 -3.50965 3.67132 0
M  V30 16881 H 1666.42 -4.70944 2.35626 0
M  V30 16882 H 1668.91 -3.17969 2.04216 0
M  V30 16883 H 1669.23 -6.1432 4.68861 0
M  V30 16884 H 1667.57 -5.52896 4.21107 0
M  V30 16885 H 1670.76 -3.89247 2.60008 0
M  V30 16886 H 1670.93 -5.24399 3.8067 0
M  V30 16887 N 1664.34 -0.740267 -1.39132 0
M  V30 16888 C 1665.27 -0.118951 -2.33197 0
M  V30 16889 C 1666.25 0.718416 -1.54184 0
M  V30 16890 O 1667.44 0.662322 -1.82557 0
M  V30 16891 C 1664.57 0.78512 -3.38309 0
M  V30 16892 C 1663.52 0.0515093 -4.27969 0
M  V30 16893 C 1662.85 1.07295 -5.23824 0
M  V30 16894 C 1664.15 -1.10903 -5.1039 0
M  V30 16895 H 1665.84 -0.904687 -2.85405 0
M  V30 16896 H 1663.39 -0.436493 -1.37225 0
M  V30 16897 H 1665.34 1.22935 -4.03069 0
M  V30 16898 H 1664.06 1.60303 -2.84553 0
M  V30 16899 H 1662.72 -0.373156 -3.64696 0
M  V30 16900 H 1662.37 1.88456 -4.66362 0
M  V30 16901 H 1662.07 0.586827 -5.84662 0
M  V30 16902 H 1663.59 1.51677 -5.91461 0
M  V30 16903 H 1665.01 -0.742993 -5.68465 0
M  V30 16904 H 1663.41 -1.52513 -5.80396 0
M  V30 16905 H 1664.48 -1.92825 -4.44912 0
M  V30 16906 N 1665.82 1.49844 -0.488302 0
M  V30 16907 C 1666.75 2.31737 0.286432 0
M  V30 16908 C 1667.73 1.39424 0.974418 0
M  V30 16909 O 1668.91 1.68339 0.968274 0
M  V30 16910 C 1666.04 3.19616 1.35878 0
M  V30 16911 C 1665 4.20619 0.791409 0
M  V30 16912 C 1664.32 4.9735 1.96333 0
M  V30 16913 C 1665.62 5.21882 -0.208975 0
M  V30 16914 H 1667.32 2.96755 -0.397092 0
M  V30 16915 H 1664.86 1.42709 -0.192413 0
M  V30 16916 H 1666.82 3.75711 1.90838 0
M  V30 16917 H 1665.54 2.52516 2.07131 0
M  V30 16918 H 1664.2 3.65651 0.263647 0
M  V30 16919 H 1663.85 4.26708 2.66325 0
M  V30 16920 H 1663.55 5.65684 1.58983 0
M  V30 16921 H 1665.07 5.56286 2.51751 0
M  V30 16922 H 1666.49 5.72746 0.252049 0
M  V30 16923 H 1664.88 5.98033 -0.497638 0
M  V30 16924 H 1665.95 4.7157 -1.12916 0
M  V30 16925 N 1667.3 0.221601 1.56034 0
M  V30 16926 C 1668.25 -0.701876 2.16928 0
M  V30 16927 C 1669.23 -1.1575 1.11762 0
M  V30 16928 O 1670.42 -1.11148 1.3775 0
M  V30 16929 C 1667.55 -1.90977 2.85277 0
M  V30 16930 C 1666.64 -1.47382 3.97667 0
M  V30 16931 N 1667.03 -0.750469 5.00202 0
M  V30 16932 C 1665.33 -1.7611 4.09757 0
M  V30 16933 C 1666.03 -0.528168 5.79297 0
M  V30 16934 N 1665 -1.08488 5.32664 0
M  V30 16935 H 1668.81 -0.14079 2.93563 0
M  V30 16936 H 1666.32 0.0228611 1.62384 0
M  V30 16937 H 1668.32 -2.5821 3.27312 0
M  V30 16938 H 1666.98 -2.47532 2.10138 0
M  V30 16939 H 1667.99 -0.403152 5.16328 0
M  V30 16940 H 1664.66 -2.33986 3.4577 0
M  V30 16941 H 1666.05 0.0475532 6.71883 0
M  V30 16942 N 1668.77 -1.57515 -0.0517878 0
M  V30 16943 C 1670.05 -1.79321 -0.781233 0
M  V30 16944 C 1670.43 -0.814142 -1.94769 0
M  V30 16945 O 1669.78 0.14858 -2.28016 0
M  V30 16946 C 1669.99 -3.26398 -1.23553 0
M  V30 16947 C 1671.34 -3.90773 -1.66077 0
M  V30 16948 O 1672.36 -3.3041 -1.33069 0
M  V30 16949 O 1671.22 -4.97008 -2.27257 0
M  V30 16950 H 1668.31 -0.736627 -0.375912 0
M  V30 16951 H 1670.86 -1.69673 -0.0303173 0
M  V30 16952 H 1669.63 -3.89232 -0.401806 0
M  V30 16953 H 1669.26 -3.40848 -2.04716 0
M  V30 16954 N 1670.25 0.323614 -1.54242 0
M  V30 16955 C 1671.49 1.06978 -1.74169 0
M  V30 16956 C 1671.86 1.85248 -0.504693 0
M  V30 16957 O 1673.06 2.62439 -0.581318 0
M  V30 16958 C 1671.33 1.97001 -2.98203 0
M  V30 16959 S 1672.89 2.78571 -3.39034 0
M  V30 16960 H 1669.71 0.361157 -0.612443 0
M  V30 16961 H 1672.31 0.345789 -1.92418 0
M  V30 16962 H 1671.01 1.38336 -3.86382 0
M  V30 16963 H 1670.54 2.73806 -2.82478 0
M  V30 16964 H 1672.56 3.99481 -2.94329 0
M  V30 16965 N 1671.73 1.46313 0.585673 0
M  V30 16966 C 1672.66 1.52683 1.7094 0
M  V30 16967 C 1673.68 0.415447 1.5741 0
M  V30 16968 O 1674.87 0.683657 1.64889 0
M  V30 16969 C 1671.97 1.38822 3.09163 0
M  V30 16970 C 1671.14 2.64027 3.48724 0
M  V30 16971 C 1670.2 2.44407 4.65995 0
M  V30 16972 O 1669.22 3.18118 4.72006 0
M  V30 16973 N 1670.43 1.50381 5.60683 0
M  V30 16974 H 1673.19 2.49573 1.65932 0
M  V30 16975 H 1670.75 1.42332 0.771573 0
M  V30 16976 H 1672.74 1.23474 3.85404 0
M  V30 16977 H 1671.31 0.501247 3.08555 0
M  V30 16978 H 1670.53 2.94338 2.62219 0
M  V30 16979 H 1671.82 3.47206 3.71921 0
M  V30 16980 H 1671.22 0.895917 5.5856 0
M  V30 16981 H 1669.78 1.40997 6.36367 0
M  V30 16982 N 1673.21 -0.830057 1.33969 0
M  V30 16983 C 1674.14 -1.94785 1.20795 0
M  V30 16984 C 1675.15 -1.62225 0.136752 0
M  V30 16985 O 1676.34 -1.74233 0.38797 0
M  V30 16986 C 1673.44 -3.28523 0.832209 0
M  V30 16987 C 1672.62 -3.89157 1.99689 0
M  V30 16988 C 1671.68 -5.01262 1.6007 0
M  V30 16989 O 1670.7 -5.19939 2.31629 0
M  V30 16990 N 1671.9 -5.78249 0.510754 0
M  V30 16991 H 1674.67 -2.06621 2.17089 0
M  V30 16992 H 1672.23 -1.00626 1.26831 0
M  V30 16993 H 1674.22 -4.00958 0.549094 0
M  V30 16994 H 1672.79 -3.12574 -0.0403271 0
M  V30 16995 H 1672.01 -3.09203 2.44514 0
M  V30 16996 H 1673.3 -4.26399 2.77599 0
M  V30 16997 H 1672.7 -5.65637 -0.0842912 0
M  V30 16998 H 1671.25 -6.51166 0.287345 0
M  V30 16999 N 1674.69 -1.17582 -1.04939 0
M  V30 17000 C 1675.62 -0.838287 -2.12245 0
M  V30 17001 C 1676.6 0.196015 -1.61414 0
M  V30 17002 O 1677.78 0.0769706 -1.88343 0
M  V30 17003 C 1674.91 -0.250934 -3.37769 0
M  V30 17004 C 1673.96 -1.26103 -4.07431 0
M  V30 17005 S 1674.79 -2.81338 -4.55641 0
M  V30 17006 C 1675.94 -2.2409 -5.8441 0
M  V30 17007 H 1676.18 -1.74709 -2.40549 0
M  V30 17008 H 1673.71 -1.00075 -1.17577 0
M  V30 17009 H 1675.67 0.0814566 -4.10419 0
M  V30 17010 H 1674.33 0.635851 -3.07597 0
M  V30 17011 H 1673.52 -0.798761 -4.9763 0
M  V30 17012 H 1673.12 -1.5392 -3.40859 0
M  V30 17013 H 1675.42 -1.61804 -6.57895 0
M  V30 17014 H 1676.36 -3.12554 -6.35386 0
M  V30 17015 H 1676.77 -1.67444 -5.39094 0
M  V30 17016 N 1676.17 1.23705 -0.976463 0
M  V30 17017 C 1677.1 2.2734 -0.532809 0
M  V30 17018 C 1678.08 1.64523 0.432012 0
M  V30 17019 O 1679.26 1.9144 0.326233 0
M  V30 17020 C 1676.39 3.46887 0.169374 0
M  V30 17021 C 1675.35 4.22031 -0.712336 0
M  V30 17022 C 1674.67 5.34561 0.121838 0
M  V30 17023 C 1675.97 4.8244 -2.00123 0
M  V30 17024 H 1677.67 2.64702 -1.39904 0
M  V30 17025 H 1675.21 1.27244 -0.674156 0
M  V30 17026 H 1677.16 4.18529 0.491028 0
M  V30 17027 H 1675.89 3.08574 1.07002 0
M  V30 17028 H 1674.55 3.522 -1.01739 0
M  V30 17029 H 1674.2 4.92489 1.0229 0
M  V30 17030 H 1673.9 5.85758 -0.464962 0
M  V30 17031 H 1675.42 6.09027 0.437963 0
M  V30 17032 H 1676.83 5.46111 -1.7446 0
M  V30 17033 H 1675.23 5.43906 -2.53548 0
M  V30 17034 H 1676.3 4.03405 -2.69059 0
M  V30 17035 N 1677.64 0.747635 1.38738 0
M  V30 17036 C 1678.58 0.0644992 2.28109 0
M  V30 17037 C 1679.55 -0.734554 1.45062 0
M  V30 17038 O 1680.74 -0.714444 1.74436 0
M  V30 17039 C 1677.87 -0.915595 3.2609 0
M  V30 17040 C 1676.91 -0.203499 4.26014 0
M  V30 17041 S 1677.74 1.09151 5.24258 0
M  V30 17042 C 1678.9 0.114334 6.25796 0
M  V30 17043 H 1679.13 0.822371 2.857 0
M  V30 17044 H 1676.67 0.539962 1.44651 0
M  V30 17045 H 1678.62 -1.47575 3.83056 0
M  V30 17046 H 1677.29 -1.6464 2.67493 0
M  V30 17047 H 1676.48 -0.945572 4.9505 0
M  V30 17048 H 1676.08 0.284966 3.72913 0
M  V30 17049 H 1678.37 -0.721737 6.73645 0
M  V30 17050 H 1679.32 0.772189 7.03877 0
M  V30 17051 H 1679.72 -0.263706 5.63884 0
M  V30 17052 N 1679.12 -1.49583 0.496242 0
M  V30 17053 C 1680.54 -1.58875 0.151907 0
M  V30 17054 C 1680.74 -1.50196 -1.34326 0
M  V30 17055 O 1679.79 -1.37344 -2.11879 0
M  V30 17056 C 1681.11 -2.91842 0.724478 0
M  V30 17057 C 1682.65 -3.05296 0.690157 0
M  V30 17058 C 1683.13 -4.40875 1.24071 0
M  V30 17059 N 1684.62 -4.47354 1.2012 0
M  V30 17060 C 1685.36 -5.50699 1.59743 0
M  V30 17061 N 1684.85 -6.61173 2.06936 0
M  V30 17062 N 1686.64 -5.41386 1.51189 0
M  V30 17063 H 1678.8 -1.53468 1.46838 0
M  V30 17064 H 1681.06 -0.726702 0.608776 0
M  V30 17065 H 1680.76 -3.03747 1.77287 0
M  V30 17066 H 1680.64 -3.7676 0.182209 0
M  V30 17067 H 1683.03 -2.93024 -0.34939 0
M  V30 17068 H 1683.11 -2.22074 1.26952 0
M  V30 17069 H 1682.75 -4.53898 2.27901 0
M  V30 17070 H 1682.68 -5.22729 0.637328 0
M  V30 17071 H 1685.17 -3.68092 0.855361 0
M  V30 17072 H 1685.48 -7.36122 2.35252 0
M  V30 17073 H 1683.83 -6.62226 2.10906 0
M  V30 17074 H 1687.02 -4.53971 1.14142 0
M  V30 17075 H 1687.19 -6.21802 1.82392 0
M  V30 17076 N 1680.6 -0.229873 -1.55915 0
M  V30 17077 C 1681.53 0.671321 -2.23642 0
M  V30 17078 C 1682.51 1.19461 -1.21091 0
M  V30 17079 O 1683.7 1.23708 -1.49699 0
M  V30 17080 C 1680.83 1.87595 -2.92276 0
M  V30 17081 C 1679.78 1.48616 -4.01369 0
M  V30 17082 C 1679.11 2.77024 -4.57342 0
M  V30 17083 C 1680.41 0.669928 -5.17986 0
M  V30 17084 H 1682.1 0.106622 -2.9921 0
M  V30 17085 H 1679.65 0.0498418 -1.43914 0
M  V30 17086 H 1681.6 2.51191 -3.3835 0
M  V30 17087 H 1680.32 2.46576 -2.14168 0
M  V30 17088 H 1678.98 0.873623 -3.56038 0
M  V30 17089 H 1678.63 3.34166 -3.75955 0
M  V30 17090 H 1678.33 2.51674 -5.30975 0
M  V30 17091 H 1679.85 3.41548 -5.0614 0
M  V30 17092 H 1681.27 1.20978 -5.6039 0
M  V30 17093 H 1679.66 0.513174 -5.97902 0
M  V30 17094 H 1680.73 -0.321644 -4.83832 0
M  V30 17095 N 1682.08 1.5754 0.0434337 0
M  V30 17096 C 1683.33 1.88235 0.735652 0
M  V30 17097 C 1683.65 0.825698 1.76656 0
M  V30 17098 O 1682.92 -0.142424 1.95382 0
M  V30 17099 H 1681.5 0.694661 0.274692 0
M  V30 17100 H 1684.16 1.94896 0.0127911 0
M  V30 17101 H 1683.25 2.86659 1.23421 0
M  V30 17102 N 1683.56 -0.31543 1.54411 0
M  V30 17103 C 1684.8 -1.05033 1.72663 0
M  V30 17104 C 1685.12 -1.8828 0.507504 0
M  V30 17105 O 1684.39 -1.89968 -0.478418 0
M  V30 17106 H 1682.97 -0.39077 0.636638 0
M  V30 17107 H 1685.64 -0.3499 1.91733 0
M  V30 17108 H 1684.73 -1.71171 2.60973 0
M  V30 17109 N 1685.03 -1.46622 -0.577906 0
M  V30 17110 C 1686.28 -1.5188 -1.3333 0
M  V30 17111 C 1686.6 -0.173993 -1.94222 0
M  V30 17112 O 1685.87 0.799972 -1.78822 0
M  V30 17113 H 1684.45 -0.559401 -0.495055 0
M  V30 17114 H 1687.12 -1.82785 -0.676449 0
M  V30 17115 H 1686.21 -2.27411 -2.13754 0
M  V30 17116 N 1686.51 0.822941 -1.34408 0
M  V30 17117 C 1687.74 1.61087 -1.2984 0
M  V30 17118 C 1688.16 1.88369 0.127527 0
M  V30 17119 O 1687.51 1.47508 1.0746 0
M  V30 17120 C 1687.56 2.9518 -2.08689 0
M  V30 17121 O 1687.28 2.69089 -3.45721 0
M  V30 17122 C 1688.79 3.89583 -2.11518 0
M  V30 17123 H 1686.01 0.500726 -0.44667 0
M  V30 17124 H 1688.55 1.02391 -1.77021 0
M  V30 17125 H 1686.7 3.50434 -1.6515 0
M  V30 17126 H 1687.12 3.5459 -3.86479 0
M  V30 17127 H 1688.59 4.80835 -2.71111 0
M  V30 17128 H 1689.07 4.24953 -1.10957 0
M  V30 17129 H 1689.68 3.40265 -2.55146 0
M  V30 17130 N 1687.99 1.18137 1.04314 0
M  V30 17131 C 1689.22 1.00002 1.81128 0
M  V30 17132 C 1689.63 -0.451609 1.83319 0
M  V30 17133 O 1688.99 -1.31367 1.26685 0
M  V30 17134 C 1689.04 1.54454 3.26843 0
M  V30 17135 O 1688.76 2.93933 3.24861 0
M  V30 17136 C 1690.26 1.40902 4.20311 0
M  V30 17137 H 1687.48 0.35327 0.570475 0
M  V30 17138 H 1690.03 1.56629 1.31482 0
M  V30 17139 H 1688.18 1.02009 3.73728 0
M  V30 17140 H 1688.6 3.19279 4.16127 0
M  V30 17141 H 1690.07 1.83803 5.205 0
M  V30 17142 H 1690.55 0.357371 4.37744 0
M  V30 17143 H 1691.15 1.92407 3.79288 0
M  V30 17144 N 1689.47 -1.23186 0.98301 0
M  V30 17145 C 1690.71 -1.91955 0.65431 0
M  V30 17146 C 1691.05 -1.76482 -0.810419 0
M  V30 17147 O 1690.32 -1.12744 -1.5849 0
M  V30 17148 C 1690.61 -3.4449 1.04873 0
M  V30 17149 C 1690.46 -3.6906 2.57128 0
M  V30 17150 C 1691.78 -4.36065 0.594578 0
M  V30 17151 H 1688.9 -0.69711 0.239179 0
M  V30 17152 H 1691.54 -1.45257 1.22476 0
M  V30 17153 H 1689.69 -3.84394 0.563333 0
M  V30 17154 H 1691.36 -3.38622 3.13262 0
M  V30 17155 H 1689.6 -3.13681 2.99644 0
M  V30 17156 H 1690.27 -4.75846 2.79776 0
M  V30 17157 H 1692.75 -4.03622 1.01136 0
M  V30 17158 H 1691.63 -5.41489 0.898955 0
M  V30 17159 H 1691.89 -4.39206 -0.505033 0
M  V30 17160 N 1690.95 -0.754982 -1.38339 0
M  V30 17161 C 1692.17 -0.322624 -2.04369 0
M  V30 17162 C 1692.59 1.04951 -1.56942 0
M  V30 17163 O 1691.95 1.66686 -0.743109 0
M  V30 17164 C 1692 -0.337767 -3.59919 0
M  V30 17165 O 1691.72 -1.65576 -4.05606 0
M  V30 17166 C 1693.22 0.108281 -4.43168 0
M  V30 17167 H 1690.44 -0.137626 -0.656734 0
M  V30 17168 H 1692.98 -1.02422 -1.77003 0
M  V30 17169 H 1691.14 0.315106 -3.86116 0
M  V30 17170 H 1691.55 -1.5829 -5.00045 0
M  V30 17171 H 1693.03 0.0465256 -5.5198 0
M  V30 17172 H 1693.5 1.15636 -4.23704 0
M  V30 17173 H 1694.11 -0.51577 -4.22161 0
M  V30 17174 N 1692.42 1.49318 -0.504168 0
M  V30 17175 C 1693.65 2.07365 0.038102 0
M  V30 17176 C 1694.07 1.36164 1.29773 0
M  V30 17177 O 1693.43 0.419365 1.76383 0
M  V30 17178 C 1693.48 3.59576 0.271535 0
M  V30 17179 O 1692.58 3.8983 1.34561 0
M  V30 17180 H 1691.93 0.663425 -0.0276328 0
M  V30 17181 H 1694.46 1.92081 -0.704696 0
M  V30 17182 H 1694.47 4.04899 0.502083 0
M  V30 17183 H 1693.14 4.10809 -0.648754 0
M  V30 17184 H 1691.72 3.56314 1.09976 0
M  V30 17185 N 1693.9 0.238138 1.5579 0
M  V30 17186 C 1695.13 -0.396409 2.03576 0
M  V30 17187 C 1695.55 -1.5138 1.11649 0
M  V30 17188 O 1694.91 -1.80979 0.107774 0
M  V30 17189 C 1694.96 -0.889749 3.49451 0
M  V30 17190 O 1694.06 -1.99997 3.60659 0
M  V30 17191 H 1693.4 -0.0876017 0.658196 0
M  V30 17192 H 1695.93 0.361632 2.01379 0
M  V30 17193 H 1695.94 -1.19526 3.901 0
M  V30 17194 H 1694.62 -0.0720136 4.15838 0
M  V30 17195 H 1693.2 -1.69983 3.31904 0
M  V30 17196 O 1695.42 -1.61175 0.102452 0
M  V30 17197 H 1696.11 -1.87164 -0.498938 0
M  V30 END ATOM
M  V30 BEGIN BOND
M  V30 END BOND
M  V30 END CTAB
M  END
$$$$
