drugbank_target|Q16877 6-phosphofructo-2-kinase/fructose-2,6-bisphosphatase 4 (DB04395; DB04493)
 OpenBabel12092120433D

  0  0  0     0  0            999 V3000
M  V30 BEGIN CTAB
M  V30 COUNTS 7568 7648 0 0 0
M  V30 BEGIN ATOM
M  V30 1 H -0.908 1.98254 -0.117106 0
M  V30 2 N 0 1.576 0 0
M  V30 3 C 0.933 2.03868 1.02534 0
M  V30 4 C 1.911 0.928543 1.3348 0
M  V30 5 O 3.095 1.19667 1.45644 0
M  V30 6 C 0.222 2.43627 2.35294 0
M  V30 7 C -0.732 3.65373 2.2001 0
M  V30 8 S 0.101 5.13292 1.52614 0
M  V30 9 C 1.257 5.56322 2.86805 0
M  V30 10 H 1.49 2.90518 0.631377 0
M  V30 11 H -0.977 1.52953 0.210867 0
M  V30 12 H 0.981 2.67203 3.11629 0
M  V30 13 H -0.358 1.57376 2.7183 0
M  V30 14 H -1.165 3.90944 3.18086 0
M  V30 15 H -1.563 3.418 1.51819 0
M  V30 16 H 0.729 5.58782 3.83104 0
M  V30 17 H 1.672 6.56266 2.65933 0
M  V30 18 H 2.08 4.83886 2.90714 0
M  V30 19 N 1.4781 -0.272755 1.55222 0
M  V30 20 C 2.4411 -1.32041 1.87344 0
M  V30 21 C 3.4411 -1.42342 0.74803 0
M  V30 22 O 4.6311 -1.41488 1.0162 0
M  V30 23 C 1.7631 -2.70173 2.07893 0
M  V30 24 H 2.9561 -1.04789 2.80997 0
M  V30 25 H 0.5091 -0.51083 1.47717 0
M  V30 26 H 1.2441 -3.02605 1.16622 0
M  V30 27 H 1.0291 -2.64082 2.89833 0
M  V30 28 H 2.5191 -3.45869 2.34017 0
M  V30 29 N 2.9562 -1.48159 -0.537278 0
M  V30 30 C 4.1812 -1.59707 -1.32319 0
M  V30 31 C 4.6062 -0.254859 -1.86365 0
M  V30 32 O 3.9642 0.772378 -1.64024 0
M  V30 33 C 4.0122 -2.6412 -2.45505 0
M  V30 34 O 3.1162 -2.20774 -3.48328 0
M  V30 35 H 2.4572 -0.535791 -0.392204 0
M  V30 36 H 4.9872 -1.94092 -0.647268 0
M  V30 37 H 4.9972 -2.85166 -2.91795 0
M  V30 38 H 3.6722 -3.61567 -2.05528 0
M  V30 39 H 2.2492 -2.09911 -3.08207 0
M  V30 40 N 4.4343 0.785586 -1.36625 0
M  V30 41 C 5.8453 1.36101 -1.27803 0
M  V30 42 C 6.1963 1.96035 0.0804875 0
M  V30 43 O 5.3213 1.92834 0.982042 0
M  V30 44 C 5.9163 2.47442 -2.31426 0
M  V30 45 C 4.4753 3.00789 -2.26281 0
M  V30 46 C 3.6223 1.73896 -2.15999 0
M  V30 47 H 6.5733 0.586928 -1.47448 0
M  V30 48 H 6.5943 3.2656 -1.95291 0
M  V30 49 H 6.1063 2.03791 -3.30289 0
M  V30 50 H 4.2073 3.48851 -1.30896 0
M  V30 51 H 4.3203 3.57343 -3.19128 0
M  V30 52 H 2.6843 1.9628 -1.62316 0
M  V30 53 H 3.4673 1.32368 -3.16755 0
M  V30 54 N 5.9124 1.20967 1.01018 0
M  V30 55 C 7.3284 0.965905 1.27053 0
M  V30 56 C 7.5284 -0.350785 1.98423 0
M  V30 57 O 6.5844 -1.07773 2.28344 0
M  V30 58 C 7.8974 2.15294 2.09926 0
M  V30 59 C 9.4454 2.19463 2.23171 0
M  V30 60 C 9.9204 3.3767 3.09424 0
M  V30 61 N 11.4114 3.37724 3.17012 0
M  V30 62 C 12.1464 4.25837 3.83993 0
M  V30 63 N 11.6424 5.24138 4.53047 0
M  V30 64 N 13.4354 4.1366 3.80581 0
M  V30 65 H 5.5864 2.0565 0.531194 0
M  V30 66 H 7.8494 0.90024 0.297106 0
M  V30 67 H 7.5554 3.10684 1.64828 0
M  V30 68 H 7.4294 2.13923 3.10672 0
M  V30 69 H 9.8164 1.24632 2.6749 0
M  V30 70 H 9.8974 2.2488 1.21912 0
M  V30 71 H 9.5414 4.32791 2.65808 0
M  V30 72 H 9.4714 3.29491 4.10784 0
M  V30 73 H 11.9624 2.6658 2.6785 0
M  V30 74 H 12.2754 5.87684 5.01844 0
M  V30 75 H 10.6204 5.28068 4.5185 0
M  V30 76 H 13.8114 3.36127 3.25785 0
M  V30 77 H 13.9844 4.82538 4.32505 0
M  V30 78 N 7.3905 -1.2043 1.01659 0
M  V30 79 C 8.3005 -2.2689 0.596484 0
M  V30 80 C 9.3165 -1.70107 -0.36599 0
M  V30 81 O 10.4925 -2.00117 -0.226942 0
M  V30 82 C 7.5575 -3.4665 -0.0586659 0
M  V30 83 C 6.6185 -4.18662 0.949751 0
M  V30 84 C 5.8515 -5.32705 0.32577 0
M  V30 85 O 6.0745 -5.63656 -0.874509 0
M  V30 86 O 5.0085 -5.92803 1.04249 0
M  V30 87 H 8.8345 -2.65041 1.4828 0
M  V30 88 H 6.4195 -1.27048 0.786082 0
M  V30 89 H 8.3015 -4.19256 -0.424564 0
M  V30 90 H 6.9765 -3.10375 -0.91918 0
M  V30 91 H 5.8835 -3.48229 1.36702 0
M  V30 92 H 7.2165 -4.58878 1.78023 0
M  V30 93 N 8.8686 -0.792821 -1.36206 0
M  V30 94 C 9.7986 -0.207853 -2.32573 0
M  V30 95 C 10.7796 0.659055 -1.56813 0
M  V30 96 O 11.9646 0.592176 -1.84951 0
M  V30 97 C 9.0946 0.655449 -3.41059 0
M  V30 98 C 8.0486 -0.111842 -4.27854 0
M  V30 99 C 7.3746 0.872274 -5.27537 0
M  V30 100 C 8.6746 -1.30299 -5.05786 0
M  V30 101 H 10.3686 -1.01294 -2.81744 0
M  V30 102 H 7.9146 -0.48854 -1.3546 0
M  V30 103 H 9.8676 1.07464 -4.07467 0
M  V30 104 H 8.5916 1.49328 -2.90463 0
M  V30 105 H 7.2506 -0.512053 -3.63006 0
M  V30 106 H 6.8986 1.70523 -4.73214 0
M  V30 107 H 6.5986 0.363291 -5.86476 0
M  V30 108 H 8.1226 1.28996 -5.96818 0
M  V30 109 H 9.5366 -0.959379 -5.65216 0
M  V30 110 H 7.9336 -1.7455 -5.74154 0
M  V30 111 H 9.0036 -2.09663 -4.37229 0
M  V30 112 N 10.3467 1.47872 -0.545128 0
M  V30 113 C 11.5747 2.06889 -0.021084 0
M  V30 114 C 11.9897 1.39955 1.2672 0
M  V30 115 O 11.3467 0.492036 1.75742 0
M  V30 116 C 11.3977 3.60996 0.190817 0
M  V30 117 O 11.1187 4.25419 -1.04644 0
M  V30 118 C 12.6197 4.36849 0.753521 0
M  V30 119 H 9.8397 0.669785 -0.0403635 0
M  V30 120 H 12.3837 1.90049 -0.755095 0
M  V30 121 H 10.5387 3.77391 0.87492 0
M  V30 122 H 10.9527 5.17785 -0.836611 0
M  V30 123 H 12.4267 5.45399 0.851139 0
M  V30 124 H 12.9037 4.02306 1.762 0
M  V30 125 H 13.5097 4.25169 0.105503 0
M  V30 126 N 11.8248 0.280983 1.55075 0
M  V30 127 C 12.7568 -0.637268 2.20163 0
M  V30 128 C 13.7698 -1.11298 1.18813 0
M  V30 129 O 14.9588 -1.03388 1.4551 0
M  V30 130 C 12.0588 -1.88199 2.81841 0
M  V30 131 C 11.2318 -1.55211 4.08936 0
M  V30 132 C 10.2908 -2.64991 4.54606 0
M  V30 133 O 9.3168 -2.30929 5.2025 0
M  V30 134 N 10.5188 -3.95161 4.25238 0
M  V30 135 H 13.2838 -0.0801694 2.99593 0
M  V30 136 H 10.8448 0.102329 1.61576 0
M  V30 137 H 12.8368 -2.60948 3.09335 0
M  V30 138 H 11.4068 -2.34799 2.06369 0
M  V30 139 H 10.6268 -0.658185 3.88666 0
M  V30 140 H 11.9148 -1.30681 4.91732 0
M  V30 141 H 11.3128 -4.25653 3.72607 0
M  V30 142 H 9.8698 -4.6427 4.5749 0
M  V30 143 N 13.3029 -1.57598 0.00835791 0
M  V30 144 C 14.2509 -2.10078 -0.998508 0
M  V30 145 C 15.2449 -1.02262 -1.35051 0
M  V30 146 O 16.4509 -1.20719 -1.33518 0
M  V30 147 H 12.8259 -0.670903 -0.339696 0
M  V30 148 H 14.7969 -2.93648 -0.530398 0
M  V30 149 C 13.5459 -2.62615 -2.27879 0
M  V30 150 H 12.8689 -3.45213 -2.01662 0
M  V30 151 H 14.3089 -3.03004 -2.96588 0
M  V30 152 C 12.7679 -1.54407 -2.99433 0
M  V30 153 O 13.2979 -0.931812 -3.90743 0
M  V30 154 N 11.5039 -1.2695 -2.61404 0
M  V30 155 H 11.0509 -1.76924 -1.87232 0
M  V30 156 H 11.0089 -0.547704 -3.09593 0
M  V30 157 N 14.781 0.264519 -1.55364 0
M  V30 158 C 16.192 0.834936 -1.6699 0
M  V30 159 C 16.543 1.86718 -0.602552 0
M  V30 160 O 15.668 2.14899 0.254425 0
M  V30 161 C 16.263 1.5212 -3.02729 0
M  V30 162 C 14.822 2.03954 -3.16354 0
M  V30 163 C 13.969 0.884498 -2.62815 0
M  V30 164 H 16.92 0.0406869 -1.58648 0
M  V30 165 H 16.941 2.38853 -2.96191 0
M  V30 166 H 16.453 0.769668 -3.80392 0
M  V30 167 H 14.554 2.82041 -2.43482 0
M  V30 168 H 14.667 2.24902 -4.23032 0
M  V30 169 H 13.031 1.2802 -2.20188 0
M  V30 170 H 13.814 0.14634 -3.42988 0
M  V30 171 N 16.2591 1.48442 0.529413 0
M  V30 172 C 17.1891 1.65902 1.64313 0
M  V30 173 C 18.1701 0.507897 1.6234 0
M  V30 174 O 19.3551 0.740503 1.79528 0
M  V30 175 C 16.4851 1.69911 3.02898 0
M  V30 176 C 15.4391 2.8453 3.19729 0
M  V30 177 C 14.7651 2.73629 4.59381 0
M  V30 178 C 16.0651 4.25821 3.02447 0
M  V30 179 H 17.7591 2.5914 1.49955 0
M  V30 180 H 15.3051 1.24709 0.719982 0
M  V30 181 H 17.2581 1.80715 3.80684 0
M  V30 182 H 15.9821 0.732524 3.18279 0
M  V30 183 H 14.6411 2.73283 2.44361 0
M  V30 184 H 14.2891 1.74938 4.71599 0
M  V30 185 H 13.9891 3.50541 4.71588 0
M  V30 186 H 15.5131 2.86401 5.39265 0
M  V30 187 H 16.9271 4.37898 3.70024 0
M  V30 188 H 15.3241 5.03735 3.26146 0
M  V30 189 H 16.3941 4.42244 1.98867 0
M  V30 190 N 17.7372 -0.778329 1.37039 0
M  V30 191 C 18.6842 -1.89139 1.32269 0
M  V30 192 C 19.6542 -1.65017 0.189387 0
M  V30 193 O 20.8392 -1.87024 0.377693 0
M  V30 194 C 17.9792 -3.26112 1.12894 0
M  V30 195 C 17.0922 -3.62233 2.35396 0
M  V30 196 C 16.2272 -4.8838 2.08946 0
M  V30 197 C 15.2662 -5.17212 3.2735 0
M  V30 198 N 14.4032 -6.34546 3.00492 0
M  V30 199 H 19.2432 -1.92552 2.27437 0
M  V30 200 H 16.7802 -0.941473 1.13025 0
M  V30 201 H 18.7382 -4.05116 0.996835 0
M  V30 202 H 17.3682 -3.22091 0.213758 0
M  V30 203 H 16.4202 -2.78265 2.5937 0
M  V30 204 H 17.7322 -3.79481 3.23721 0
M  V30 205 H 16.8862 -5.75274 1.92729 0
M  V30 206 H 15.6252 -4.73222 1.17949 0
M  V30 207 H 14.6302 -4.28796 3.44113 0
M  V30 208 H 15.8552 -5.34283 4.19188 0
M  V30 209 H 13.8012 -6.20759 2.12118 0
M  V30 210 H 13.7182 -6.52179 3.82358 0
M  V30 211 H 14.9862 -7.24394 2.87879 0
M  V30 212 N 19.2153 -1.21501 -1.00376 0
M  V30 213 C 20.1623 -0.975387 -2.09177 0
M  V30 214 C 21.1323 0.0990615 -1.65804 0
M  V30 215 O 22.3173 -0.0483147 -1.90739 0
M  V30 216 C 19.4573 -0.547507 -3.40729 0
M  V30 217 C 18.5703 -1.69153 -3.97506 0
M  V30 218 C 17.7053 -1.2127 -5.17172 0
M  V30 219 C 16.7443 -2.32897 -5.66061 0
M  V30 220 N 15.8813 -1.86138 -6.76976 0
M  V30 221 H 20.7213 -1.9068 -2.29009 0
M  V30 222 H 18.2583 -0.950257 -1.12288 0
M  V30 223 H 20.2163 -0.280667 -4.16255 0
M  V30 224 H 18.8463 0.346904 -3.20931 0
M  V30 225 H 17.8983 -2.07298 -3.18954 0
M  V30 226 H 19.2103 -2.5316 -4.29781 0
M  V30 227 H 18.3643 -0.902591 -5.99948 0
M  V30 228 H 17.1033 -0.342692 -4.86495 0
M  V30 229 H 16.1083 -2.64709 -4.81881 0
M  V30 230 H 17.3333 -3.20396 -5.98768 0
M  V30 231 H 15.2793 -1.01484 -6.48103 0
M  V30 232 H 15.1963 -2.63717 -7.08512 0
M  V30 233 H 16.4643 -1.58165 -7.63285 0
M  V30 234 N 20.6934 1.19889 -1.02296 0
M  V30 235 C 21.9424 1.88743 -0.711257 0
M  V30 236 C 22.2554 1.80112 0.762817 0
M  V30 237 O 23.4614 2.44161 1.18733 0
M  V30 238 C 21.9174 3.38525 -1.22185 0
M  V30 239 C 21.5254 3.55727 -2.72328 0
M  V30 240 C 23.2694 4.12893 -0.985864 0
M  V30 241 C 21.1764 4.99369 -3.16835 0
M  V30 242 H 20.1064 0.706885 -0.262353 0
M  V30 243 H 22.7574 1.35586 -1.23648 0
M  V30 244 H 21.1394 3.91044 -0.624571 0
M  V30 245 H 22.3134 3.13564 -3.3766 0
M  V30 246 H 20.6284 2.94739 -2.9414 0
M  V30 247 H 23.2254 5.18813 -1.29374 0
M  V30 248 H 23.5684 4.16228 0.0775055 0
M  V30 249 H 24.1014 3.66494 -1.54684 0
M  V30 250 H 20.8404 5.01193 -4.22476 0
M  V30 251 H 20.3604 5.42317 -2.56228 0
M  V30 252 H 22.0394 5.67988 -3.09837 0
M  V30 253 N 22.1715 0.800033 1.35784 0
M  V30 254 C 23.4175 0.38701 1.99684 0
M  V30 255 C 23.7725 -1.03268 1.62338 0
M  V30 256 O 23.0655 -1.70543 0.87325 0
M  V30 257 C 23.2595 0.500276 3.53881 0
M  V30 258 C 23.0885 1.92942 4.06206 0
M  V30 259 C 21.8585 2.55637 4.35865 0
M  V30 260 C 24.0565 2.89307 4.25213 0
M  V30 261 N 22.0385 3.9003 4.74078 0
M  V30 262 C 23.4095 4.08556 4.66349 0
M  V30 263 C 25.4645 2.86225 4.07406 0
M  V30 264 C 24.1675 5.25146 4.91543 0
M  V30 265 C 26.1935 4.02011 4.33752 0
M  V30 266 C 25.5555 5.20007 4.75155 0
M  V30 267 H 21.6545 0.189252 0.758754 0
M  V30 268 H 24.2385 1.03988 1.64604 0
M  V30 269 H 22.4095 -0.122568 3.88207 0
M  V30 270 H 24.1415 0.0624733 4.04652 0
M  V30 271 H 20.8965 2.07039 4.25948 0
M  V30 272 H 21.3205 4.59205 4.97454 0
M  V30 273 H 25.9625 1.96154 3.74544 0
M  V30 274 H 23.6805 6.15794 5.23281 0
M  V30 275 H 27.2665 4.00999 4.21534 0
M  V30 276 H 26.1465 6.08113 4.95145 0
M  V30 277 N 23.6496 -1.47581 0.552962 0
M  V30 278 C 24.5826 -2.26883 -0.244857 0
M  V30 279 C 25.5606 -1.33784 -0.924147 0
M  V30 280 O 26.7446 -1.6316 -0.943981 0
M  V30 281 C 23.8716 -3.10695 -1.34856 0
M  V30 282 C 22.9176 -4.19339 -0.778268 0
M  V30 283 S 23.7506 -5.34207 0.37184 0
M  V30 284 C 24.9066 -6.21584 -0.733779 0
M  V30 285 H 25.1396 -2.94202 0.428087 0
M  V30 286 H 22.6726 -1.50628 0.339197 0
M  V30 287 H 24.6306 -3.59555 -1.98066 0
M  V30 288 H 23.2916 -2.42746 -1.99332 0
M  V30 289 H 22.4846 -4.77695 -1.60696 0
M  V30 290 H 22.0866 -3.73338 -0.222422 0
M  V30 291 H 24.3786 -6.57676 -1.62692 0
M  V30 292 H 25.3216 -7.07851 -0.187668 0
M  V30 293 H 25.7296 -5.55125 -1.02454 0
M  V30 294 N 25.1277 -0.289203 -1.54924 0
M  V30 295 C 26.5387 0.205791 -1.85562 0
M  V30 296 C 26.8897 1.54351 -1.2112 0
M  V30 297 O 26.0147 2.10435 -0.504601 0
M  V30 298 C 26.6097 0.380177 -3.3666 0
M  V30 299 C 25.1687 0.819395 -3.67373 0
M  V30 300 C 24.3157 -0.079159 -2.77187 0
M  V30 301 H 27.2667 -0.510577 -1.50262 0
M  V30 302 H 27.2877 1.21659 -3.60526 0
M  V30 303 H 26.7997 -0.593589 -3.83534 0
M  V30 304 H 24.9007 1.80413 -3.26009 0
M  V30 305 H 25.0137 0.646957 -4.74712 0
M  V30 306 H 23.3777 0.439565 -2.50878 0
M  V30 307 H 24.1607 -1.04906 -3.26878 0
M  V30 308 N 26.6058 1.57591 -0.0167156 0
M  V30 309 C 27.8358 1.95292 0.674149 0
M  V30 310 C 28.2438 0.891097 1.66901 0
M  V30 311 O 27.5868 -0.136908 1.83189 0
M  V30 312 C 27.6488 3.29072 1.44747 0
M  V30 313 C 27.3128 4.52879 0.612331 0
M  V30 314 C 28.3098 5.1979 -0.107126 0
M  V30 315 C 25.9948 4.99242 0.553381 0
M  V30 316 C 27.9888 6.31375 -0.874339 0
M  V30 317 C 25.6758 6.10713 -0.217546 0
M  V30 318 C 26.6738 6.76637 -0.930123 0
M  V30 319 O 26.3618 7.85969 -1.68844 0
M  V30 320 H 26.0938 0.648275 0.191615 0
M  V30 321 H 28.6478 2.05284 -0.0690148 0
M  V30 322 H 26.8778 3.15535 2.2355 0
M  V30 323 H 28.5668 3.51764 2.02526 0
M  V30 324 H 29.3328 4.84948 -0.0708392 0
M  V30 325 H 25.2118 4.47744 1.09757 0
M  V30 326 H 28.7558 6.82764 -1.43106 0
M  V30 327 H 24.6528 6.44994 -0.255593 0
M  V30 328 H 25.4208 8.02571 -1.6069 0
M  V30 329 N 28.0839 -0.256276 1.55502 0
M  V30 330 C 29.3089 -1.00766 1.81276 0
M  V30 331 C 29.7339 -1.78524 0.59252 0
M  V30 332 O 29.0919 -1.75413 -0.45827 0
M  V30 333 C 29.1399 -1.92869 3.04687 0
M  V30 334 O 28.2439 -3.019 2.80945 0
M  V30 335 H 27.5849 -0.287224 0.598664 0
M  V30 336 H 30.1149 -0.280109 2.02674 0
M  V30 337 H 30.1249 -2.34511 3.33869 0
M  V30 338 H 28.7999 -1.35689 3.93143 0
M  V30 339 H 27.3769 -2.64454 2.62904 0
M  V30 340 N 29.562 -1.4872 -0.521534 0
M  V30 341 C 30.51 -1.64328 -1.64618 0
M  V30 342 C 31.504 -0.50953 -1.61555 0
M  V30 343 O 32.71 -0.688525 -1.66311 0
M  V30 344 H 29.085 -0.517805 -0.545328 0
M  V30 345 H 31.056 -2.58767 -1.48601 0
M  V30 346 C 29.805 -1.70805 -3.02855 0
M  V30 347 H 29.128 -2.5741 -3.05909 0
M  V30 348 H 30.568 -1.85766 -3.81139 0
M  V30 349 C 29.027 -0.448479 -3.33902 0
M  V30 350 O 29.557 0.434928 -3.99339 0
M  V30 351 N 27.763 -0.317616 -2.88859 0
M  V30 352 H 27.31 -1.03748 -2.35784 0
M  V30 353 H 27.268 0.524113 -3.10001 0
M  V30 354 N 31.0401 0.771051 -1.3745 0
M  V30 355 C 32.2881 1.52661 -1.32435 0
M  V30 356 C 32.6091 1.9479 0.0905024 0
M  V30 357 O 31.8791 1.66348 1.03466 0
M  V30 358 H 30.4591 0.566218 -0.487244 0
M  V30 359 H 33.1211 0.917636 -1.71946 0
M  V30 360 H 32.2171 2.42568 -1.96385 0
M  V30 361 N 32.5182 1.22032 0.997298 0
M  V30 362 C 33.9342 0.979326 1.26021 0
M  V30 363 C 34.1342 -0.32972 1.98784 0
M  V30 364 O 33.1902 -1.05345 2.29475 0
M  V30 365 C 34.5032 2.17509 2.07631 0
M  V30 366 C 36.0512 2.21817 2.2083 0
M  V30 367 C 36.5262 3.40933 3.05825 0
M  V30 368 N 38.0172 3.41067 3.13412 0
M  V30 369 C 38.7522 4.29885 3.79455 0
M  V30 370 N 38.2482 5.28914 4.47462 0
M  V30 371 N 40.0412 4.17673 3.76173 0
M  V30 372 H 32.1922 2.06202 0.509352 0
M  V30 373 H 34.4552 0.90334 0.287541 0
M  V30 374 H 34.1612 3.12415 1.61524 0
M  V30 375 H 34.0352 2.17206 3.08385 0
M  V30 376 H 36.4222 1.27462 2.66153 0
M  V30 377 H 36.5032 2.2616 1.1952 0
M  V30 378 H 36.1472 4.35586 2.61203 0
M  V30 379 H 36.0772 3.33829 4.07266 0
M  V30 380 H 38.5682 2.69406 2.65007 0
M  V30 381 H 38.8812 5.92973 4.95583 0
M  V30 382 H 37.2262 5.32831 4.46224 0
M  V30 383 H 40.4172 3.39564 3.22202 0
M  V30 384 H 40.5902 4.87098 4.27363 0
M  V30 385 N 33.9963 -1.19345 1.0293 0
M  V30 386 C 35.4073 -1.70725 0.755633 0
M  V30 387 C 35.7583 -1.82326 -0.724676 0
M  V30 388 O 34.8833 -1.49471 -1.56484 0
M  V30 389 C 35.4783 -3.10084 1.36503 0
M  V30 390 C 34.0373 -3.58723 1.13994 0
M  V30 391 C 33.1843 -2.35577 1.46283 0
M  V30 392 H 36.1353 -1.0418 1.19718 0
M  V30 393 H 36.1563 -3.72787 0.762217 0
M  V30 394 H 35.6683 -3.01609 2.44241 0
M  V30 395 H 33.7693 -3.72512 0.0807901 0
M  V30 396 H 33.8823 -4.42816 1.82894 0
M  V30 397 H 32.2463 -2.38935 0.88217 0
M  V30 398 H 33.0293 -2.29731 2.55105 0
M  V30 399 N 35.4744 -0.807222 -1.35358 0
M  V30 400 C 36.4374 -0.223665 -2.28106 0
M  V30 401 C 37.4374 0.589354 -1.4961 0
M  V30 402 O 38.6274 0.407745 -1.69361 0
M  V30 403 C 35.7594 0.688149 -3.33882 0
M  V30 404 H 36.9524 -1.04169 -2.81227 0
M  V30 405 H 34.5054 -0.577921 -1.45223 0
M  V30 406 H 35.2404 1.52984 -2.85948 0
M  V30 407 H 35.0254 0.10687 -3.91954 0
M  V30 408 H 36.5154 1.09075 -4.03104 0
M  V30 409 N 36.9525 1.47285 -0.560781 0
M  V30 410 C 37.8825 2.32857 0.173105 0
M  V30 411 C 38.8635 1.44009 0.905281 0
M  V30 412 O 40.0485 1.7286 0.885046 0
M  V30 413 C 37.1785 3.25861 1.20133 0
M  V30 414 C 36.1325 4.23978 0.585388 0
M  V30 415 C 35.4585 5.06332 1.7185 0
M  V30 416 C 36.7585 5.20242 -0.463178 0
M  V30 417 H 38.4525 2.94466 -0.541307 0
M  V30 418 H 35.9985 1.41601 -0.261764 0
M  V30 419 H 37.9515 3.84569 1.72293 0
M  V30 420 H 36.6755 2.62315 1.94573 0
M  V30 421 H 35.3345 3.66501 0.085054 0
M  V30 422 H 34.9825 4.39186 2.45203 0
M  V30 423 H 34.6825 5.72762 1.31213 0
M  V30 424 H 36.2065 5.67899 2.24329 0
M  V30 425 H 37.6205 5.73293 -0.027502 0
M  V30 426 H 36.0175 5.94896 -0.788627 0
M  V30 427 H 37.0875 4.65504 -1.35773 0
M  V30 428 N 38.4306 0.297415 1.54768 0
M  V30 429 C 39.3806 -0.595275 2.20092 0
M  V30 430 C 40.3646 -1.10163 1.17273 0
M  V30 431 O 41.5566 -1.043 1.43006 0
M  V30 432 C 38.6856 -1.7684 2.94249 0
M  V30 433 C 37.7716 -1.27818 4.0438 0
M  V30 434 N 38.1626 -0.505695 5.03266 0
M  V30 435 C 36.4606 -1.55923 4.17857 0
M  V30 436 C 37.1616 -0.245094 5.81183 0
M  V30 437 N 36.1376 -0.823881 5.3732 0
M  V30 438 H 39.9396 0.00250837 2.939 0
M  V30 439 H 37.4536 0.102007 1.62079 0
M  V30 440 H 39.4506 -2.41944 3.39513 0
M  V30 441 H 38.1106 -2.36992 2.21957 0
M  V30 442 H 39.1216 -0.150928 5.1768 0
M  V30 443 H 35.7986 -2.16849 3.56767 0
M  V30 444 H 37.1886 0.375084 6.70852 0
M  V30 445 N 39.9087 -1.5758 0.0250728 0
M  V30 446 C 40.8717 -2.08896 -0.943139 0
M  V30 447 C 41.8717 -1.00321 -1.25668 0
M  V30 448 O 43.0617 -1.26495 -1.19769 0
M  V30 449 C 40.1937 -2.55143 -2.26086 0
M  V30 450 H 41.3867 -2.95723 -0.498775 0
M  V30 451 H 38.9397 -1.54703 -0.222888 0
M  V30 452 H 39.6747 -1.71633 -2.75159 0
M  V30 453 H 39.4597 -3.34461 -2.04641 0
M  V30 454 H 40.9497 -2.95083 -2.95492 0
M  V30 455 N 41.3868 0.248026 -1.55636 0
M  V30 456 C 42.6268 0.983592 -1.79178 0
M  V30 457 C 42.9908 1.82567 -0.594414 0
M  V30 458 O 44.1918 2.59292 -0.708583 0
M  V30 459 C 42.4628 1.82228 -3.07454 0
M  V30 460 S 44.0218 2.61709 -3.52213 0
M  V30 461 H 40.8398 0.330866 -0.629324 0
M  V30 462 H 43.4418 0.251562 -1.93875 0
M  V30 463 H 42.1458 1.19333 -3.92668 0
M  V30 464 H 41.6768 2.59708 -2.95492 0
M  V30 465 H 43.6918 3.84655 -3.13457 0
M  V30 466 N 42.8649 1.48995 0.513639 0
M  V30 467 C 43.7969 1.60836 1.63293 0
M  V30 468 C 44.8099 0.491701 1.55197 0
M  V30 469 O 45.9989 0.763238 1.6136 0
M  V30 470 C 43.0989 1.53731 3.02027 0
M  V30 471 C 42.2719 2.80715 3.35437 0
M  V30 472 C 41.3309 2.66837 4.53525 0
M  V30 473 O 40.3569 3.40753 4.55934 0
M  V30 474 N 41.5589 1.77539 5.52684 0
M  V30 475 H 44.3239 2.57366 1.53566 0
M  V30 476 H 41.8849 1.45925 0.701259 0
M  V30 477 H 43.8769 1.42118 3.78926 0
M  V30 478 H 42.4469 0.651092 3.05744 0
M  V30 479 H 41.6669 3.06772 2.47557 0
M  V30 480 H 42.9549 3.64927 3.54551 0
M  V30 481 H 42.3529 1.16719 5.53528 0
M  V30 482 H 40.9099 1.71856 6.28736 0
M  V30 483 N 44.343 -0.763751 1.37857 0
M  V30 484 C 45.759 -1.06542 1.18832 0
M  V30 485 C 45.959 -2.01478 0.0299722 0
M  V30 486 O 45.015 -2.4458 -0.627447 0
M  V30 487 C 46.328 -1.65525 2.51042 0
M  V30 488 C 47.876 -1.77745 2.57635 0
M  V30 489 C 48.351 -2.4014 3.89996 0
M  V30 490 N 49.842 -2.47582 3.91481 0
M  V30 491 C 50.577 -2.96732 4.9065 0
M  V30 492 N 50.073 -3.45993 6.00217 0
M  V30 493 N 51.866 -2.95679 4.78048 0
M  V30 494 H 44.017 -0.133556 2.1198 0
M  V30 495 H 46.28 -0.121879 0.940133 0
M  V30 496 H 45.986 -1.03236 3.36207 0
M  V30 497 H 45.86 -2.64719 2.68707 0
M  V30 498 H 48.247 -2.39164 1.72872 0
M  V30 499 H 48.328 -0.772836 2.43846 0
M  V30 500 H 47.972 -1.79358 4.75177 0
M  V30 501 H 47.902 -3.41223 4.01092 0
M  V30 502 H 50.393 -2.1273 3.12337 0
M  V30 503 H 50.706 -3.81922 6.7183 0
M  V30 504 H 49.051 -3.44077 6.03851 0
M  V30 505 H 52.242 -2.56499 3.91568 0
M  V30 506 H 52.415 -3.33672 5.55488 0
M  V30 507 N 45.8211 -1.22559 -0.990812 0
M  V30 508 C 47.0691 -1.04933 -1.72724 0
M  V30 509 C 47.3901 0.416158 -1.90508 0
M  V30 510 O 46.6601 1.29918 -1.46622 0
M  V30 511 H 45.2401 -0.385296 -0.639965 0
M  V30 512 H 47.9021 -1.54105 -1.19322 0
M  V30 513 H 46.9981 -1.52886 -2.72089 0
M  V30 514 N 47.2992 1.18797 -1.03562 0
M  V30 515 C 48.5452 1.8893 -0.737113 0
M  V30 516 C 48.8782 1.79837 0.732956 0
M  V30 517 O 48.1532 1.19525 1.5344 0
M  V30 518 C 48.4362 3.39607 -1.19745 0
M  V30 519 C 48.2892 3.57537 -2.72924 0
M  V30 520 C 49.6082 4.33069 -0.783526 0
M  V30 521 H 46.7272 0.686057 -0.269249 0
M  V30 522 H 49.3692 1.39797 -1.28673 0
M  V30 523 H 47.5192 3.81583 -0.729855 0
M  V30 524 H 49.1912 3.24688 -3.27682 0
M  V30 525 H 47.4342 3.00363 -3.12993 0
M  V30 526 H 48.1052 4.63238 -3.00191 0
M  V30 527 H 50.5812 3.98846 -1.18581 0
M  V30 528 H 49.4572 5.3707 -1.13343 0
M  V30 529 H 49.7182 4.40986 0.313681 0
M  V30 530 N 48.7773 0.814389 1.34928 0
M  V30 531 C 50.0173 0.404165 2.00364 0
M  V30 532 C 50.3813 -1.01166 1.63185 0
M  V30 533 O 51.5823 -1.52431 2.21401 0
M  V30 534 C 49.8533 0.590718 3.52484 0
M  V30 535 S 51.4123 0.272075 4.37956 0
M  V30 536 H 48.2303 0.15311 0.694319 0
M  V30 537 H 50.8323 1.05834 1.64376 0
M  V30 538 H 49.5363 1.62099 3.77031 0
M  V30 539 H 49.0673 -0.0785013 3.93322 0
M  V30 540 H 51.0823 -0.917405 4.87645 0
M  V30 541 N 50.2554 -1.46986 0.568584 0
M  V30 542 C 51.1884 -2.27129 -0.220779 0
M  V30 543 C 52.1664 -1.34757 -0.909905 0
M  V30 544 O 53.3504 -1.64152 -0.926622 0
M  V30 545 C 50.4774 -3.12108 -1.31553 0
M  V30 546 C 49.5234 -4.20141 -0.733748 0
M  V30 547 S 50.3564 -5.33783 0.428479 0
M  V30 548 C 51.5124 -6.22327 -0.667811 0
M  V30 549 H 51.7454 -2.93731 0.459267 0
M  V30 550 H 49.2784 -1.5026 0.355154 0
M  V30 551 H 51.2364 -3.61636 -1.94241 0
M  V30 552 H 49.8974 -2.44847 -1.96746 0
M  V30 553 H 49.0904 -4.79373 -1.5562 0
M  V30 554 H 48.6924 -3.73553 -0.182812 0
M  V30 555 H 50.9844 -6.59364 -1.55708 0
M  V30 556 H 51.9274 -7.0801 -0.11258 0
M  V30 557 H 52.3354 -5.5618 -0.965601 0
M  V30 558 N 51.7335 -0.305618 -1.54608 0
M  V30 559 C 52.9615 0.304775 -2.04643 0
M  V30 560 C 53.3765 1.47167 -1.18268 0
M  V30 561 O 52.7335 1.81296 -0.209328 0
M  V30 562 C 52.7845 0.756564 -3.53495 0
M  V30 563 O 52.5055 -0.36389 -4.36586 0
M  V30 564 C 54.0065 1.43163 -4.19546 0
M  V30 565 H 51.2265 0.0655481 -0.667791 0
M  V30 566 H 53.7705 -0.446592 -1.99564 0
M  V30 567 H 51.9255 1.45794 -3.58919 0
M  V30 568 H 52.3395 -0.0113121 -5.24499 0
M  V30 569 H 53.8135 1.69886 -5.25207 0
M  V30 570 H 54.2905 2.37318 -3.69563 0
M  V30 571 H 54.8965 0.773307 -4.18211 0
M  V30 572 N 53.2116 1.57565 -0.0334293 0
M  V30 573 C 54.1596 2.1164 0.96496 0
M  V30 574 C 55.1536 1.04398 1.33407 0
M  V30 575 O 56.3596 1.22828 1.3158 0
M  V30 576 H 52.7346 0.676222 0.32898 0
M  V30 577 H 54.7056 2.94455 0.483614 0
M  V30 578 C 53.4546 2.66207 2.23672 0
M  V30 579 H 52.7776 3.48378 1.96145 0
M  V30 580 H 54.2176 3.07685 2.9173 0
M  V30 581 C 52.6766 1.59151 2.96939 0
M  V30 582 O 53.2066 0.993858 3.89211 0
M  V30 583 N 51.4126 1.31093 2.59351 0
M  V30 584 H 50.9596 1.7988 1.84393 0
M  V30 585 H 50.9176 0.596889 3.08682 0
M  V30 586 N 54.6897 -0.239769 1.55765 0
M  V30 587 C 55.9297 -0.974076 1.79697 0
M  V30 588 C 56.2937 -1.82249 0.604088 0
M  V30 589 O 57.4947 -2.58913 0.722324 0
M  V30 590 C 55.7657 -1.80595 3.08416 0
M  V30 591 S 57.3247 -2.59838 3.53596 0
M  V30 592 H 54.1427 -0.327524 0.63107 0
M  V30 593 H 56.7447 -0.241277 1.94005 0
M  V30 594 H 55.4487 -1.17249 3.93295 0
M  V30 595 H 54.9797 -2.58137 2.96865 0
M  V30 596 H 56.9947 -3.82987 3.15492 0
M  V30 597 N 56.1678 -1.49265 -0.50573 0
M  V30 598 C 57.5788 -1.51769 -1.08734 0
M  V30 599 C 57.9298 -0.301192 -1.93874 0
M  V30 600 O 57.0548 0.589456 -2.08217 0
M  V30 601 C 57.6498 -2.75017 -1.97867 0
M  V30 602 C 56.2088 -2.80314 -2.51199 0
M  V30 603 C 55.3558 -2.4562 -1.28709 0
M  V30 604 H 58.3068 -1.56031 -0.289855 0
M  V30 605 H 58.3278 -2.5491 -2.82491 0
M  V30 606 H 57.8398 -3.63539 -1.35873 0
M  V30 607 H 55.9408 -1.96061 -3.16845 0
M  V30 608 H 56.0538 -3.82366 -2.88675 0
M  V30 609 H 54.4178 -1.97297 -1.61078 0
M  V30 610 H 55.2008 -3.36411 -0.6843 0
M  V30 611 N 57.6459 0.756429 -1.3826 0
M  V30 612 C 58.8739 1.54565 -1.3754 0
M  V30 613 C 59.2889 1.88767 0.0355331 0
M  V30 614 O 58.6459 1.52572 1.0014 0
M  V30 615 C 58.6969 2.84654 -2.22833 0
M  V30 616 O 58.4179 2.51912 -3.5843 0
M  V30 617 C 59.9189 3.78807 -2.30261 0
M  V30 618 H 57.1389 0.478353 -0.470553 0
M  V30 619 H 59.6829 0.936381 -1.81803 0
M  V30 620 H 57.8379 3.41965 -1.8204 0
M  V30 621 H 58.2519 3.35325 -4.03308 0
M  V30 622 H 59.7259 4.67045 -2.94233 0
M  V30 623 H 60.2029 4.19038 -1.31545 0
M  V30 624 H 60.8089 3.2742 -2.71433 0
M  V30 625 N 59.124 1.23083 0.984299 0
M  V30 626 C 60.054 1.03292 2.09411 0
M  V30 627 C 61.035 -0.048923 1.7003 0
M  V30 628 O 62.22 0.114967 1.93859 0
M  V30 629 C 59.35 0.619155 3.41736 0
M  V30 630 C 58.304 1.64791 3.95004 0
M  V30 631 C 57.63 1.0897 5.23478 0
M  V30 632 C 58.93 3.03999 4.24714 0
M  V30 633 H 60.624 1.96119 2.26225 0
M  V30 634 H 58.17 0.944344 1.08711 0
M  V30 635 H 60.123 0.467777 4.18796 0
M  V30 636 H 58.847 -0.344786 3.24775 0
M  V30 637 H 57.506 1.78721 3.20085 0
M  V30 638 H 57.154 0.11686 5.02864 0
M  V30 639 H 56.854 1.77704 5.60085 0
M  V30 640 H 58.378 0.950093 6.03163 0
M  V30 641 H 59.792 2.93393 4.92538 0
M  V30 642 H 58.189 3.69936 4.72512 0
M  V30 643 H 59.259 3.53285 3.32142 0
M  V30 644 N 60.6021 -1.18246 1.0419 0
M  V30 645 C 61.8511 -1.87588 0.741194 0
M  V30 646 C 62.1641 -1.81303 -0.734066 0
M  V30 647 O 63.3701 -2.46019 -1.14834 0
M  V30 648 C 61.8261 -3.36538 1.27555 0
M  V30 649 C 61.4341 -3.51349 2.77953 0
M  V30 650 C 63.1781 -4.11273 1.05143 0
M  V30 651 C 61.0851 -4.94265 3.2474 0
M  V30 652 H 60.0151 -0.702622 0.273565 0
M  V30 653 H 62.6661 -1.33601 1.25789 0
M  V30 654 H 61.0481 -3.9 0.686703 0
M  V30 655 H 62.2221 -3.08153 3.42605 0
M  V30 656 H 60.5371 -2.90022 2.98791 0
M  V30 657 H 63.1341 -5.16689 1.37611 0
M  V30 658 H 63.4771 -4.16298 -0.0112774 0
M  V30 659 H 64.0101 -3.63987 1.60495 0
M  V30 660 H 60.7491 -4.94408 4.30396 0
M  V30 661 H 60.2691 -5.38172 2.64823 0
M  V30 662 H 61.9481 -5.62987 3.18834 0
M  V30 663 N 62.0802 -0.821533 -1.34494 0
M  V30 664 C 63.3262 -0.409552 -1.98622 0
M  V30 665 C 63.6592 1.0244 -1.64984 0
M  V30 666 O 62.9342 1.71325 -0.920758 0
M  V30 667 C 63.2172 -0.610458 -3.54888 0
M  V30 668 C 63.0702 -2.09043 -3.98273 0
M  V30 669 C 64.3892 -0.0455379 -4.40076 0
M  V30 670 H 61.5082 -0.15028 -0.721516 0
M  V30 671 H 64.1502 -1.03384 -1.59411 0
M  V30 672 H 62.3002 -0.079044 -3.8842 0
M  V30 673 H 63.9722 -2.68537 -3.75081 0
M  V30 674 H 62.2152 -2.58139 -3.48635 0
M  V30 675 H 62.8862 -2.18182 -5.07051 0
M  V30 676 H 65.3622 -0.499557 -4.1309 0
M  V30 677 H 64.2382 -0.215922 -5.48475 0
M  V30 678 H 64.4992 1.04939 -4.29465 0
M  V30 679 N 63.5583 1.46682 -0.576371 0
M  V30 680 C 64.4913 2.27243 0.208731 0
M  V30 681 C 65.4693 1.35238 0.902746 0
M  V30 682 O 66.6533 1.64641 0.917904 0
M  V30 683 C 63.7803 3.12802 1.29896 0
M  V30 684 C 62.8263 4.20524 0.711457 0
M  V30 685 S 63.6593 5.33548 -0.456781 0
M  V30 686 C 64.8153 6.22673 0.634798 0
M  V30 687 H 65.0483 2.93484 -0.474838 0
M  V30 688 H 62.5813 1.50069 -0.363118 0
M  V30 689 H 64.5393 3.62661 1.92321 0
M  V30 690 H 63.2003 2.45887 1.95444 0
M  V30 691 H 62.3933 4.80191 1.53076 0
M  V30 692 H 61.9953 3.73645 0.162999 0
M  V30 693 H 64.2873 6.60181 1.52209 0
M  V30 694 H 65.2303 7.0806 0.0750311 0
M  V30 695 H 65.6383 5.56684 0.936092 0
M  V30 696 N 65.0364 0.313813 1.54444 0
M  V30 697 C 66.2824 -0.292108 2.00685 0
M  V30 698 C 66.6154 -1.52548 1.20177 0
M  V30 699 O 65.8904 -1.92452 0.281531 0
M  V30 700 C 66.1734 -0.635968 3.5444 0
M  V30 701 C 66.0264 0.607437 4.4568 0
M  V30 702 C 67.3454 -1.45747 4.15266 0
M  V30 703 H 64.4644 -0.104697 0.729526 0
M  V30 704 H 67.1064 0.428457 1.85106 0
M  V30 705 H 65.2564 -1.24986 3.67846 0
M  V30 706 H 66.9284 1.24581 4.44159 0
M  V30 707 H 65.1714 1.23822 4.15753 0
M  V30 708 H 65.8424 0.322515 5.51057 0
M  V30 709 H 68.3184 -0.938645 4.05375 0
M  V30 710 H 67.1944 -1.66683 5.2298 0
M  V30 711 H 67.4554 -2.45063 3.67963 0
M  V30 712 N 66.5145 -1.57545 0.0417849 0
M  V30 713 C 67.7625 -1.91937 -0.632829 0
M  V30 714 C 68.0835 -0.919978 -1.71934 0
M  V30 715 O 67.3535 0.0366064 -1.95866 0
M  V30 716 H 65.9335 -0.708493 -0.236742 0
M  V30 717 H 68.5955 -1.9468 0.0925745 0
M  V30 718 H 67.6915 -2.92912 -1.07746 0
M  V30 719 N 67.9926 0.231505 -1.5589 0
M  V30 720 C 68.9226 1.29022 -1.94617 0
M  V30 721 C 69.9036 1.4941 -0.813067 0
M  V30 722 O 71.0886 1.6176 -1.07459 0
M  V30 723 C 68.2186 2.64199 -2.25424 0
M  V30 724 C 67.1726 2.58484 -3.41131 0
M  V30 725 C 66.4986 3.97599 -3.57518 0
M  V30 726 C 67.7986 2.1413 -4.76388 0
M  V30 727 H 69.4926 0.968563 -2.83301 0
M  V30 728 H 67.0386 0.464479 -1.36303 0
M  V30 729 H 68.9916 3.38413 -2.51107 0
M  V30 730 H 67.7156 2.98032 -1.33583 0
M  V30 731 H 66.3746 1.86727 -3.15481 0
M  V30 732 H 66.0226 4.28723 -2.6307 0
M  V30 733 H 65.7226 3.94659 -4.35337 0
M  V30 734 H 67.2466 4.7349 -3.85538 0
M  V30 735 H 68.6606 2.78083 -5.01341 0
M  V30 736 H 67.0576 2.2227 -5.57419 0
M  V30 737 H 68.1276 1.09331 -4.72414 0
M  V30 738 N 69.4707 1.49531 0.497807 0
M  V30 739 C 70.8817 1.52344 1.07927 0
M  V30 740 C 71.2327 0.311469 1.93712 0
M  V30 741 O 70.3577 -0.578405 2.08527 0
M  V30 742 C 70.9527 2.76062 1.96405 0
M  V30 743 C 69.5117 2.81643 2.49709 0
M  V30 744 C 68.6587 2.46299 1.27404 0
M  V30 745 H 71.6097 1.56182 0.281576 0
M  V30 746 H 71.6307 2.56405 2.81135 0
M  V30 747 H 71.1427 3.64254 1.33943 0
M  V30 748 H 69.2437 1.97739 3.15801 0
M  V30 749 H 69.3567 3.83891 2.86643 0
M  V30 750 H 67.7207 1.98148 1.60029 0
M  V30 751 H 68.5037 3.36769 0.66645 0
M  V30 752 N 70.9488 -0.749086 1.3866 0
M  V30 753 C 71.9118 -1.84457 1.36045 0
M  V30 754 C 72.9118 -1.58682 0.260122 0
M  V30 755 O 74.1018 -1.66343 0.517261 0
M  V30 756 C 71.2338 -3.22008 1.11911 0
M  V30 757 H 72.4268 -1.88182 2.33512 0
M  V30 758 H 69.9798 -0.951266 1.24019 0
M  V30 759 H 70.7148 -3.2395 0.150686 0
M  V30 760 H 70.4998 -3.42111 1.91579 0
M  V30 761 H 71.9898 -4.0208 1.12788 0
M  V30 762 N 72.4269 -1.23603 -0.977757 0
M  V30 763 C 73.8429 -0.999251 -1.24447 0
M  V30 764 C 74.0429 0.298053 -1.99283 0
M  V30 765 O 73.0989 1.01681 -2.31122 0
M  V30 766 C 74.4119 -2.20784 -2.04144 0
M  V30 767 C 75.9599 -2.25303 -2.17273 0
M  V30 768 C 76.4349 -3.45755 -3.00362 0
M  V30 769 N 77.9259 -3.4601 -3.07947 0
M  V30 770 C 78.6609 -4.35868 -3.72568 0
M  V30 771 N 78.1569 -5.35966 -4.38991 0
M  V30 772 N 79.9499 -4.23605 -3.6948 0
M  V30 773 H 72.1009 -2.06986 -0.476483 0
M  V30 774 H 74.3639 -0.907801 -0.273134 0
M  V30 775 H 74.0699 -3.14945 -1.56533 0
M  V30 776 H 73.9439 -2.22085 -3.04891 0
M  V30 777 H 76.3309 -1.3168 -2.64092 0
M  V30 778 H 76.4119 -2.28033 -1.15907 0
M  V30 779 H 76.0559 -4.39687 -2.5424 0
M  V30 780 H 75.9859 -3.40266 -4.01904 0
M  V30 781 H 78.4769 -2.73588 -2.60688 0
M  V30 782 H 78.7899 -6.00783 -4.86086 0
M  V30 783 H 77.1349 -5.39863 -4.37691 0
M  V30 784 H 80.3259 -3.44647 -3.16759 0
M  V30 785 H 80.4989 -4.93836 -4.1956 0
M  V30 786 N 73.905 1.17692 -1.04816 0
M  V30 787 C 75.153 1.87488 -0.754497 0
M  V30 788 C 75.474 1.81205 0.720407 0
M  V30 789 O 74.744 1.23544 1.52032 0
M  V30 790 H 73.324 0.694101 -0.276102 0
M  V30 791 H 75.986 1.42793 -1.32651 0
M  V30 792 H 75.082 2.93328 -1.06606 0
M  V30 793 N 75.3831 0.828654 1.34056 0
M  V30 794 C 76.3301 0.252567 2.29414 0
M  V30 795 C 77.3001 -0.62588 1.53857 0
M  V30 796 O 78.4851 -0.566312 1.82202 0
M  V30 797 C 75.6251 -0.574831 3.40279 0
M  V30 798 C 74.7381 0.326499 4.30764 0
M  V30 799 C 73.8731 -0.511016 5.28736 0
M  V30 800 C 72.9121 0.389342 6.1086 0
M  V30 801 N 72.0491 -0.409439 7.00905 0
M  V30 802 H 76.8891 1.07108 2.78086 0
M  V30 803 H 74.4261 0.539677 1.36843 0
M  V30 804 H 76.3841 -1.06992 4.03248 0
M  V30 805 H 75.0141 -1.35841 2.92826 0
M  V30 806 H 74.0661 0.939837 3.68607 0
M  V30 807 H 75.3781 1.01857 4.88289 0
M  V30 808 H 74.5321 -1.07035 5.97184 0
M  V30 809 H 73.2711 -1.23657 4.71763 0
M  V30 810 H 72.2761 0.960769 5.4134 0
M  V30 811 H 73.5011 1.1131 6.69916 0
M  V30 812 H 71.4471 -1.11856 6.46393 0
M  V30 813 H 71.3641 0.224126 7.55668 0
M  V30 814 H 72.6321 -0.951336 7.73673 0
M  V30 815 N 76.8612 -1.46375 0.584142 0
M  V30 816 C 78.0892 -2.06761 0.0759296 0
M  V30 817 C 78.5042 -1.43266 -1.22965 0
M  V30 818 O 77.8612 -0.538458 -1.74376 0
M  V30 819 C 77.9122 -3.61375 -0.0950384 0
M  V30 820 O 77.6332 -4.22495 1.15887 0
M  V30 821 C 79.1342 -4.38693 -0.637434 0
M  V30 822 H 76.3542 -0.668479 0.0581075 0
M  V30 823 H 78.8982 -1.8798 0.805218 0
M  V30 824 H 77.0532 -3.79578 -0.774554 0
M  V30 825 H 77.4672 -5.15385 0.973598 0
M  V30 826 H 78.9412 -5.47464 -0.706237 0
M  V30 827 H 79.4182 -4.06836 -1.65472 0
M  V30 828 H 80.0242 -4.25299 0.00725967 0
M  V30 829 N 78.3393 -0.321999 -1.54275 0
M  V30 830 C 79.5693 0.282642 -2.04658 0
M  V30 831 C 79.9773 1.46453 -1.19784 0
M  V30 832 O 79.3203 1.82367 -0.220932 0
M  V30 833 C 79.3823 0.781857 -3.50895 0
M  V30 834 C 79.0463 -0.277517 -4.56157 0
M  V30 835 C 80.0433 -1.11307 -5.07845 0
M  V30 836 C 77.7283 -0.425256 -5.00497 0
M  V30 837 C 79.7223 -2.08211 -6.02434 0
M  V30 838 C 77.4093 -1.39771 -5.94901 0
M  V30 839 C 78.4073 -2.2246 -6.45756 0
M  V30 840 O 78.0953 -3.18054 -7.38307 0
M  V30 841 H 77.8273 0.0622636 -0.673126 0
M  V30 842 H 80.3813 -0.465792 -2.00049 0
M  V30 843 H 78.6113 1.58118 -3.52896 0
M  V30 844 H 80.3003 1.30467 -3.84361 0
M  V30 845 H 81.0663 -1.00991 -4.74369 0
M  V30 846 H 76.9453 0.20847 -4.60528 0
M  V30 847 H 80.4893 -2.72791 -6.42052 0
M  V30 848 H 76.3863 -1.50152 -6.27794 0
M  V30 849 H 77.1543 -3.13275 -7.56175 0
M  V30 850 N 79.8174 1.5752 -0.0501392 0
M  V30 851 C 81.0664 1.91827 0.623328 0
M  V30 852 C 81.3794 0.930222 1.72065 0
M  V30 853 O 82.5854 1.1653 2.4522 0
M  V30 854 C 81.0414 3.40692 1.16003 0
M  V30 855 C 80.6494 4.479 0.0948811 0
M  V30 856 C 82.3934 3.84034 1.80881 0
M  V30 857 C 80.3004 5.87879 0.644411 0
M  V30 858 H 79.2304 0.715918 0.236596 0
M  V30 859 H 81.8814 1.83115 -0.118861 0
M  V30 860 H 80.2634 3.44405 1.9545 0
M  V30 861 H 81.4374 4.55775 -0.678675 0
M  V30 862 H 79.7524 4.13892 -0.45637 0
M  V30 863 H 82.3494 4.85984 2.22988 0
M  V30 864 H 82.6924 3.20225 2.6601 0
M  V30 865 H 83.2254 3.82833 1.0809 0
M  V30 866 H 79.9644 6.55282 -0.169229 0
M  V30 867 H 79.4844 5.83567 1.38598 0
M  V30 868 H 81.1634 6.37098 1.12763 0
M  V30 869 N 81.2955 -0.223234 1.56011 0
M  V30 870 C 82.5205 -0.968978 1.83373 0
M  V30 871 C 82.9455 -1.77227 0.630254 0
M  V30 872 O 82.3035 -1.76345 -0.420959 0
M  V30 873 C 82.3515 -1.86363 3.08709 0
M  V30 874 O 81.4555 -2.95873 2.87285 0
M  V30 875 H 80.7965 -0.274461 0.604622 0
M  V30 876 H 83.3265 -0.237056 2.03222 0
M  V30 877 H 83.3365 -2.27376 3.38768 0
M  V30 878 H 82.0115 -1.27319 3.95933 0
M  V30 879 H 80.5885 -2.58818 2.68454 0
M  V30 880 N 82.7736 -1.49793 -0.48987 0
M  V30 881 C 83.7206 -1.67281 -1.59014 0
M  V30 882 C 84.6906 -0.514177 -1.57941 0
M  V30 883 O 85.8756 -0.742533 -1.75759 0
M  V30 884 C 83.0156 -1.75569 -2.97102 0
M  V30 885 C 82.1286 -3.0281 -3.08107 0
M  V30 886 C 81.2636 -3.02008 -4.36995 0
M  V30 887 C 80.3026 -4.23782 -4.41673 0
M  V30 888 N 79.4396 -4.20826 -5.62005 0
M  V30 889 H 84.2796 -2.61224 -1.43409 0
M  V30 890 H 81.8166 -1.29508 -0.697565 0
M  V30 891 H 83.7746 -1.78354 -3.77155 0
M  V30 892 H 82.4046 -0.850827 -3.11385 0
M  V30 893 H 81.4566 -3.09584 -2.21047 0
M  V30 894 H 82.7686 -3.92801 -3.07423 0
M  V30 895 H 81.9226 -3.03418 -5.25378 0
M  V30 896 H 80.6616 -2.09815 -4.4026 0
M  V30 897 H 79.6666 -4.22604 -3.5169 0
M  V30 898 H 80.8916 -5.17181 -4.40115 0
M  V30 899 H 78.8376 -3.31476 -5.66091 0
M  V30 900 H 78.7546 -5.04564 -5.62984 0
M  V30 901 H 80.0226 -4.26355 -6.52565 0
M  V30 902 N 84.2517 0.741722 -1.39055 0
M  V30 903 C 85.1987 1.85566 -1.37237 0
M  V30 904 C 86.1687 1.64457 -0.233072 0
M  V30 905 O 87.3537 1.85957 -0.427147 0
M  V30 906 C 84.4937 3.23004 -1.215 0
M  V30 907 C 83.6067 3.55864 -2.44918 0
M  V30 908 C 82.7417 4.82669 -2.21821 0
M  V30 909 C 81.7807 5.08351 -3.40948 0
M  V30 910 N 80.9177 6.26356 -3.17211 0
M  V30 911 H 85.7577 1.86455 -2.32462 0
M  V30 912 H 83.2947 0.911176 -1.15482 0
M  V30 913 H 85.2527 4.02331 -1.10389 0
M  V30 914 H 83.8827 3.21411 -0.29908 0
M  V30 915 H 82.9347 2.7129 -2.66657 0
M  V30 916 H 84.2467 3.70765 -3.33668 0
M  V30 917 H 83.4007 5.69962 -2.07914 0
M  V30 918 H 82.1397 4.69929 -1.30454 0
M  V30 919 H 81.1447 4.19522 -3.55361 0
M  V30 920 H 82.3697 5.22981 -4.33207 0
M  V30 921 H 80.3157 6.14917 -2.28502 0
M  V30 922 H 80.2327 6.41813 -3.99515 0
M  V30 923 H 81.5007 7.16506 -3.06984 0
M  V30 924 N 85.7298 1.2412 0.971189 0
M  V30 925 C 86.6598 1.05508 2.08304 0
M  V30 926 C 87.6408 -0.0308864 1.70072 0
M  V30 927 O 88.8258 0.135521 1.93727 0
M  V30 928 C 85.9558 0.655365 3.4106 0
M  V30 929 C 84.9098 1.68971 3.93234 0
M  V30 930 C 84.2358 1.14516 5.22293 0
M  V30 931 C 85.5358 3.08487 4.21465 0
M  V30 932 H 87.2298 1.98507 2.24132 0
M  V30 933 H 84.7758 0.955821 1.07704 0
M  V30 934 H 86.7288 0.51217 4.18276 0
M  V30 935 H 85.4528 -0.31032 3.25122 0
M  V30 936 H 84.1118 1.82106 3.18171 0
M  V30 937 H 83.7598 0.170189 5.02712 0
M  V30 938 H 83.4598 1.83635 5.58168 0
M  V30 939 H 84.9838 1.01401 6.02121 0
M  V30 940 H 86.3978 2.98601 4.89398 0
M  V30 941 H 84.7948 3.74926 4.68562 0
M  V30 942 H 85.8648 3.56787 3.28376 0
M  V30 943 N 87.2079 -1.17134 1.05439 0
M  V30 944 C 88.4359 -1.91372 0.786414 0
M  V30 945 C 88.8509 -1.76955 -0.658202 0
M  V30 946 O 88.2079 -1.10838 -1.44987 0
M  V30 947 C 88.2589 -3.42356 1.1608 0
M  V30 948 O 87.9799 -3.56332 2.54871 0
M  V30 949 C 89.4809 -4.33663 0.919322 0
M  V30 950 H 86.7009 -0.607118 0.285743 0
M  V30 951 H 89.2449 -1.48525 1.40572 0
M  V30 952 H 87.3999 -3.82939 0.586191 0
M  V30 953 H 87.8139 -4.49896 2.69618 0
M  V30 954 H 89.2879 -5.38099 1.231 0
M  V30 955 H 89.7649 -4.38959 -0.145359 0
M  V30 956 H 90.3709 -3.98796 1.47789 0
M  V30 957 N 88.686 -0.835752 -1.33615 0
M  V30 958 C 90.102 -0.523139 -1.50783 0
M  V30 959 C 90.302 0.950171 -1.77691 0
M  V30 960 O 89.358 1.73411 -1.83534 0
M  V30 961 C 90.671 -1.39378 -2.66448 0
M  V30 962 C 92.219 -1.39223 -2.80332 0
M  V30 963 C 92.694 -2.24765 -3.99055 0
M  V30 964 N 94.185 -2.22458 -4.06284 0
M  V30 965 C 94.92 -2.85386 -4.97336 0
M  V30 966 N 94.416 -3.57354 -5.93523 0
M  V30 967 N 96.209 -2.74872 -4.90308 0
M  V30 968 H 88.36 -1.78952 -1.14411 0
M  V30 969 H 90.623 -0.763297 -0.562212 0
M  V30 970 H 90.329 -2.44061 -2.53234 0
M  V30 971 H 90.203 -1.0676 -3.61776 0
M  V30 972 H 92.59 -0.353136 -2.92979 0
M  V30 973 H 92.671 -1.75846 -1.85773 0
M  V30 974 H 92.315 -3.28732 -3.87167 0
M  V30 975 H 92.245 -1.85485 -4.92852 0
M  V30 976 H 94.736 -1.70119 -3.37443 0
M  V30 977 H 95.049 -4.02584 -6.59656 0
M  V30 978 H 93.394 -3.61461 -5.93608 0
M  V30 979 H 96.585 -2.18213 -4.14126 0
M  V30 980 H 96.758 -3.24199 -5.61069 0
M  V30 981 N 90.1641 1.46063 -0.591896 0
M  V30 982 C 91.3941 2.06418 -0.0867676 0
M  V30 983 C 91.8021 1.43975 1.22751 0
M  V30 984 O 91.1451 0.542531 1.75506 0
M  V30 985 C 91.2071 3.59213 0.143725 0
M  V30 986 C 90.8711 4.439 -1.08635 0
M  V30 987 C 91.8681 4.79864 -2.00067 0
M  V30 988 C 89.5531 4.84896 -1.31077 0
M  V30 989 C 91.5471 5.55661 -3.12282 0
M  V30 990 C 89.2341 5.6045 -2.43596 0
M  V30 991 C 90.2321 5.95747 -3.34027 0
M  V30 992 O 89.9201 6.69772 -4.4459 0
M  V30 993 H 89.6521 0.673443 -0.0587447 0
M  V30 994 H 92.2061 1.88539 -0.814994 0
M  V30 995 H 90.4361 3.75433 0.926668 0
M  V30 996 H 92.1251 4.01463 0.5985 0
M  V30 997 H 92.8911 4.48763 -1.83947 0
M  V30 998 H 88.7701 4.56867 -0.61594 0
M  V30 999 H 92.3141 5.8313 -3.82891 0
M  V30 1000 H 88.2111 5.90965 -2.59674 0
M  V30 1001 H 88.9791 6.88207 -4.43073 0
M  V30 1002 N 91.6422 0.330177 1.54103 0
M  V30 1003 C 92.5722 -0.525353 2.27513 0
M  V30 1004 C 93.5532 -1.11383 1.2856 0
M  V30 1005 O 94.7382 -1.13773 1.57383 0
M  V30 1006 C 91.8682 -1.6831 3.03791 0
M  V30 1007 C 90.8222 -1.2236 4.10137 0
M  V30 1008 C 90.1482 -2.46882 4.74293 0
M  V30 1009 C 91.4482 -0.333697 5.21233 0
M  V30 1010 H 93.1422 0.087013 2.99274 0
M  V30 1011 H 90.6882 0.0432893 1.43935 0
M  V30 1012 H 92.6412 -2.28795 3.5388 0
M  V30 1013 H 91.3652 -2.32216 2.29659 0
M  V30 1014 H 90.0242 -0.64165 3.60941 0
M  V30 1015 H 89.6722 -3.09165 3.96769 0
M  V30 1016 H 89.3722 -2.16825 5.46133 0
M  V30 1017 H 90.8962 -3.08117 5.27159 0
M  V30 1018 H 92.3102 -0.845013 5.67038 0
M  V30 1019 H 90.7072 -0.125612 5.99969 0
M  V30 1020 H 91.7772 0.633724 4.80741 0
M  V30 1021 N 93.1203 -1.57491 0.0584922 0
M  V30 1022 C 94.0683 -2.13148 -0.931168 0
M  V30 1023 C 95.0623 -1.06507 -1.31729 0
M  V30 1024 O 96.2683 -1.24906 -1.29609 0
M  V30 1025 H 92.6433 -0.68137 -0.31818 0
M  V30 1026 H 94.6143 -2.95187 -0.436707 0
M  V30 1027 C 93.3633 -2.69732 -2.19408 0
M  V30 1028 H 92.6863 -3.51454 -1.90578 0
M  V30 1029 H 94.1263 -3.12287 -2.86798 0
M  V30 1030 C 92.5853 -1.63855 -2.94369 0
M  V30 1031 O 93.1153 -1.05565 -3.87581 0
M  V30 1032 N 91.3213 -1.35202 -2.57233 0
M  V30 1033 H 90.8683 -1.82791 -1.81508 0
M  V30 1034 H 90.8263 -0.645922 -3.07693 0
M  V30 1035 N 94.5984 0.214957 -1.56127 0
M  V30 1036 C 95.8444 0.935325 -1.80619 0
M  V30 1037 C 96.1994 1.81706 -0.632507 0
M  V30 1038 O 95.4924 1.87931 0.373182 0
M  V30 1039 C 95.6864 1.80314 -3.0858 0
M  V30 1040 C 95.5154 1.00691 -4.38282 0
M  V30 1041 C 94.2854 0.699211 -5.00439 0
M  V30 1042 C 96.4834 0.369057 -5.12974 0
M  V30 1043 N 94.4654 -0.117734 -6.13787 0
M  V30 1044 C 95.8364 -0.310981 -6.1922 0
M  V30 1045 C 97.8914 0.282759 -4.97096 0
M  V30 1046 C 96.5944 -1.06907 -7.11311 0
M  V30 1047 C 98.6204 -0.461881 -5.89594 0
M  V30 1048 C 97.9824 -1.13044 -6.9527 0
M  V30 1049 H 94.0814 0.322307 -0.71249 0
M  V30 1050 H 96.6654 0.205649 -1.93611 0
M  V30 1051 H 94.8364 2.50458 -2.96859 0
M  V30 1052 H 96.5684 2.46148 -3.21237 0
M  V30 1053 H 93.3234 1.01884 -4.62511 0
M  V30 1054 H 93.7474 -0.515235 -6.75037 0
M  V30 1055 H 98.3894 0.785292 -4.15443 0
M  V30 1056 H 96.1074 -1.5831 -7.92442 0
M  V30 1057 H 99.6934 -0.529746 -5.79383 0
M  V30 1058 H 98.5734 -1.69742 -7.65609 0
M  V30 1059 N 96.0765 1.50051 0.48192 0
M  V30 1060 C 97.3255 1.59741 1.23149 0
M  V30 1061 C 97.6385 0.298163 1.93314 0
M  V30 1062 O 98.8445 0.273835 2.70116 0
M  V30 1063 C 97.3005 2.81926 2.23708 0
M  V30 1064 C 96.9085 4.18685 1.59396 0
M  V30 1065 C 98.6525 3.00956 2.99375 0
M  V30 1066 C 96.5595 5.3207 2.58178 0
M  V30 1067 H 95.4895 0.594838 0.46334 0
M  V30 1068 H 98.1405 1.76467 0.503169 0
M  V30 1069 H 96.5225 2.58736 2.99786 0
M  V30 1070 H 97.6965 4.52088 0.891811 0
M  V30 1071 H 96.0115 4.05171 0.960503 0
M  V30 1072 H 98.6085 3.82836 3.73283 0
M  V30 1073 H 98.9515 2.12258 3.58123 0
M  V30 1074 H 99.4845 3.24277 2.30411 0
M  V30 1075 H 96.2235 6.22888 2.04184 0
M  V30 1076 H 95.7435 5.03098 3.26577 0
M  V30 1077 H 97.4225 5.62196 3.20225 0
M  V30 1078 N 97.5546 -0.734337 1.39446 0
M  V30 1079 C 98.8026 -1.49096 1.36436 0
M  V30 1080 C 99.1236 -1.94961 -0.0388255 0
M  V30 1081 O 98.3936 -1.69033 -0.990191 0
M  V30 1082 H 96.9736 -0.5531 0.502085 0
M  V30 1083 H 99.6356 -0.871725 1.74319 0
M  V30 1084 H 98.7316 -2.37276 2.02747 0
M  V30 1085 N 99.0327 -1.24633 -0.964593 0
M  V30 1086 C 100.279 -1.08949 -1.71049 0
M  V30 1087 C 100.612 0.370302 -1.90637 0
M  V30 1088 O 99.8867 1.27349 -1.47011 0
M  V30 1089 C 100.17 -1.83329 -3.0994 0
M  V30 1090 C 100.023 -3.37077 -2.97824 0
M  V30 1091 C 101.342 -1.60846 -4.09654 0
M  V30 1092 H 98.4607 -0.397178 -0.620821 0
M  V30 1093 H 101.103 -1.5334 -1.12191 0
M  V30 1094 H 99.2527 -1.45597 -3.60186 0
M  V30 1095 H 100.925 -3.84425 -2.5498 0
M  V30 1096 H 99.1677 -3.65298 -2.33965 0
M  V30 1097 H 99.8387 -3.84324 -3.96231 0
M  V30 1098 H 102.315 -1.93674 -3.68279 0
M  V30 1099 H 101.191 -2.1534 -5.04896 0
M  V30 1100 H 101.452 -0.547434 -4.38698 0
M  V30 1101 N 100.511 1.16574 -1.06058 0
M  V30 1102 C 101.922 1.68662 -0.800632 0
M  V30 1103 C 102.273 1.84184 0.67608 0
M  V30 1104 O 101.398 1.53568 1.52466 0
M  V30 1105 C 101.993 3.06356 -1.44676 0
M  V30 1106 C 100.552 3.55575 -1.23465 0
M  V30 1107 C 99.6988 2.31616 -1.52477 0
M  V30 1108 H 102.65 1.00969 -1.22438 0
M  V30 1109 H 102.671 3.70636 -0.860788 0
M  V30 1110 H 102.183 2.95027 -2.52152 0
M  V30 1111 H 100.284 3.72167 -0.179527 0
M  V30 1112 H 100.397 4.37812 -1.94571 0
M  V30 1113 H 98.7608 2.36512 -0.945209 0
M  V30 1114 H 99.5438 2.22887 -2.61106 0
M  V30 1115 N 101.989 0.842826 1.3317 0
M  V30 1116 C 103.217 0.454055 2.01856 0
M  V30 1117 C 103.632 -0.94587 1.63397 0
M  V30 1118 O 102.989 -1.61534 0.849302 0
M  V30 1119 C 103.04 0.569715 3.56982 0
M  V30 1120 O 102.761 1.91448 3.94055 0
M  V30 1121 C 104.262 0.178412 4.42941 0
M  V30 1122 H 101.482 0.17979 0.646465 0
M  V30 1123 H 104.026 1.1365 1.70012 0
M  V30 1124 H 102.181 -0.0648587 3.87346 0
M  V30 1125 H 102.595 1.90282 4.88767 0
M  V30 1126 H 104.069 0.310376 5.51127 0
M  V30 1127 H 104.546 -0.880056 4.30293 0
M  V30 1128 H 105.152 0.787579 4.17944 0
M  V30 1129 N 103.467 -1.45747 0.599634 0
M  V30 1130 C 104.883 -1.57424 0.26264 0
M  V30 1131 C 105.083 -1.59222 -1.23493 0
M  V30 1132 O 104.139 -1.51825 -2.01756 0
M  V30 1133 C 105.452 -2.86061 0.926795 0
M  V30 1134 C 107 -2.99722 0.901967 0
M  V30 1135 C 107.475 -4.31119 1.54598 0
M  V30 1136 N 108.966 -4.37858 1.5111 0
M  V30 1137 C 109.701 -5.3818 1.97863 0
M  V30 1138 N 109.197 -6.45083 2.52666 0
M  V30 1139 N 110.99 -5.29487 1.88679 0
M  V30 1140 H 103.141 -1.42823 1.57211 0
M  V30 1141 H 105.404 -0.68235 0.658105 0
M  V30 1142 H 105.11 -2.90605 1.98095 0
M  V30 1143 H 104.984 -3.74563 0.445238 0
M  V30 1144 H 107.371 -2.9475 -0.143617 0
M  V30 1145 H 107.452 -2.12652 1.42171 0
M  V30 1146 H 107.096 -4.36849 2.59085 0
M  V30 1147 H 107.026 -5.16992 1.00132 0
M  V30 1148 H 109.517 -3.61209 1.11068 0
M  V30 1149 H 109.83 -7.17869 2.86155 0
M  V30 1150 H 108.175 -6.45856 2.56701 0
M  V30 1151 H 111.366 -4.44877 1.4561 0
M  V30 1152 H 111.539 -6.07524 2.25429 0
M  V30 1153 N 104.945 -0.338344 -1.53925 0
M  V30 1154 C 105.855 0.529421 -2.28548 0
M  V30 1155 C 106.871 1.11645 -1.3346 0
M  V30 1156 O 108.047 1.13325 -1.66492 0
M  V30 1157 C 105.112 1.66713 -3.03987 0
M  V30 1158 C 104.173 1.11041 -4.14691 0
M  V30 1159 C 103.406 2.19389 -4.86522 0
M  V30 1160 O 103.629 3.40013 -4.57982 0
M  V30 1161 O 102.563 1.83976 -5.73094 0
M  V30 1162 H 106.389 -0.0770399 -3.03602 0
M  V30 1163 H 103.974 -0.103555 -1.49041 0
M  V30 1164 H 105.856 2.32918 -3.5118 0
M  V30 1165 H 104.531 2.25949 -2.31794 0
M  V30 1166 H 103.438 0.413024 -3.71813 0
M  V30 1167 H 104.771 0.562975 -4.8897 0
M  V30 1168 N 106.423 1.57458 -0.0668435 0
M  V30 1169 C 107.67 1.93301 0.603406 0
M  V30 1170 C 107.998 0.946486 1.69917 0
M  V30 1171 O 107.253 -0.0387021 1.95662 0
M  V30 1172 C 107.552 3.35784 1.22409 0
M  V30 1173 C 107.218 4.50179 0.254955 0
M  V30 1174 C 105.88 4.81199 -0.0116746 0
M  V30 1175 C 108.232 5.19598 -0.408338 0
M  V30 1176 C 105.56 5.78978 -0.94877 0
M  V30 1177 C 107.912 6.18381 -1.33372 0
M  V30 1178 C 106.576 6.47821 -1.60887 0
M  V30 1179 H 105.846 0.707338 0.220802 0
M  V30 1180 H 108.493 1.91012 -0.136665 0
M  V30 1181 H 106.798 3.34515 2.03978 0
M  V30 1182 H 108.495 3.60804 1.74989 0
M  V30 1183 H 105.085 4.25983 0.472954 0
M  V30 1184 H 109.269 4.95832 -0.215456 0
M  V30 1185 H 104.525 6.00115 -1.16925 0
M  V30 1186 H 108.699 6.71277 -1.85367 0
M  V30 1187 H 106.326 7.23399 -2.33661 0
M  V30 1188 N 107.901 -0.206675 1.56239 0
M  V30 1189 C 108.849 -1.27571 1.94495 0
M  V30 1190 C 109.843 -1.47737 0.828862 0
M  V30 1191 O 111.049 -1.48735 1.0138 0
M  V30 1192 H 107.424 -0.428029 0.6183 0
M  V30 1193 H 109.395 -0.925961 2.8367 0
M  V30 1194 C 108.144 -2.61568 2.29079 0
M  V30 1195 H 107.467 -2.46863 3.14482 0
M  V30 1196 H 108.907 -3.35144 2.5972 0
M  V30 1197 C 107.366 -3.17695 1.12123 0
M  V30 1198 O 107.896 -3.99801 0.390153 0
M  V30 1199 N 106.102 -2.76276 0.901097 0
M  V30 1200 H 105.649 -2.09613 1.49733 0
M  V30 1201 H 105.607 -3.1417 0.120319 0
M  V30 1202 N 109.379 -1.50304 -0.473955 0
M  V30 1203 C 110.625 -1.61389 -1.22806 0
M  V30 1204 C 110.958 -0.311955 -1.91678 0
M  V30 1205 O 110.233 0.686384 -1.81986 0
M  V30 1206 C 110.516 -2.79219 -2.27396 0
M  V30 1207 C 110.369 -4.19286 -1.62848 0
M  V30 1208 C 111.688 -2.92614 -3.28732 0
M  V30 1209 H 108.807 -0.587399 -0.445119 0
M  V30 1210 H 111.449 -1.82681 -0.522265 0
M  V30 1211 H 109.599 -2.61195 -2.87592 0
M  V30 1212 H 111.271 -4.48892 -1.06271 0
M  V30 1213 H 109.514 -4.23677 -0.931693 0
M  V30 1214 H 110.185 -4.97655 -2.38838 0
M  V30 1215 H 112.661 -3.09105 -2.78556 0
M  V30 1216 H 111.537 -3.76688 -3.99246 0
M  V30 1217 H 111.798 -2.03107 -3.92683 0
M  V30 1218 N 110.857 0.726932 -1.39834 0
M  V30 1219 C 112.105 1.4837 -1.37225 0
M  V30 1220 C 112.426 1.94979 0.0284857 0
M  V30 1221 O 111.696 1.69555 0.981213 0
M  V30 1222 H 110.276 0.55043 -0.505011 0
M  V30 1223 H 112.938 0.862468 -1.74778 0
M  V30 1224 H 112.034 2.36198 -2.04003 0
M  V30 1225 N 112.336 1.25143 0.95797 0
M  V30 1226 C 113.268 1.01023 2.05735 0
M  V30 1227 C 114.281 -0.0236902 1.62783 0
M  V30 1228 O 115.47 0.21448 1.77207 0
M  V30 1229 C 112.57 0.504595 3.35122 0
M  V30 1230 C 111.743 1.6039 4.06932 0
M  V30 1231 C 110.802 1.09922 5.14591 0
M  V30 1232 O 109.828 1.79293 5.40225 0
M  V30 1233 N 111.03 -0.0612545 5.80468 0
M  V30 1234 H 113.795 1.95683 2.26998 0
M  V30 1235 H 111.356 1.16303 1.12629 0
M  V30 1236 H 113.348 0.151516 4.04416 0
M  V30 1237 H 111.918 -0.347989 3.10657 0
M  V30 1238 H 111.138 2.12872 3.31782 0
M  V30 1239 H 112.426 2.34252 4.51667 0
M  V30 1240 H 111.824 -0.640985 5.62057 0
M  V30 1241 H 110.381 -0.355395 6.5083 0
M  V30 1242 N 113.814 -1.1601 1.06675 0
M  V30 1243 C 115.044 -1.90251 0.805497 0
M  V30 1244 C 115.452 -1.77891 -0.64431 0
M  V30 1245 O 114.795 -1.12383 -1.45313 0
M  V30 1246 C 114.857 -3.41419 1.12576 0
M  V30 1247 C 114.521 -3.77564 2.57477 0
M  V30 1248 C 115.518 -3.79161 3.55715 0
M  V30 1249 C 113.203 -4.08079 2.92877 0
M  V30 1250 C 115.197 -4.10767 4.8739 0
M  V30 1251 C 112.884 -4.39351 4.24751 0
M  V30 1252 C 113.882 -4.40675 5.21818 0
M  V30 1253 O 113.57 -4.71202 6.51325 0
M  V30 1254 H 113.302 -0.610018 0.291297 0
M  V30 1255 H 115.856 -1.47958 1.4247 0
M  V30 1256 H 114.086 -3.84079 0.449503 0
M  V30 1257 H 115.775 -3.9694 0.84814 0
M  V30 1258 H 116.541 -3.55693 3.29708 0
M  V30 1259 H 112.42 -4.06211 2.17976 0
M  V30 1260 H 115.964 -4.11715 5.63148 0
M  V30 1261 H 111.861 -4.62285 4.50514 0
M  V30 1262 H 112.629 -4.88996 6.56373 0
M  V30 1263 N 115.292 -0.849877 -1.32721 0
M  V30 1264 C 116.708 -0.539102 -1.50219 0
M  V30 1265 C 116.908 0.931271 -1.78689 0
M  V30 1266 O 115.964 1.71455 -1.85363 0
M  V30 1267 C 117.277 -1.42196 -2.64954 0
M  V30 1268 C 118.825 -1.42189 -2.78839 0
M  V30 1269 C 119.3 -2.28985 -3.96648 0
M  V30 1270 N 120.791 -2.26754 -4.03902 0
M  V30 1271 C 121.526 -2.90644 -4.94281 0
M  V30 1272 N 121.022 -3.63629 -5.897 0
M  V30 1273 N 122.815 -2.80057 -4.87365 0
M  V30 1274 H 114.966 -1.80156 -1.12506 0
M  V30 1275 H 117.229 -0.769217 -0.554085 0
M  V30 1276 H 116.935 -2.46733 -2.50631 0
M  V30 1277 H 116.809 -1.10591 -3.60624 0
M  V30 1278 H 119.196 -0.38419 -2.92588 0
M  V30 1279 H 119.277 -1.77807 -1.83898 0
M  V30 1280 H 118.921 -3.32819 -3.83658 0
M  V30 1281 H 118.851 -1.90702 -4.90857 0
M  V30 1282 H 121.342 -1.73688 -3.3562 0
M  V30 1283 H 121.655 -4.09558 -6.55349 0
M  V30 1284 H 120 -3.67737 -5.89741 0
M  V30 1285 H 123.191 -2.22593 -4.11789 0
M  V30 1286 H 123.364 -3.30132 -5.57599 0
M  V30 1287 N 116.77 1.45427 -0.607355 0
M  V30 1288 C 118.186 1.57283 -0.270985 0
M  V30 1289 C 118.386 1.59875 1.22647 0
M  V30 1290 O 117.442 1.52893 2.00948 0
M  V30 1291 C 118.755 2.85566 -0.941952 0
M  V30 1292 C 120.303 2.9924 -0.917849 0
M  V30 1293 C 120.778 4.30293 -1.56882 0
M  V30 1294 N 122.269 4.37051 -1.5343 0
M  V30 1295 C 123.004 5.37123 -2.00715 0
M  V30 1296 N 122.5 6.43734 -2.56084 0
M  V30 1297 N 124.293 5.28479 -1.91484 0
M  V30 1298 H 116.444 1.41988 -1.57966 0
M  V30 1299 H 118.707 0.67885 -0.661715 0
M  V30 1300 H 118.413 2.8955 -1.99633 0
M  V30 1301 H 118.287 3.74322 -0.465096 0
M  V30 1302 H 120.674 2.94822 0.127984 0
M  V30 1303 H 120.755 2.11895 -1.43297 0
M  V30 1304 H 120.399 4.35469 -2.61398 0
M  V30 1305 H 120.329 5.16454 -1.02873 0
M  V30 1306 H 122.82 3.60615 -1.12982 0
M  V30 1307 H 123.133 7.16341 -2.89958 0
M  V30 1308 H 121.478 6.44485 -2.60122 0
M  V30 1309 H 124.669 4.44098 -1.47967 0
M  V30 1310 H 124.842 6.0632 -2.28648 0
M  V30 1311 N 118.248 0.346503 1.53744 0
M  V30 1312 C 119.525 -0.304532 1.93215 0
M  V30 1313 C 119.905 -1.67993 1.27834 0
M  V30 1314 O 119.253 -2.24411 0.430352 0
M  V30 1315 C 119.463 -0.373852 3.46992 0
M  V30 1316 C 120.811 -0.62329 4.2 0
M  V30 1317 O 121.835 -0.455847 3.53271 0
M  V30 1318 O 120.694 -0.947879 5.38217 0
M  V30 1319 H 117.788 -0.178318 0.807547 0
M  V30 1320 H 120.334 0.397895 1.64969 0
M  V30 1321 H 119.106 0.591224 3.86808 0
M  V30 1322 H 118.729 -1.12294 3.81413 0
M  V30 1323 N 119.726 -1.57421 0.075193 0
M  V30 1324 C 120.972 -1.93905 -0.594025 0
M  V30 1325 C 121.305 -0.955701 -1.69056 0
M  V30 1326 O 120.58 0.0145373 -1.94495 0
M  V30 1327 C 120.863 -3.40638 -1.1678 0
M  V30 1328 C 120.716 -4.49733 -0.0776792 0
M  V30 1329 C 122.035 -3.88259 -2.07228 0
M  V30 1330 H 119.154 -0.705105 -0.214466 0
M  V30 1331 H 121.796 -1.8947 0.141854 0
M  V30 1332 H 119.946 -3.44549 -1.79494 0
M  V30 1333 H 121.618 -4.57942 0.555573 0
M  V30 1334 H 119.861 -4.29751 0.591286 0
M  V30 1335 H 120.532 -5.49549 -0.519603 0
M  V30 1336 H 123.008 -3.86376 -1.54445 0
M  V30 1337 H 121.884 -4.91533 -2.44308 0
M  V30 1338 H 122.145 -3.26396 -2.98191 0
M  V30 1339 N 121.204 0.198386 -1.56346 0
M  V30 1340 C 122.45 0.920648 -1.80698 0
M  V30 1341 C 122.783 1.83045 -0.648697 0
M  V30 1342 O 122.058 1.91308 0.350925 0
M  V30 1343 C 122.341 1.73971 -3.15287 0
M  V30 1344 C 122.194 0.85485 -4.41602 0
M  V30 1345 C 123.513 2.71296 -3.46535 0
M  V30 1346 H 120.632 0.333261 -0.657348 0
M  V30 1347 H 123.274 0.188198 -1.89066 0
M  V30 1348 H 121.424 2.36416 -3.08285 0
M  V30 1349 H 123.096 0.245362 -4.60647 0
M  V30 1350 H 121.339 0.161398 -4.335 0
M  V30 1351 H 122.01 1.46286 -5.32264 0
M  V30 1352 H 124.486 2.18983 -3.53816 0
M  V30 1353 H 123.362 3.2569 -4.41834 0
M  V30 1354 H 123.623 3.5018 -2.69864 0
M  V30 1355 N 122.682 1.50554 0.465978 0
M  V30 1356 C 123.629 1.6979 1.56333 0
M  V30 1357 C 124.599 0.539239 1.57103 0
M  V30 1358 O 125.784 0.770401 1.74555 0
M  V30 1359 C 122.924 1.80273 2.94271 0
M  V30 1360 C 122.037 3.07674 3.0325 0
M  V30 1361 C 121.172 3.08922 4.32135 0
M  V30 1362 C 120.211 4.30755 4.34875 0
M  V30 1363 N 119.348 4.29714 5.55239 0
M  V30 1364 H 124.188 2.63472 1.39235 0
M  V30 1365 H 121.725 1.30602 0.676873 0
M  V30 1366 H 123.683 1.84332 3.74269 0
M  V30 1367 H 122.313 0.900258 3.09992 0
M  V30 1368 H 121.365 3.13062 2.16094 0
M  V30 1369 H 122.677 3.97642 3.01135 0
M  V30 1370 H 121.831 3.11738 5.20485 0
M  V30 1371 H 120.57 2.16792 4.36866 0
M  V30 1372 H 119.575 4.28146 3.44922 0
M  V30 1373 H 120.8 5.24117 4.31831 0
M  V30 1374 H 118.746 3.4044 5.60746 0
M  V30 1375 H 118.663 5.13456 5.54886 0
M  V30 1376 H 119.931 4.36683 6.457 0
M  V30 1377 N 124.16 -0.719506 1.40217 0
M  V30 1378 C 125.388 -1.50864 1.41589 0
M  V30 1379 C 125.803 -1.88794 0.0145275 0
M  V30 1380 O 125.16 -1.55174 -0.960594 0
M  V30 1381 C 125.211 -2.78646 2.30302 0
M  V30 1382 O 124.932 -2.42321 3.64983 0
M  V30 1383 C 126.433 -3.72569 2.40224 0
M  V30 1384 H 123.653 -0.465709 0.48307 0
M  V30 1385 H 126.197 -0.88785 1.84221 0
M  V30 1386 H 124.352 -3.37019 1.91042 0
M  V30 1387 H 124.766 -3.24514 4.12057 0
M  V30 1388 H 126.24 -4.5908 3.06512 0
M  V30 1389 H 126.717 -4.15403 1.42608 0
M  V30 1390 H 127.323 -3.20109 2.80019 0
M  V30 1391 N 125.638 -1.25649 -0.95132 0
M  V30 1392 C 126.868 -1.13179 -1.72841 0
M  V30 1393 C 127.276 0.316827 -1.86528 0
M  V30 1394 O 126.619 1.22948 -1.3649 0
M  V30 1395 C 126.681 -1.71644 -3.15878 0
M  V30 1396 C 126.345 -3.20667 -3.25609 0
M  V30 1397 C 127.342 -4.17616 -3.09666 0
M  V30 1398 C 125.027 -3.6094 -3.49324 0
M  V30 1399 C 127.021 -5.52817 -3.17289 0
M  V30 1400 C 124.708 -4.96278 -3.56584 0
M  V30 1401 C 125.706 -5.92025 -3.40581 0
M  V30 1402 O 125.394 -7.24899 -3.47528 0
M  V30 1403 H 125.126 -0.395389 -0.54831 0
M  V30 1404 H 127.68 -1.66566 -1.20187 0
M  V30 1405 H 125.91 -1.12707 -3.69911 0
M  V30 1406 H 127.599 -1.54225 -3.75459 0
M  V30 1407 H 128.365 -3.87842 -2.91211 0
M  V30 1408 H 124.244 -2.86907 -3.6084 0
M  V30 1409 H 127.788 -6.2753 -3.04716 0
M  V30 1410 H 123.685 -5.25716 -3.74556 0
M  V30 1411 H 124.453 -7.33039 -3.64138 0
M  V30 1412 N 127.117 1.15442 -1.07289 0
M  V30 1413 C 128.064 2.20161 -0.692653 0
M  V30 1414 C 129.034 1.63073 0.31564 0
M  V30 1415 O 130.219 1.89725 0.202235 0
M  V30 1416 C 127.359 3.44967 -0.0959509 0
M  V30 1417 C 126.472 4.16256 -1.15564 0
M  V30 1418 C 125.607 5.28609 -0.524011 0
M  V30 1419 C 124.646 5.91715 -1.56653 0
M  V30 1420 N 123.783 6.9554 -0.957531 0
M  V30 1421 H 128.623 2.52037 -1.59002 0
M  V30 1422 H 126.16 1.2378 -0.794798 0
M  V30 1423 H 128.118 4.16341 0.267628 0
M  V30 1424 H 126.748 3.1361 0.764772 0
M  V30 1425 H 125.8 3.43385 -1.6368 0
M  V30 1426 H 127.112 4.59268 -1.94613 0
M  V30 1427 H 126.266 6.06604 -0.108032 0
M  V30 1428 H 125.005 4.86787 0.29825 0
M  V30 1429 H 124.01 5.12433 -1.9923 0
M  V30 1430 H 125.235 6.35614 -2.39107 0
M  V30 1431 H 123.181 6.55814 -0.156162 0
M  V30 1432 H 123.098 7.36977 -1.68526 0
M  V30 1433 H 124.366 7.77435 -0.567032 0
M  V30 1434 N 128.595 0.856903 1.32268 0
M  V30 1435 C 129.82 0.474569 2.01897 0
M  V30 1436 C 130.245 -0.921766 1.63967 0
M  V30 1437 O 129.603 -1.60589 0.84148 0
M  V30 1438 C 129.651 0.623799 3.55164 0
M  V30 1439 O 128.755 -0.342459 4.10976 0
M  V30 1440 H 128.096 0.190422 0.63611 0
M  V30 1441 H 130.626 1.15672 1.68764 0
M  V30 1442 H 130.636 0.512169 4.04773 0
M  V30 1443 H 129.311 1.64202 3.82113 0
M  V30 1444 H 127.888 -0.18688 3.72431 0
M  V30 1445 N 130.073 -1.45103 0.615059 0
M  V30 1446 C 131.32 -2.02183 0.113179 0
M  V30 1447 C 131.648 -1.48249 -1.25906 0
M  V30 1448 O 130.903 -0.650265 -1.84581 0
M  V30 1449 C 131.202 -3.57386 0.0318797 0
M  V30 1450 C 130.868 -4.30505 1.34077 0
M  V30 1451 C 129.53 -4.50197 1.69929 0
M  V30 1452 C 131.882 -4.72238 2.20546 0
M  V30 1453 C 129.21 -5.08881 2.91988 0
M  V30 1454 C 131.562 -5.32272 3.41861 0
M  V30 1455 C 130.226 -5.50187 3.77956 0
M  V30 1456 H 129.496 -0.739842 0.0414151 0
M  V30 1457 H 132.143 -1.74073 0.798168 0
M  V30 1458 H 130.448 -3.84817 -0.736409 0
M  V30 1459 H 132.145 -3.99264 -0.372712 0
M  V30 1460 H 128.735 -4.15496 1.05173 0
M  V30 1461 H 132.919 -4.56751 1.94146 0
M  V30 1462 H 128.175 -5.20939 3.2005 0
M  V30 1463 H 132.349 -5.63563 4.09109 0
M  V30 1464 H 129.976 -5.95427 4.72622 0
M  V30 1465 N 131.551 -0.354651 -1.53558 0
M  V30 1466 C 132.461 0.50515 -2.29097 0
M  V30 1467 C 133.477 1.10223 -1.34636 0
M  V30 1468 O 134.653 1.11553 -1.67684 0
M  V30 1469 C 131.718 1.63479 -3.05738 0
M  V30 1470 C 130.779 1.06636 -4.15845 0
M  V30 1471 C 130.012 2.14217 -4.88822 0
M  V30 1472 O 130.235 3.35137 -4.61562 0
M  V30 1473 O 129.169 1.77887 -5.75013 0
M  V30 1474 H 132.995 -0.109237 -3.03503 0
M  V30 1475 H 130.58 -0.119357 -1.48922 0
M  V30 1476 H 132.462 2.2918 -3.5363 0
M  V30 1477 H 131.137 2.23478 -2.34178 0
M  V30 1478 H 130.044 0.373565 -3.7223 0
M  V30 1479 H 131.377 0.511081 -4.89539 0
M  V30 1480 N 133.029 1.57378 -0.0835403 0
M  V30 1481 C 134.276 1.9393 0.58287 0
M  V30 1482 C 134.604 0.964455 1.68904 0
M  V30 1483 O 133.859 -0.0179474 1.95692 0
M  V30 1484 C 134.158 3.37063 1.1884 0
M  V30 1485 C 133.824 4.50424 0.207194 0
M  V30 1486 C 132.486 4.81159 -0.0627115 0
M  V30 1487 C 134.838 5.19136 -0.463426 0
M  V30 1488 C 132.166 5.77939 -1.01012 0
M  V30 1489 C 134.518 6.16931 -1.39924 0
M  V30 1490 C 133.182 6.46078 -1.67749 0
M  V30 1491 H 132.452 0.70964 0.213287 0
M  V30 1492 H 135.099 1.90856 -0.156916 0
M  V30 1493 H 133.404 3.3666 2.00418 0
M  V30 1494 H 135.101 3.6264 1.71153 0
M  V30 1495 H 131.691 4.2646 0.427747 0
M  V30 1496 H 135.875 4.95576 -0.268034 0
M  V30 1497 H 131.131 5.98842 -1.23283 0
M  V30 1498 H 135.305 6.69273 -1.92476 0
M  V30 1499 H 132.932 7.2088 -2.41321 0
M  V30 1500 N 134.507 -0.190092 1.56449 0
M  V30 1501 C 135.754 -0.909705 1.80916 0
M  V30 1502 C 136.082 -1.83047 0.657583 0
M  V30 1503 O 135.337 -1.92428 -0.356356 0
M  V30 1504 C 135.636 -1.75382 3.1141 0
M  V30 1505 C 135.302 -0.983606 4.40041 0
M  V30 1506 C 133.964 -0.770967 4.74984 0
M  V30 1507 C 136.316 -0.442024 5.19322 0
M  V30 1508 C 133.644 -0.0053448 5.867 0
M  V30 1509 C 135.996 0.310412 6.31838 0
M  V30 1510 C 134.66 0.534023 6.6536 0
M  V30 1511 H 133.93 -0.332885 0.662019 0
M  V30 1512 H 136.577 -0.175762 1.90692 0
M  V30 1513 H 134.882 -2.55659 2.96893 0
M  V30 1514 H 136.579 -2.31331 3.27547 0
M  V30 1515 H 133.169 -1.15936 4.12622 0
M  V30 1516 H 137.353 -0.593693 4.92736 0
M  V30 1517 H 132.609 0.177825 6.11141 0
M  V30 1518 H 136.783 0.737419 6.92485 0
M  V30 1519 H 134.41 1.12918 7.51767 0
M  V30 1520 N 135.985 -1.50799 -0.457987 0
M  V30 1521 C 136.915 -1.73553 -1.5621 0
M  V30 1522 C 137.896 -0.584774 -1.59732 0
M  V30 1523 O 139.081 -0.825314 -1.7579 0
M  V30 1524 C 136.211 -1.84169 -2.94447 0
M  V30 1525 C 135.165 -2.99461 -3.0579 0
M  V30 1526 C 134.491 -2.95235 -4.45803 0
M  V30 1527 C 135.791 -4.39766 -2.81786 0
M  V30 1528 H 137.485 -2.66 -1.37421 0
M  V30 1529 H 135.031 -1.28002 -0.659662 0
M  V30 1530 H 136.984 -1.98672 -3.71628 0
M  V30 1531 H 135.708 -0.883545 -3.14422 0
M  V30 1532 H 134.367 -2.8463 -2.31044 0
M  V30 1533 H 134.015 -1.97239 -4.62715 0
M  V30 1534 H 133.715 -3.72642 -4.54326 0
M  V30 1535 H 135.239 -3.11803 -5.24987 0
M  V30 1536 H 136.653 -4.55054 -3.4871 0
M  V30 1537 H 135.05 -5.18722 -3.0174 0
M  V30 1538 H 136.12 -4.51229 -1.7754 0
M  V30 1539 N 137.463 0.71206 -1.40597 0
M  V30 1540 C 138.874 1.29135 -1.34837 0
M  V30 1541 C 139.225 1.96186 -0.0235395 0
M  V30 1542 O 138.35 1.97768 0.878444 0
M  V30 1543 C 138.945 2.34827 -2.44217 0
M  V30 1544 C 137.504 2.88371 -2.41907 0
M  V30 1545 C 136.651 1.62202 -2.24913 0
M  V30 1546 H 139.602 0.507944 -1.50352 0
M  V30 1547 H 139.623 3.15749 -2.12327 0
M  V30 1548 H 139.135 1.85996 -3.40627 0
M  V30 1549 H 137.236 3.41422 -1.49204 0
M  V30 1550 H 137.349 3.39925 -3.37621 0
M  V30 1551 H 135.713 1.874 -1.72492 0
M  V30 1552 H 136.496 1.15391 -3.23326 0
M  V30 1553 N 138.941 1.26152 0.944643 0
M  V30 1554 C 140.218 1.02247 1.66748 0
M  V30 1555 C 140.598 -0.448202 2.06287 0
M  V30 1556 O 139.946 -1.42779 1.78399 0
M  V30 1557 C 140.156 1.96788 2.88228 0
M  V30 1558 C 141.504 2.25201 3.59958 0
M  V30 1559 O 142.528 1.94626 2.98327 0
M  V30 1560 O 141.387 2.77242 4.70956 0
M  V30 1561 H 138.481 0.388517 0.730057 0
M  V30 1562 H 141.027 1.37348 0.99668 0
M  V30 1563 H 139.799 2.96047 2.55875 0
M  V30 1564 H 139.422 1.62145 3.63035 0
M  V30 1565 N 140.419 -1.14872 1.07899 0
M  V30 1566 C 141.367 -2.21857 0.698727 0
M  V30 1567 C 142.361 -1.66845 -0.293086 0
M  V30 1568 O 143.567 -1.79321 -0.156204 0
M  V30 1569 H 139.942 -0.722691 0.207899 0
M  V30 1570 H 141.913 -2.51205 1.61054 0
M  V30 1571 C 140.662 -3.47498 0.11858 0
M  V30 1572 H 139.985 -3.90154 0.872914 0
M  V30 1573 H 141.425 -4.23858 -0.109759 0
M  V30 1574 C 139.884 -3.16947 -1.1422 0
M  V30 1575 O 140.414 -3.3426 -2.22785 0
M  V30 1576 N 138.62 -2.70946 -1.05055 0
M  V30 1577 H 138.167 -2.57058 -0.167038 0
M  V30 1578 H 138.125 -2.50879 -1.89491 0
M  V30 1579 N 141.898 -0.863906 -1.31812 0
M  V30 1580 C 142.808 -0.318461 -2.32428 0
M  V30 1581 C 143.824 0.568496 -1.64451 0
M  V30 1582 O 145 0.46666 -1.95919 0
M  V30 1583 C 142.065 0.476355 -3.43412 0
M  V30 1584 C 141.126 -0.43784 -4.27061 0
M  V30 1585 C 140.359 0.319138 -5.32745 0
M  V30 1586 O 140.582 1.54799 -5.48993 0
M  V30 1587 O 139.516 -0.319861 -6.01049 0
M  V30 1588 H 143.342 -1.15229 -2.80991 0
M  V30 1589 H 140.927 -0.627103 -1.35602 0
M  V30 1590 H 142.809 0.927156 -4.11074 0
M  V30 1591 H 141.484 1.28683 -2.97022 0
M  V30 1592 H 140.391 -0.937013 -3.62175 0
M  V30 1593 H 141.724 -1.21375 -4.77 0
M  V30 1594 N 143.376 1.44774 -0.622745 0
M  V30 1595 C 144.286 2.34433 0.0886031 0
M  V30 1596 C 145.302 1.52131 0.844529 0
M  V30 1597 O 146.478 1.84886 0.798691 0
M  V30 1598 C 143.543 3.29986 1.0635 0
M  V30 1599 C 142.604 4.28195 0.307873 0
M  V30 1600 C 141.837 5.19183 1.23633 0
M  V30 1601 O 142.06 5.13918 2.47476 0
M  V30 1602 O 140.994 5.97515 0.725189 0
M  V30 1603 H 144.82 2.96693 -0.648599 0
M  V30 1604 H 142.405 1.44408 -0.382957 0
M  V30 1605 H 144.287 3.88825 1.6246 0
M  V30 1606 H 142.962 2.70269 1.78146 0
M  V30 1607 H 141.869 3.72927 -0.296064 0
M  V30 1608 H 143.202 4.90808 -0.3699 0
M  V30 1609 N 144.854 0.36279 1.53368 0
M  V30 1610 C 146.102 -0.227326 2.00817 0
M  V30 1611 C 146.423 -1.49511 1.25186 0
M  V30 1612 O 145.693 -1.92482 0.364348 0
M  V30 1613 H 144.273 -0.0869923 0.741917 0
M  V30 1614 H 146.935 0.488381 1.88682 0
M  V30 1615 H 146.031 -0.456273 3.08747 0
M  V30 1616 N 146.332 -1.57332 0.0918853 0
M  V30 1617 C 147.262 -2.16872 -0.865371 0
M  V30 1618 C 148.243 -1.10118 -1.29646 0
M  V30 1619 O 149.428 -1.38242 -1.36392 0
M  V30 1620 C 146.558 -2.74649 -2.12569 0
M  V30 1621 C 145.512 -3.86747 -1.83333 0
M  V30 1622 C 144.838 -4.31212 -3.16166 0
M  V30 1623 C 146.138 -5.10089 -1.1228 0
M  V30 1624 H 147.832 -2.97114 -0.369307 0
M  V30 1625 H 145.378 -1.42918 -0.176194 0
M  V30 1626 H 147.331 -3.14952 -2.7997 0
M  V30 1627 H 146.055 -1.91657 -2.64452 0
M  V30 1628 H 144.714 -3.46978 -1.18331 0
M  V30 1629 H 144.362 -3.45115 -3.6593 0
M  V30 1630 H 144.062 -5.06788 -2.97388 0
M  V30 1631 H 145.586 -4.74146 -3.84731 0
M  V30 1632 H 147 -5.47582 -1.69785 0
M  V30 1633 H 145.397 -5.91073 -1.03693 0
M  V30 1634 H 146.467 -4.84786 -0.105041 0
M  V30 1635 N 147.81 0.181792 -1.56548 0
M  V30 1636 C 148.757 1.22521 -1.95595 0
M  V30 1637 C 149.727 1.4454 -0.818373 0
M  V30 1638 O 150.912 1.57454 -1.07763 0
M  V30 1639 C 148.052 2.56193 -2.31212 0
M  V30 1640 C 147.165 2.41641 -3.58097 0
M  V30 1641 C 146.3 3.68108 -3.82975 0
M  V30 1642 C 145.339 3.48445 -5.03242 0
M  V30 1643 N 144.476 4.66956 -5.24306 0
M  V30 1644 H 149.316 0.885226 -2.84548 0
M  V30 1645 H 146.853 0.425718 -1.40805 0
M  V30 1646 H 148.811 3.34088 -2.49882 0
M  V30 1647 H 147.441 2.88208 -1.45382 0
M  V30 1648 H 146.493 1.54976 -3.474 0
M  V30 1649 H 147.805 2.23052 -4.46149 0
M  V30 1650 H 146.959 4.54441 -4.01956 0
M  V30 1651 H 145.698 3.89666 -2.93278 0
M  V30 1652 H 144.703 2.60499 -4.8417 0
M  V30 1653 H 145.928 3.2832 -5.9446 0
M  V30 1654 H 143.874 4.88752 -4.37559 0
M  V30 1655 H 143.791 4.51242 -6.06561 0
M  V30 1656 H 145.059 5.54602 -5.47756 0
M  V30 1657 N 149.288 1.51039 0.449983 0
M  V30 1658 C 150.537 1.62317 1.19733 0
M  V30 1659 C 150.85 0.339101 1.92638 0
M  V30 1660 O 152.056 0.331069 2.69474 0
M  V30 1661 C 150.512 2.86608 2.17678 0
M  V30 1662 C 150.12 4.21972 1.50479 0
M  V30 1663 C 151.864 3.07239 2.92924 0
M  V30 1664 C 149.771 5.37426 2.46834 0
M  V30 1665 H 148.701 0.604532 0.450619 0
M  V30 1666 H 151.352 1.77494 0.465625 0
M  V30 1667 H 149.734 2.65037 2.94231 0
M  V30 1668 H 150.908 4.53878 0.795716 0
M  V30 1669 H 149.223 4.07117 0.874344 0
M  V30 1670 H 151.82 3.90668 3.65079 0
M  V30 1671 H 152.163 2.19807 3.5354 0
M  V30 1672 H 152.696 3.29091 2.23481 0
M  V30 1673 H 149.435 6.27079 1.90926 0
M  V30 1674 H 148.955 5.09912 3.15832 0
M  V30 1675 H 150.634 5.68862 3.08228 0
M  V30 1676 N 150.766 -0.704594 1.40972 0
M  V30 1677 C 152.182 -1.01406 1.23244 0
M  V30 1678 C 152.382 -2.01169 0.115399 0
M  V30 1679 O 151.438 -2.47021 -0.523147 0
M  V30 1680 C 152.751 -1.54728 2.57836 0
M  V30 1681 C 154.299 -1.66658 2.64942 0
M  V30 1682 C 154.774 -2.23383 3.9983 0
M  V30 1683 N 156.265 -2.30756 4.01629 0
M  V30 1684 C 157 -2.75655 5.02794 0
M  V30 1685 N 156.496 -3.20225 6.14352 0
M  V30 1686 N 158.289 -2.75138 4.90159 0
M  V30 1687 H 150.44 -0.0435285 2.12355 0
M  V30 1688 H 152.703 -0.0818951 0.944456 0
M  V30 1689 H 152.409 -0.888832 3.40283 0
M  V30 1690 H 152.283 -2.53084 2.79693 0
M  V30 1691 H 154.67 -2.31617 1.8286 0
M  V30 1692 H 154.751 -0.668717 2.46904 0
M  V30 1693 H 154.395 -1.59043 4.82357 0
M  V30 1694 H 154.325 -3.23904 4.15203 0
M  V30 1695 H 156.816 -1.99291 3.21079 0
M  V30 1696 H 157.129 -3.53084 6.87424 0
M  V30 1697 H 155.474 -3.18156 6.17901 0
M  V30 1698 H 158.665 -2.39661 4.02095 0
M  V30 1699 H 158.838 -3.09812 5.6914 0
M  V30 1700 N 152.244 -1.26651 -0.937939 0
M  V30 1701 C 153.191 -1.0849 -2.03712 0
M  V30 1702 C 154.161 0.011033 -1.66096 0
M  V30 1703 O 155.346 -0.149353 -1.90215 0
M  V30 1704 C 152.486 -0.72735 -3.37348 0
M  V30 1705 C 151.599 -1.89986 -3.87981 0
M  V30 1706 C 150.734 -1.48513 -5.10017 0
M  V30 1707 C 149.773 -2.62575 -5.5292 0
M  V30 1708 N 148.91 -2.21762 -6.66158 0
M  V30 1709 H 153.75 -2.02551 -2.18579 0
M  V30 1710 H 151.287 -1.00844 -1.07093 0
M  V30 1711 H 153.245 -0.50092 -4.14182 0
M  V30 1712 H 151.875 0.176298 -3.22318 0
M  V30 1713 H 150.927 -2.23913 -3.07518 0
M  V30 1714 H 152.239 -2.75586 -4.15757 0
M  V30 1715 H 151.393 -1.21934 -5.94321 0
M  V30 1716 H 150.132 -0.60009 -4.83994 0
M  V30 1717 H 149.137 -2.8988 -4.67172 0
M  V30 1718 H 150.362 -3.51685 -5.80943 0
M  V30 1719 H 148.308 -1.35696 -6.41812 0
M  V30 1720 H 148.225 -3.00903 -6.93537 0
M  V30 1721 H 149.493 -1.98403 -7.53828 0
M  V30 1722 N 153.722 1.14298 -1.08507 0
M  V30 1723 C 154.654 2.1907 -0.673859 0
M  V30 1724 C 155.667 1.60381 0.279577 0
M  V30 1725 O 156.856 1.78374 0.0670754 0
M  V30 1726 C 153.956 3.38888 0.0290979 0
M  V30 1727 C 153.129 4.27103 -0.943494 0
M  V30 1728 C 152.188 5.25477 -0.275676 0
M  V30 1729 O 151.214 5.61709 -0.920401 0
M  V30 1730 N 152.416 5.7227 0.974013 0
M  V30 1731 H 155.181 2.54965 -1.57521 0
M  V30 1732 H 152.742 1.29528 -0.971287 0
M  V30 1733 H 154.734 4.01761 0.48683 0
M  V30 1734 H 153.304 3.01309 0.832555 0
M  V30 1735 H 152.524 3.61149 -1.58004 0
M  V30 1736 H 153.812 4.82905 -1.60251 0
M  V30 1737 H 153.21 5.44965 1.51755 0
M  V30 1738 H 151.767 6.37127 1.37522 0
M  V30 1739 N 155.201 0.870884 1.31352 0
M  V30 1740 C 156.441 0.488783 1.9847 0
M  V30 1741 C 156.805 -0.941536 1.67329 0
M  V30 1742 O 158.006 -1.42903 2.27667 0
M  V30 1743 C 156.277 0.739688 3.49662 0
M  V30 1744 S 157.836 0.457582 4.36408 0
M  V30 1745 H 154.654 0.18242 0.6872 0
M  V30 1746 H 157.256 1.12711 1.59739 0
M  V30 1747 H 155.96 1.77944 3.69816 0
M  V30 1748 H 155.491 0.0883905 3.93301 0
M  V30 1749 H 157.506 -0.709752 4.91098 0
M  V30 1750 N 156.679 -1.44442 0.630414 0
M  V30 1751 C 157.642 -2.29107 -0.0652523 0
M  V30 1752 C 158.642 -1.41002 -0.772995 0
M  V30 1753 O 159.832 -1.62881 -0.617692 0
M  V30 1754 C 156.964 -3.22564 -1.10296 0
M  V30 1755 H 158.157 -2.92103 0.679401 0
M  V30 1756 H 155.71 -1.51343 0.390517 0
M  V30 1757 H 156.445 -2.64416 -1.87762 0
M  V30 1758 H 156.23 -3.87491 -0.59941 0
M  V30 1759 H 157.72 -3.86167 -1.5895 0
M  V30 1760 N 158.157 -0.370918 -1.53173 0
M  V30 1761 C 159.087 0.464847 -2.28826 0
M  V30 1762 C 160.068 1.07936 -1.31468 0
M  V30 1763 O 161.253 1.0956 -1.60344 0
M  V30 1764 C 158.383 1.60196 -3.08147 0
M  V30 1765 C 157.337 1.11443 -4.13237 0
M  V30 1766 C 156.663 2.3422 -4.80672 0
M  V30 1767 C 157.963 0.195384 -5.21934 0
M  V30 1768 H 159.657 -0.166329 -2.98938 0
M  V30 1769 H 157.203 -0.0814359 -1.4377 0
M  V30 1770 H 159.156 2.19332 -3.59822 0
M  V30 1771 H 157.88 2.26045 -2.35735 0
M  V30 1772 H 156.539 0.545727 -3.62515 0
M  V30 1773 H 156.187 2.98537 -4.04827 0
M  V30 1774 H 155.887 2.02269 -5.51689 0
M  V30 1775 H 157.411 2.94032 -5.35143 0
M  V30 1776 H 158.825 0.694375 -5.69079 0
M  V30 1777 H 157.222 -0.0335027 -6.00091 0
M  V30 1778 H 158.292 -0.760961 -4.78892 0
M  V30 1779 N 159.635 1.57281 -0.100228 0
M  V30 1780 C 160.598 2.13158 0.842398 0
M  V30 1781 C 161.598 1.06202 1.20738 0
M  V30 1782 O 162.788 1.32066 1.13597 0
M  V30 1783 C 159.92 2.65639 2.13655 0
M  V30 1784 H 161.113 2.97766 0.357114 0
M  V30 1785 H 158.666 1.5559 0.148823 0
M  V30 1786 H 159.401 1.84566 2.66657 0
M  V30 1787 H 159.186 3.43844 1.88451 0
M  V30 1788 H 160.676 3.08846 2.81077 0
M  V30 1789 N 161.113 -0.173488 1.56642 0
M  V30 1790 C 162.076 -1.19859 1.95362 0
M  V30 1791 C 163.076 -1.37296 0.83704 0
M  V30 1792 O 164.266 -1.34739 1.10413 0
M  V30 1793 C 161.398 -2.56405 2.24654 0
M  V30 1794 H 162.591 -0.867062 2.87092 0
M  V30 1795 H 160.144 -0.415853 1.50666 0
M  V30 1796 H 160.879 -2.94576 1.35631 0
M  V30 1797 H 160.664 -2.45115 3.06041 0
M  V30 1798 H 162.154 -3.30287 2.5554 0
M  V30 1799 N 162.591 -1.51276 -0.441967 0
M  V30 1800 C 163.521 -1.752 -1.54361 0
M  V30 1801 C 164.502 -0.601682 -1.59103 0
M  V30 1802 O 165.687 -0.843913 -1.74905 0
M  V30 1803 C 162.817 -1.87282 -2.92477 0
M  V30 1804 C 161.771 -3.02687 -3.02596 0
M  V30 1805 C 161.097 -2.99947 -4.42647 0
M  V30 1806 C 162.397 -4.4273 -2.77106 0
M  V30 1807 H 164.091 -2.67442 -1.34592 0
M  V30 1808 H 161.637 -1.28694 -0.646048 0
M  V30 1809 H 163.59 -2.02602 -3.695 0
M  V30 1810 H 162.314 -0.916844 -3.13467 0
M  V30 1811 H 160.973 -2.87065 -2.28012 0
M  V30 1812 H 160.621 -2.02136 -4.60597 0
M  V30 1813 H 160.321 -3.77439 -4.50348 0
M  V30 1814 H 161.845 -3.17354 -5.2165 0
M  V30 1815 H 163.259 -4.58727 -3.43864 0
M  V30 1816 H 161.656 -5.21893 -2.96222 0
M  V30 1817 H 162.726 -4.53087 -1.72744 0
M  V30 1818 N 164.069 0.697108 -1.41344 0
M  V30 1819 C 165.485 1.00751 -1.2378 0
M  V30 1820 C 165.685 2.01105 -0.126066 0
M  V30 1821 O 164.741 2.47295 0.51004 0
M  V30 1822 C 166.054 1.53359 -2.58653 0
M  V30 1823 C 167.602 1.6525 -2.65822 0
M  V30 1824 C 168.077 2.2126 -4.01009 0
M  V30 1825 N 169.568 2.28622 -4.02847 0
M  V30 1826 C 170.303 2.72984 -5.04249 0
M  V30 1827 N 169.799 3.16962 -6.16041 0
M  V30 1828 N 171.592 2.72534 -4.91611 0
M  V30 1829 H 163.743 0.0322662 -2.12375 0
M  V30 1830 H 166.006 0.0768853 -0.944877 0
M  V30 1831 H 165.712 0.870773 -3.4075 0
M  V30 1832 H 165.586 2.51597 -2.81032 0
M  V30 1833 H 167.973 2.30644 -1.84086 0
M  V30 1834 H 168.054 0.655614 -2.47256 0
M  V30 1835 H 167.698 1.56482 -4.83193 0
M  V30 1836 H 167.628 3.21698 -4.16915 0
M  V30 1837 H 170.119 1.97585 -3.22131 0
M  V30 1838 H 170.432 3.49434 -6.89287 0
M  V30 1839 H 168.777 3.14875 -6.1958 0
M  V30 1840 H 171.968 2.37525 -4.0336 0
M  V30 1841 H 172.141 3.06789 -5.70775 0
M  V30 1842 N 165.547 1.27147 0.931209 0
M  V30 1843 C 166.824 1.0401 1.65654 0
M  V30 1844 C 167.204 -0.426297 2.06751 0
M  V30 1845 O 166.552 -1.40879 1.79904 0
M  V30 1846 C 166.762 1.99834 2.86125 0
M  V30 1847 C 168.11 2.29007 3.57549 0
M  V30 1848 O 169.134 1.97779 2.96246 0
M  V30 1849 O 167.993 2.82222 4.67989 0
M  V30 1850 H 165.087 0.396239 0.725895 0
M  V30 1851 H 167.633 1.38397 0.982056 0
M  V30 1852 H 166.405 2.98744 2.52721 0
M  V30 1853 H 166.028 1.65987 3.61295 0
M  V30 1854 N 167.025 -1.13721 1.09112 0
M  V30 1855 C 168.271 -1.85198 0.826414 0
M  V30 1856 C 168.604 -1.83129 -0.646319 0
M  V30 1857 O 167.879 -1.2671 -1.47563 0
M  V30 1858 C 168.162 -3.33507 1.35812 0
M  V30 1859 C 168.015 -3.44108 2.89672 0
M  V30 1860 C 169.334 -4.28838 0.989256 0
M  V30 1861 H 166.453 -0.67243 0.301675 0
M  V30 1862 H 169.095 -1.33499 1.35197 0
M  V30 1863 H 167.245 -3.77666 0.911082 0
M  V30 1864 H 168.917 -3.08684 3.428 0
M  V30 1865 H 167.16 -2.85087 3.26967 0
M  V30 1866 H 167.831 -4.48388 3.21951 0
M  V30 1867 H 170.307 -3.92734 1.37475 0
M  V30 1868 H 169.183 -5.31051 1.38838 0
M  V30 1869 H 169.444 -4.4198 -0.102924 0
M  V30 1870 N 168.503 -0.877838 -1.30888 0
M  V30 1871 C 169.919 -0.570844 -1.49042 0
M  V30 1872 C 170.119 0.893159 -1.80624 0
M  V30 1873 O 169.175 1.67485 -1.88958 0
M  V30 1874 C 170.488 -1.47784 -2.61878 0
M  V30 1875 C 172.036 -1.48071 -2.75761 0
M  V30 1876 C 172.511 -2.37347 -3.91702 0
M  V30 1877 N 174.002 -2.35271 -3.99001 0
M  V30 1878 C 174.737 -3.01063 -4.88004 0
M  V30 1879 N 174.233 -3.76055 -5.81854 0
M  V30 1880 N 176.026 -2.90332 -4.81315 0
M  V30 1881 H 168.177 -1.82502 -1.0866 0
M  V30 1882 H 170.44 -0.780797 -0.537644 0
M  V30 1883 H 170.146 -2.51993 -2.45341 0
M  V30 1884 H 170.02 -1.18215 -3.58197 0
M  V30 1885 H 172.407 -0.446166 -2.91708 0
M  V30 1886 H 172.488 -1.81668 -1.80085 0
M  V30 1887 H 172.132 -3.40883 -3.76512 0
M  V30 1888 H 172.062 -2.01071 -4.86701 0
M  V30 1889 H 174.553 -1.80768 -3.3186 0
M  V30 1890 H 174.866 -4.23366 -6.46514 0
M  V30 1891 H 173.211 -3.80163 -5.81808 0
M  V30 1892 H 176.402 -2.31278 -4.06974 0
M  V30 1893 H 176.575 -3.41885 -5.50471 0
M  V30 1894 N 169.982 1.44106 -0.638065 0
M  V30 1895 C 171.398 1.56672 -0.304286 0
M  V30 1896 C 171.598 1.6244 1.19228 0
M  V30 1897 O 170.654 1.57121 1.9766 0
M  V30 1898 C 171.967 2.83503 -1.00231 0
M  V30 1899 C 173.515 2.97226 -0.981116 0
M  V30 1900 C 173.99 4.26868 -1.65974 0
M  V30 1901 N 175.481 4.33698 -1.62666 0
M  V30 1902 C 176.216 5.32745 -2.12063 0
M  V30 1903 N 175.712 6.38157 -2.6968 0
M  V30 1904 N 177.505 5.24299 -2.02651 0
M  V30 1905 H 169.656 1.38605 -1.60942 0
M  V30 1906 H 171.919 0.664661 -0.675965 0
M  V30 1907 H 171.625 2.85251 -2.0573 0
M  V30 1908 H 171.499 3.73251 -0.54439 0
M  V30 1909 H 173.886 2.95027 0.0654188 0
M  V30 1910 H 173.967 2.08808 -1.47759 0
M  V30 1911 H 173.611 4.29826 -2.70576 0
M  V30 1912 H 173.541 5.14156 -1.13804 0
M  V30 1913 H 176.032 3.58138 -1.20606 0
M  V30 1914 H 176.345 7.10029 -3.05087 0
M  V30 1915 H 174.69 6.38823 -2.73734 0
M  V30 1916 H 177.881 4.4086 -1.57353 0
M  V30 1917 H 178.054 6.01334 -2.41457 0
M  V30 1918 N 171.46 0.379036 1.52974 0
M  V30 1919 C 172.707 -0.206421 2.01445 0
M  V30 1920 C 173.035 -1.47668 1.26587 0
M  V30 1921 O 172.29 -1.92514 0.351675 0
M  V30 1922 C 172.589 -0.53096 3.53434 0
M  V30 1923 C 172.255 0.646546 4.46241 0
M  V30 1924 C 170.917 0.969604 4.7133 0
M  V30 1925 C 173.269 1.43479 5.01062 0
M  V30 1926 C 170.597 2.08263 5.48492 0
M  V30 1927 C 172.949 2.53834 5.7944 0
M  V30 1928 C 171.613 2.86659 6.02812 0
M  V30 1929 H 170.883 -0.0755349 0.73714 0
M  V30 1930 H 173.53 0.514271 1.84465 0
M  V30 1931 H 171.835 -1.33285 3.68432 0
M  V30 1932 H 173.532 -0.996417 3.88423 0
M  V30 1933 H 170.122 0.384734 4.2687 0
M  V30 1934 H 174.306 1.19844 4.81613 0
M  V30 1935 H 169.562 2.34078 5.64816 0
M  V30 1936 H 173.736 3.15319 6.20924 0
M  V30 1937 H 171.363 3.73026 6.62387 0
M  V30 1938 N 172.938 -1.57226 0.108567 0
M  V30 1939 C 173.868 -2.17778 -0.84232 0
M  V30 1940 C 174.849 -1.11487 -1.2847 0
M  V30 1941 O 176.034 -1.39681 -1.34918 0
M  V30 1942 C 173.164 -2.76888 -2.09644 0
M  V30 1943 C 172.118 -3.88669 -1.79221 0
M  V30 1944 C 171.444 -4.34541 -3.11574 0
M  V30 1945 C 172.744 -5.11251 -1.06864 0
M  V30 1946 H 174.438 -2.97489 -0.337774 0
M  V30 1947 H 171.984 -1.43097 -0.161025 0
M  V30 1948 H 173.937 -3.17904 -2.76614 0
M  V30 1949 H 172.661 -1.94451 -2.62405 0
M  V30 1950 H 171.32 -3.48213 -1.14644 0
M  V30 1951 H 170.968 -3.48977 -3.62249 0
M  V30 1952 H 170.668 -5.09914 -2.91996 0
M  V30 1953 H 172.192 -4.782 -3.7968 0
M  V30 1954 H 173.606 -5.49352 -1.63968 0
M  V30 1955 H 172.003 -5.9214 -0.974178 0
M  V30 1956 H 173.073 -4.8487 -0.0536168 0
M  V30 1957 N 174.416 0.165178 -1.56732 0
M  V30 1958 C 175.641 0.900253 -1.86843 0
M  V30 1959 C 176.066 1.74766 -0.695596 0
M  V30 1960 O 175.424 1.77786 0.35522 0
M  V30 1961 C 175.472 1.74777 -3.15413 0
M  V30 1962 O 174.576 2.85007 -2.98068 0
M  V30 1963 H 173.917 0.251832 -0.614391 0
M  V30 1964 H 176.447 0.161468 -2.03962 0
M  V30 1965 H 176.457 2.14646 -3.46974 0
M  V30 1966 H 175.132 1.12537 -4.00385 0
M  V30 1967 H 173.709 2.48676 -2.77875 0
M  V30 1968 N 175.894 1.51508 0.433938 0
M  V30 1969 C 176.804 1.75917 1.5521 0
M  V30 1970 C 177.82 0.643545 1.61662 0
M  V30 1971 O 178.996 0.926183 1.7884 0
M  V30 1972 C 176.061 1.88213 2.91164 0
M  V30 1973 C 175.122 3.12074 2.94802 0
M  V30 1974 C 174.355 3.23774 4.24271 0
M  V30 1975 O 174.578 2.4133 5.16833 0
M  V30 1976 O 173.512 4.16774 4.34262 0
M  V30 1977 H 177.338 2.70777 1.37527 0
M  V30 1978 H 174.923 1.36051 0.617293 0
M  V30 1979 H 176.805 1.98267 3.71845 0
M  V30 1980 H 175.48 0.965413 3.08968 0
M  V30 1981 H 174.387 3.07497 2.13065 0
M  V30 1982 H 175.72 4.03446 2.81943 0
M  V30 1983 N 177.372 -0.689602 1.41712 0
M  V30 1984 C 178.282 -1.83314 1.46401 0
M  V30 1985 C 179.298 -1.7036 0.35405 0
M  V30 1986 O 180.474 -1.92171 0.602692 0
M  V30 1987 C 177.539 -3.19344 1.34982 0
M  V30 1988 C 176.6 -3.44363 2.56344 0
M  V30 1989 C 175.833 -4.73904 2.45461 0
M  V30 1990 O 176.056 -5.508 1.48241 0
M  V30 1991 O 174.99 -4.99839 3.35328 0
M  V30 1992 H 178.816 -1.82314 2.42889 0
M  V30 1993 H 176.401 -0.843438 1.23315 0
M  V30 1994 H 178.283 -4.00547 1.3092 0
M  V30 1995 H 176.958 -3.21014 0.41612 0
M  V30 1996 H 175.865 -2.63067 2.65982 0
M  V30 1997 H 177.198 -3.47512 3.48563 0
M  V30 1998 N 178.85 -1.27639 -0.924453 0
M  V30 1999 C 180.098 -1.13941 -1.66918 0
M  V30 2000 C 180.419 0.314589 -1.92446 0
M  V30 2001 O 179.689 1.21964 -1.53303 0
M  V30 2002 H 178.269 -0.418678 -0.618642 0
M  V30 2003 H 180.931 -1.60213 -1.10985 0
M  V30 2004 H 180.027 -1.67094 -2.63602 0
M  V30 2005 N 180.328 1.1314 -1.09713 0
M  V30 2006 C 181.576 1.84119 -0.833338 0
M  V30 2007 C 181.897 1.84097 0.642904 0
M  V30 2008 O 181.167 1.29881 1.46655 0
M  V30 2009 H 179.747 0.681766 -0.305293 0
M  V30 2010 H 182.409 1.37038 -1.38588 0
M  V30 2011 H 181.505 2.88543 -1.18951 0
M  V30 2012 N 181.806 0.884767 1.30421 0
M  V30 2013 C 182.756 0.322846 2.25703 0
M  V30 2014 C 183.74 -0.548582 1.51259 0
M  V30 2015 O 184.932 -0.39304 1.72581 0
M  V30 2016 C 182.061 -0.461787 3.4018 0
M  V30 2017 C 181.147 0.423717 4.21978 0
M  V30 2018 N 181.538 1.52408 4.82292 0
M  V30 2019 C 179.836 0.218795 4.45463 0
M  V30 2020 C 180.537 2.07136 5.43571 0
M  V30 2021 N 179.513 1.36635 5.26148 0
M  V30 2022 H 183.315 1.16363 2.69883 0
M  V30 2023 H 180.829 0.73415 1.44859 0
M  V30 2024 H 182.826 -0.880985 4.07485 0
M  V30 2025 H 181.486 -1.30001 2.9754 0
M  V30 2026 H 182.497 1.90693 4.81515 0
M  V30 2027 H 179.174 -0.582275 4.1342 0
M  V30 2028 H 180.564 2.99538 6.01437 0
M  V30 2029 N 183.284 -1.43765 0.645699 0
M  V30 2030 C 184.53 -2.02197 0.156271 0
M  V30 2031 C 184.863 -1.50776 -1.22393 0
M  V30 2032 O 184.138 -0.697771 -1.81553 0
M  V30 2033 C 184.421 -3.59749 0.158872 0
M  V30 2034 C 184.274 -4.21419 1.57245 0
M  V30 2035 C 185.593 -4.37149 -0.50879 0
M  V30 2036 H 182.712 -0.734694 0.0582602 0
M  V30 2037 H 185.354 -1.71157 0.824951 0
M  V30 2038 H 183.504 -3.86325 -0.410525 0
M  V30 2039 H 185.176 -4.059 2.19186 0
M  V30 2040 H 183.419 -3.78356 2.122 0
M  V30 2041 H 184.09 -5.30482 1.52619 0
M  V30 2042 H 186.566 -4.16093 -0.024412 0
M  V30 2043 H 185.442 -5.4683 -0.476213 0
M  V30 2044 H 185.703 -4.12839 -1.58165 0
M  V30 2045 N 184.763 -0.387143 -1.52771 0
M  V30 2046 C 185.726 0.436939 -2.24997 0
M  V30 2047 C 186.726 0.991991 -1.26555 0
M  V30 2048 O 187.916 0.874335 -1.50669 0
M  V30 2049 C 185.048 1.61281 -3.00335 0
M  V30 2050 H 186.241 -0.195365 -2.99263 0
M  V30 2051 H 183.794 -0.139218 -1.55679 0
M  V30 2052 H 184.529 2.2826 -2.30364 0
M  V30 2053 H 184.314 1.22154 -3.72587 0
M  V30 2054 H 185.804 2.19629 -3.5518 0
M  V30 2055 N 186.241 1.57166 -0.116904 0
M  V30 2056 C 187.487 1.95412 0.542405 0
M  V30 2057 C 187.82 1.00019 1.66463 0
M  V30 2058 O 187.095 0.0370346 1.94465 0
M  V30 2059 C 187.378 3.43615 1.07708 0
M  V30 2060 C 187.231 4.49781 -0.0415868 0
M  V30 2061 C 188.55 3.93616 1.96861 0
M  V30 2062 H 185.669 0.710543 0.195696 0
M  V30 2063 H 188.311 1.89027 -0.192038 0
M  V30 2064 H 186.461 3.49187 1.70296 0
M  V30 2065 H 188.133 4.56308 -0.676793 0
M  V30 2066 H 186.376 4.28033 -0.705019 0
M  V30 2067 H 187.047 5.50733 0.373717 0
M  V30 2068 H 189.523 3.90335 1.44146 0
M  V30 2069 H 188.399 4.97838 2.3119 0
M  V30 2070 H 188.66 3.34188 2.89432 0
M  V30 2071 N 187.719 -0.156864 1.56817 0
M  V30 2072 C 188.966 -0.871125 1.82805 0
M  V30 2073 C 189.294 -1.81611 0.696262 0
M  V30 2074 O 188.549 -1.93141 -0.315459 0
M  V30 2075 C 188.848 -1.68737 3.1506 0
M  V30 2076 C 188.514 -0.890045 4.42028 0
M  V30 2077 C 187.176 -0.670042 4.76512 0
M  V30 2078 C 189.528 -0.331769 5.20143 0
M  V30 2079 C 186.856 0.119104 5.86579 0
M  V30 2080 C 189.208 0.444365 6.31037 0
M  V30 2081 C 187.872 0.675035 6.64078 0
M  V30 2082 H 187.142 -0.318767 0.668931 0
M  V30 2083 H 189.789 -0.135274 1.91022 0
M  V30 2084 H 188.094 -2.49304 3.0225 0
M  V30 2085 H 189.791 -2.24331 3.3238 0
M  V30 2086 H 186.381 -1.07157 4.14988 0
M  V30 2087 H 190.565 -0.489043 4.93885 0
M  V30 2088 H 185.821 0.307417 6.10627 0
M  V30 2089 H 189.995 0.884139 6.90765 0
M  V30 2090 H 187.622 1.28839 7.49203 0
M  V30 2091 N 189.197 -1.51736 -0.425897 0
M  V30 2092 C 190.474 -1.55519 -1.1863 0
M  V30 2093 C 190.854 -0.326219 -2.08564 0
M  V30 2094 O 190.202 0.688012 -2.17896 0
M  V30 2095 C 190.412 -2.87521 -1.9782 0
M  V30 2096 C 191.76 -3.39899 -2.54468 0
M  V30 2097 O 192.784 -2.89148 -2.08019 0
M  V30 2098 O 191.643 -4.2848 -3.39215 0
M  V30 2099 H 188.737 -0.625739 -0.540721 0
M  V30 2100 H 191.283 -1.64055 -0.434038 0
M  V30 2101 H 190.055 -3.68422 -1.31836 0
M  V30 2102 H 189.678 -2.822 -2.80088 0
M  V30 2103 N 190.675 0.682077 -1.42076 0
M  V30 2104 C 191.638 1.77756 -1.44691 0
M  V30 2105 C 192.638 1.5726 -0.335535 0
M  V30 2106 O 193.828 1.63686 -0.596037 0
M  V30 2107 C 190.96 3.16301 -1.27146 0
M  V30 2108 H 192.153 1.76826 -2.42224 0
M  V30 2109 H 189.706 0.891012 -1.28416 0
M  V30 2110 H 190.441 3.22862 -0.305075 0
M  V30 2111 H 190.226 3.32581 -2.07683 0
M  V30 2112 H 191.716 3.96241 -1.31843 0
M  V30 2113 N 192.153 1.28127 0.917671 0
M  V30 2114 C 193.381 1.17892 1.70026 0
M  V30 2115 C 193.796 -0.262958 1.8696 0
M  V30 2116 O 193.153 -1.17811 1.3938 0
M  V30 2117 C 193.204 1.86872 3.09453 0
M  V30 2118 O 192.925 3.25428 2.93306 0
M  V30 2119 C 194.426 1.8289 4.03815 0
M  V30 2120 H 191.646 0.40942 0.531617 0
M  V30 2121 H 194.19 1.69181 1.14883 0
M  V30 2122 H 192.345 1.39464 3.61426 0
M  V30 2123 H 192.759 3.59918 3.81523 0
M  V30 2124 H 194.233 2.35751 4.99125 0
M  V30 2125 H 194.71 0.800412 4.31845 0
M  V30 2126 H 195.316 2.29959 3.57769 0
M  V30 2127 N 193.631 -1.12557 1.10312 0
M  V30 2128 C 194.579 -2.20325 0.745629 0
M  V30 2129 C 195.573 -1.67429 -0.25763 0
M  V30 2130 O 196.779 -1.79612 -0.118132 0
M  V30 2131 H 193.154 -0.718118 0.223182 0
M  V30 2132 H 195.125 -2.47733 1.66346 0
M  V30 2133 C 193.874 -3.47168 0.192262 0
M  V30 2134 H 193.197 -3.88215 0.955475 0
M  V30 2135 H 194.637 -4.23995 -0.0198274 0
M  V30 2136 C 193.096 -3.19298 -1.07472 0
M  V30 2137 O 193.626 -3.3891 -2.15645 0
M  V30 2138 N 191.832 -2.73113 -0.992847 0
M  V30 2139 H 191.379 -2.57354 -0.112474 0
M  V30 2140 H 191.337 -2.54842 -1.84127 0
M  V30 2141 N 195.109 -0.891671 -1.2995 0
M  V30 2142 C 196.337 -0.52866 -2.00032 0
M  V30 2143 C 196.752 0.884574 -1.66795 0
M  V30 2144 O 196.109 1.5827 -0.908669 0
M  V30 2145 C 196.16 -0.701814 -3.54622 0
M  V30 2146 O 195.881 -2.05942 -3.86678 0
M  V30 2147 C 197.382 -0.342683 -4.41973 0
M  V30 2148 H 194.602 -0.203659 -0.639347 0
M  V30 2149 H 197.146 -1.19881 -1.65677 0
M  V30 2150 H 195.301 -0.0789468 -3.8732 0
M  V30 2151 H 195.715 -2.08291 -4.81368 0
M  V30 2152 H 197.189 -0.514709 -5.49595 0
M  V30 2153 H 197.666 0.71975 -4.33262 0
M  V30 2154 H 198.272 -0.942154 -4.14733 0
M  V30 2155 N 196.587 1.43421 -0.653314 0
M  V30 2156 C 197.815 2.06163 -0.174491 0
M  V30 2157 C 198.23 1.48969 1.1599 0
M  V30 2158 O 197.587 0.621042 1.71608 0
M  V30 2159 C 197.638 3.61417 -0.0774865 0
M  V30 2160 O 197.359 4.16485 -1.35912 0
M  V30 2161 C 198.86 4.41235 0.427402 0
M  V30 2162 H 196.08 0.664946 -0.0899353 0
M  V30 2163 H 198.624 1.83924 -0.893988 0
M  V30 2164 H 196.779 3.82841 0.59257 0
M  V30 2165 H 197.193 5.10153 -1.21839 0
M  V30 2166 H 198.667 5.5021 0.44423 0
M  V30 2167 H 199.144 4.14268 1.45873 0
M  V30 2168 H 199.75 4.2478 -0.210167 0
M  V30 2169 N 198.065 0.39524 1.52563 0
M  V30 2170 C 199.481 0.0454682 1.59535 0
M  V30 2171 C 199.681 -1.44056 1.4089 0
M  V30 2172 O 198.737 -2.20579 1.22888 0
M  V30 2173 C 200.05 0.527963 2.96029 0
M  V30 2174 C 201.598 0.484733 3.09224 0
M  V30 2175 C 202.073 0.943512 4.48176 0
M  V30 2176 N 203.564 0.899765 4.54377 0
M  V30 2177 C 204.299 1.22609 5.60138 0
M  V30 2178 N 203.795 1.62319 6.73516 0
M  V30 2179 N 205.588 1.14696 5.50274 0
M  V30 2180 H 197.739 1.36261 1.62931 0
M  V30 2181 H 200.002 0.558887 0.765735 0
M  V30 2182 H 199.708 1.56607 3.14908 0
M  V30 2183 H 199.582 -0.0698056 3.77135 0
M  V30 2184 H 201.969 -0.544298 2.90037 0
M  V30 2185 H 202.05 1.11838 2.30056 0
M  V30 2186 H 201.694 1.9708 4.68104 0
M  V30 2187 H 201.624 0.286817 5.25818 0
M  V30 2188 H 204.115 0.607632 3.72983 0
M  V30 2189 H 204.428 1.85567 7.5019 0
M  V30 2190 H 202.773 1.66211 6.74833 0
M  V30 2191 H 205.964 0.835701 4.6058 0
M  V30 2192 H 206.137 1.40459 6.32594 0
M  V30 2193 N 199.544 -1.57102 0.125237 0
M  V30 2194 C 200.454 -2.19191 -0.8362 0
M  V30 2195 C 201.47 -1.16985 -1.28805 0
M  V30 2196 O 202.646 -1.49479 -1.34974 0
M  V30 2197 C 199.711 -2.78407 -2.06617 0
M  V30 2198 C 198.772 -3.9567 -1.66565 0
M  V30 2199 C 198.005 -4.52052 -2.83698 0
M  V30 2200 O 198.228 -4.07326 -3.99302 0
M  V30 2201 O 197.162 -5.42645 -2.60423 0
M  V30 2202 H 200.988 -3.01816 -0.337776 0
M  V30 2203 H 198.573 -1.4906 -0.100695 0
M  V30 2204 H 200.455 -3.16129 -2.7864 0
M  V30 2205 H 199.13 -1.9881 -2.55453 0
M  V30 2206 H 198.037 -3.62705 -0.916296 0
M  V30 2207 H 199.37 -4.76722 -1.22464 0
M  V30 2208 N 201.022 0.148545 -1.56898 0
M  V30 2209 C 202.438 0.501131 -1.51528 0
M  V30 2210 C 202.638 1.83458 -0.833399 0
M  V30 2211 O 201.694 2.49259 -0.40328 0
M  V30 2212 C 203.007 0.512864 -2.96294 0
M  V30 2213 C 204.555 0.598487 -3.07225 0
M  V30 2214 C 205.03 0.640897 -4.53494 0
M  V30 2215 N 206.521 0.703163 -4.57832 0
M  V30 2216 C 207.256 0.756935 -5.68382 0
M  V30 2217 N 206.752 0.770147 -6.88506 0
M  V30 2218 N 208.545 0.797698 -5.56411 0
M  V30 2219 H 200.696 -0.725532 -1.99624 0
M  V30 2220 H 202.959 -0.264358 -0.910395 0
M  V30 2221 H 202.665 -0.398691 -3.49433 0
M  V30 2222 H 202.539 1.35133 -3.52163 0
M  V30 2223 H 204.926 1.50046 -2.54106 0
M  V30 2224 H 205.007 -0.267093 -2.54402 0
M  V30 2225 H 204.651 -0.256915 -5.0725 0
M  V30 2226 H 204.581 1.52295 -5.04097 0
M  V30 2227 H 207.072 0.700314 -3.71354 0
M  V30 2228 H 207.385 0.812983 -7.68512 0
M  V30 2229 H 205.73 0.738049 -6.9107 0
M  V30 2230 H 208.921 0.784535 -4.61479 0
M  V30 2231 H 209.094 0.83614 -6.42583 0
M  V30 2232 N 202.5 1.5196 0.417844 0
M  V30 2233 C 203.916 1.40569 0.755816 0
M  V30 2234 C 204.116 0.503316 1.95113 0
M  V30 2235 O 203.172 -0.0341925 2.52477 0
M  V30 2236 C 204.485 2.82947 1.01791 0
M  V30 2237 C 206.033 2.92231 1.12116 0
M  V30 2238 C 206.508 4.35559 1.41608 0
M  V30 2239 N 207.999 4.38753 1.48491 0
M  V30 2240 C 208.734 5.46705 1.7292 0
M  V30 2241 N 208.23 6.64788 1.95011 0
M  V30 2242 N 210.023 5.34209 1.74863 0
M  V30 2243 H 202.174 2.09168 -0.369098 0
M  V30 2244 H 204.437 0.942409 -0.102809 0
M  V30 2245 H 204.143 3.5106 0.212081 0
M  V30 2246 H 204.017 3.23462 1.94042 0
M  V30 2247 H 206.404 2.24304 1.9176 0
M  V30 2248 H 206.485 2.55185 0.177225 0
M  V30 2249 H 206.129 5.04042 0.624848 0
M  V30 2250 H 206.059 4.70133 2.37239 0
M  V30 2251 H 208.55 3.5363 1.33244 0
M  V30 2252 H 208.863 7.42845 2.13076 0
M  V30 2253 H 207.208 6.67869 1.92293 0
M  V30 2254 H 210.399 4.40937 1.57137 0
M  V30 2255 H 210.572 6.18415 1.93563 0
M  V30 2256 N 203.978 -0.674533 1.42435 0
M  V30 2257 C 204.941 -1.76986 1.45632 0
M  V30 2258 C 205.941 -1.5708 0.343871 0
M  V30 2259 O 207.131 -1.63367 0.604709 0
M  V30 2260 C 204.263 -3.15623 1.28822 0
M  V30 2261 H 205.456 -1.75539 2.43158 0
M  V30 2262 H 203.009 -0.884189 1.28887 0
M  V30 2263 H 203.744 -3.22696 0.322193 0
M  V30 2264 H 203.529 -3.31475 2.09444 0
M  V30 2265 H 205.019 -3.95537 1.33942 0
M  V30 2266 N 205.456 -1.28612 -0.910864 0
M  V30 2267 C 206.684 -1.18792 -1.69399 0
M  V30 2268 C 207.099 0.253039 -1.87097 0
M  V30 2269 O 206.456 1.17071 -1.40003 0
M  V30 2270 C 206.507 -1.88511 -3.08457 0
M  V30 2271 O 206.228 -3.26979 -2.91576 0
M  V30 2272 C 207.729 -1.85029 -4.02839 0
M  V30 2273 H 204.949 -0.412233 -0.529438 0
M  V30 2274 H 207.493 -1.69788 -1.13984 0
M  V30 2275 H 205.648 -1.41379 -3.60681 0
M  V30 2276 H 206.062 -3.61936 -3.79608 0
M  V30 2277 H 207.536 -2.38395 -4.97867 0
M  V30 2278 H 208.013 -0.823303 -4.31414 0
M  V30 2279 H 208.619 -2.31853 -3.56545 0
M  V30 2280 N 206.934 1.1197 -1.10907 0
M  V30 2281 C 208.183 1.82947 -0.849302 0
M  V30 2282 C 208.496 1.85275 0.627112 0
M  V30 2283 O 209.702 2.52296 1.00295 0
M  V30 2284 C 208.158 3.28529 -1.46959 0
M  V30 2285 C 207.766 3.34546 -2.97965 0
M  V30 2286 C 209.51 4.04443 -1.28942 0
M  V30 2287 C 207.417 4.74491 -3.53004 0
M  V30 2288 H 206.347 0.685477 -0.314065 0
M  V30 2289 H 208.998 1.2604 -1.33365 0
M  V30 2290 H 207.38 3.85333 -0.912917 0
M  V30 2291 H 208.554 2.87654 -3.59989 0
M  V30 2292 H 206.869 2.72108 -3.15192 0
M  V30 2293 H 209.466 5.07787 -1.67502 0
M  V30 2294 H 209.809 4.15656 -0.231456 0
M  V30 2295 H 210.342 3.5401 -1.81443 0
M  V30 2296 H 207.081 4.68474 -4.58489 0
M  V30 2297 H 206.601 5.21816 -2.9575 0
M  V30 2298 H 208.28 5.4344 -3.51115 0
M  V30 2299 N 208.412 0.89855 1.29475 0
M  V30 2300 C 209.659 0.523882 1.95606 0
M  V30 2301 C 209.987 -0.929608 1.70847 0
M  V30 2302 O 209.242 -1.67401 1.01367 0
M  V30 2303 C 209.541 0.761398 3.49195 0
M  V30 2304 C 209.207 2.19207 3.94029 0
M  V30 2305 C 207.869 2.58326 4.05982 0
M  V30 2306 C 210.221 3.12379 4.17216 0
M  V30 2307 C 207.549 3.898 4.38489 0
M  V30 2308 C 209.901 4.43401 4.51197 0
M  V30 2309 C 208.565 4.82394 4.61359 0
M  V30 2310 H 207.835 0.191702 0.715773 0
M  V30 2311 H 210.482 1.13699 1.54094 0
M  V30 2312 H 208.787 0.0653622 3.91745 0
M  V30 2313 H 210.484 0.450904 3.98457 0
M  V30 2314 H 207.074 1.87846 3.85242 0
M  V30 2315 H 211.258 2.83371 4.07449 0
M  V30 2316 H 206.514 4.19734 4.44559 0
M  V30 2317 H 210.688 5.15623 4.68087 0
M  V30 2318 H 208.315 5.84306 4.86303 0
M  V30 2319 N 209.89 -1.43072 0.660911 0
M  V30 2320 C 210.838 -2.32569 -0.0378199 0
M  V30 2321 C 211.832 -1.49046 -0.805092 0
M  V30 2322 O 213.038 -1.65206 -0.714624 0
M  V30 2323 H 209.413 -0.75136 -0.031019 0
M  V30 2324 H 211.384 -2.89216 0.734609 0
M  V30 2325 C 210.133 -3.33453 -0.985124 0
M  V30 2326 H 209.456 -3.97752 -0.404147 0
M  V30 2327 H 210.896 -3.98691 -1.44297 0
M  V30 2328 C 209.355 -2.64642 -2.08486 0
M  V30 2329 O 209.885 -2.46776 -3.16961 0
M  V30 2330 N 208.091 -2.23891 -1.8526 0
M  V30 2331 H 207.638 -2.38621 -0.970449 0
M  V30 2332 H 207.596 -1.78181 -2.59034 0
M  V30 2333 N 211.368 -0.403325 -1.52352 0
M  V30 2334 C 212.615 0.174347 -2.01748 0
M  V30 2335 C 212.943 1.45636 -1.2892 0
M  V30 2336 O 212.198 1.9193 -0.382258 0
M  V30 2337 C 212.497 0.474665 -3.54234 0
M  V30 2338 C 212.163 -0.717458 -4.45155 0
M  V30 2339 C 210.825 -1.04447 -4.69728 0
M  V30 2340 C 213.177 -1.51432 -4.98716 0
M  V30 2341 C 210.505 -2.16963 -5.45109 0
M  V30 2342 C 212.857 -2.6302 -5.75329 0
M  V30 2343 C 211.521 -2.96213 -5.98175 0
M  V30 2344 H 210.791 0.0637981 -0.738248 0
M  V30 2345 H 213.438 -0.543553 -1.83624 0
M  V30 2346 H 211.743 1.27406 -3.70506 0
M  V30 2347 H 213.44 0.934496 -3.89959 0
M  V30 2348 H 210.03 -0.452596 -4.26204 0
M  V30 2349 H 214.214 -1.27491 -4.79645 0
M  V30 2350 H 209.47 -2.43034 -5.61021 0
M  V30 2351 H 213.644 -3.25158 -6.15829 0
M  V30 2352 H 211.271 -3.83516 -6.56368 0
M  V30 2353 N 212.846 1.57033 -0.133567 0
M  V30 2354 C 214.094 1.953 0.519848 0
M  V30 2355 C 214.415 1.01866 1.66278 0
M  V30 2356 O 213.685 0.0776513 1.95746 0
M  V30 2357 H 212.265 0.721091 0.195032 0
M  V30 2358 H 214.927 1.93809 -0.205921 0
M  V30 2359 H 214.023 2.98695 0.904854 0
M  V30 2360 N 214.325 -0.140222 1.56975 0
M  V30 2361 C 215.235 -1.19223 2.02047 0
M  V30 2362 C 216.251 -1.46612 0.937062 0
M  V30 2363 O 217.427 -1.58148 1.24704 0
M  V30 2364 C 214.492 -2.50414 2.39778 0
M  V30 2365 C 213.553 -2.30612 3.621 0
M  V30 2366 C 212.786 -3.55547 3.98023 0
M  V30 2367 O 213.009 -4.62004 3.34528 0
M  V30 2368 O 211.943 -3.47808 4.91237 0
M  V30 2369 H 215.769 -0.839559 2.91865 0
M  V30 2370 H 213.354 -0.349453 1.45256 0
M  V30 2371 H 215.236 -3.27747 2.64877 0
M  V30 2372 H 213.911 -2.85198 1.53114 0
M  V30 2373 H 212.818 -1.51207 3.4218 0
M  V30 2374 H 214.151 -2.00741 4.49404 0
M  V30 2375 N 215.803 -1.52179 -0.40978 0
M  V30 2376 C 216.735 -1.71703 -1.51825 0
M  V30 2377 C 217.748 -0.597445 -1.51441 0
M  V30 2378 O 218.937 -0.872582 -1.55719 0
M  V30 2379 C 216.037 -1.74171 -2.90719 0
M  V30 2380 C 215.21 -3.03156 -3.15302 0
M  V30 2381 C 214.269 -2.97445 -4.34065 0
M  V30 2382 O 213.295 -3.71352 -4.31377 0
M  V30 2383 N 214.497 -2.15191 -5.39141 0
M  V30 2384 H 217.262 -2.67334 -1.35472 0
M  V30 2385 H 214.823 -1.50409 -0.599069 0
M  V30 2386 H 216.815 -1.67884 -3.68235 0
M  V30 2387 H 215.385 -0.860166 -3.00533 0
M  V30 2388 H 214.605 -3.23097 -2.25836 0
M  V30 2389 H 215.893 -3.88484 -3.28569 0
M  V30 2390 H 215.291 -1.54573 -5.44173 0
M  V30 2391 H 213.848 -2.1476 -6.15403 0
M  V30 2392 N 217.281 0.66697 -1.42791 0
M  V30 2393 C 218.229 1.80157 -1.47127 0
M  V30 2394 C 219.223 1.65825 -0.346199 0
M  V30 2395 O 220.429 1.72338 -0.519572 0
M  V30 2396 H 216.804 0.594158 -0.460956 0
M  V30 2397 H 218.775 1.73619 -2.42692 0
M  V30 2398 C 217.524 3.18351 -1.39813 0
M  V30 2399 H 216.847 3.3001 -2.25684 0
M  V30 2400 H 218.287 3.97736 -1.46908 0
M  V30 2401 C 216.746 3.36707 -0.11391 0
M  V30 2402 O 217.276 3.93027 0.830241 0
M  V30 2403 N 215.482 2.90586 -0.0285295 0
M  V30 2404 H 215.029 2.4494 -0.79764 0
M  V30 2405 H 214.987 3.03245 0.830063 0
M  V30 2406 N 218.759 1.29093 0.90403 0
M  V30 2407 C 220.007 1.16583 1.65085 0
M  V30 2408 C 220.328 -0.283933 1.92922 0
M  V30 2409 O 219.598 -1.19509 1.55224 0
M  V30 2410 H 218.178 0.428467 0.611903 0
M  V30 2411 H 220.84 1.61959 1.08422 0
M  V30 2412 H 219.936 1.71266 2.6091 0
M  V30 2413 N 220.237 -1.11381 1.11499 0
M  V30 2414 C 221.467 -1.86663 0.885464 0
M  V30 2415 C 221.875 -1.80464 -0.568281 0
M  V30 2416 O 221.218 -1.18445 -1.40415 0
M  V30 2417 C 221.28 -3.36337 1.26956 0
M  V30 2418 C 220.944 -3.66304 2.73259 0
M  V30 2419 C 221.941 -3.63733 3.71476 0
M  V30 2420 C 219.626 -3.9529 3.09921 0
M  V30 2421 C 221.62 -3.89725 5.04374 0
M  V30 2422 C 219.307 -4.20941 4.43004 0
M  V30 2423 C 220.305 -4.18147 5.40039 0
M  V30 2424 O 219.993 -4.43153 6.70724 0
M  V30 2425 H 219.725 -0.597114 0.316908 0
M  V30 2426 H 222.279 -1.41782 1.48617 0
M  V30 2427 H 220.509 -3.81826 0.611999 0
M  V30 2428 H 222.198 -3.92986 1.01573 0
M  V30 2429 H 222.964 -3.41389 3.44498 0
M  V30 2430 H 218.843 -3.966 2.35009 0
M  V30 2431 H 222.387 -3.8746 5.80104 0
M  V30 2432 H 218.284 -4.42761 4.69716 0
M  V30 2433 H 219.052 -4.60717 6.76522 0
M  V30 2434 N 221.715 -0.905404 -1.28997 0
M  V30 2435 C 222.662 -0.385892 -2.27551 0
M  V30 2436 C 223.632 0.535113 -1.57244 0
M  V30 2437 O 224.817 0.459119 -1.85194 0
M  V30 2438 C 221.957 0.375461 -3.43051 0
M  V30 2439 C 221.07 -0.577092 -4.28128 0
M  V30 2440 C 220.205 0.201879 -5.30816 0
M  V30 2441 C 219.244 -0.744829 -6.07551 0
M  V30 2442 N 218.381 9.42587e-05 -7.021 0
M  V30 2443 H 223.221 -1.23139 -2.71368 0
M  V30 2444 H 220.758 -0.618542 -1.33463 0
M  V30 2445 H 222.716 0.832992 -4.088 0
M  V30 2446 H 221.346 1.18537 -3.00248 0
M  V30 2447 H 220.398 -1.15315 -3.62501 0
M  V30 2448 H 221.71 -1.30152 -4.8152 0
M  V30 2449 H 220.864 0.720351 -6.02408 0
M  V30 2450 H 219.603 0.959413 -4.7817 0
M  V30 2451 H 218.608 -1.27475 -5.34818 0
M  V30 2452 H 219.833 -1.50178 -6.62286 0
M  V30 2453 H 217.779 0.739791 -6.51815 0
M  V30 2454 H 217.696 -0.664321 -7.53076 0
M  V30 2455 H 218.964 0.498644 -7.77903 0
M  V30 2456 N 223.193 1.4272 -0.668489 0
M  V30 2457 C 224.421 2.05966 -0.196348 0
M  V30 2458 C 224.836 1.50191 1.14403 0
M  V30 2459 O 224.193 0.639208 1.7094 0
M  V30 2460 C 224.244 3.61314 -0.115815 0
M  V30 2461 O 223.965 4.1502 -1.40322 0
M  V30 2462 C 225.466 4.41663 0.380579 0
M  V30 2463 H 222.686 0.663954 -0.0969829 0
M  V30 2464 H 225.23 1.82966 -0.913446 0
M  V30 2465 H 223.385 3.83448 0.551931 0
M  V30 2466 H 223.799 5.08832 -1.27243 0
M  V30 2467 H 225.273 5.5065 0.385848 0
M  V30 2468 H 225.75 4.15792 1.41471 0
M  V30 2469 H 226.356 4.24534 -0.255209 0
M  V30 2470 N 224.671 0.411399 1.52136 0
M  V30 2471 C 225.918 -0.163645 2.01838 0
M  V30 2472 C 226.246 -1.4495 1.29691 0
M  V30 2473 O 225.501 -1.91725 0.392431 0
M  V30 2474 C 225.8 -0.455872 3.54481 0
M  V30 2475 C 225.466 0.741055 4.44769 0
M  V30 2476 C 224.128 1.06936 4.69167 0
M  V30 2477 C 226.48 1.54075 4.97906 0
M  V30 2478 C 223.808 2.19851 5.43951 0
M  V30 2479 C 226.16 2.66067 5.73926 0
M  V30 2480 C 224.824 2.99381 5.96596 0
M  V30 2481 H 224.094 -0.0598821 0.738576 0
M  V30 2482 H 226.741 0.553283 1.83333 0
M  V30 2483 H 225.046 -1.2544 3.71177 0
M  V30 2484 H 226.743 -0.913802 3.90449 0
M  V30 2485 H 223.333 0.475192 4.25958 0
M  V30 2486 H 227.517 1.30033 4.78963 0
M  V30 2487 H 222.773 2.46006 5.59724 0
M  V30 2488 H 226.947 3.28419 6.14096 0
M  V30 2489 H 224.574 3.86992 6.54325 0
M  V30 2490 N 226.149 -1.5696 0.141893 0
M  V30 2491 C 227.396 -1.9596 -0.510492 0
M  V30 2492 C 227.724 -1.02648 -1.65208 0
M  V30 2493 O 226.979 -0.0546947 -1.95624 0
M  V30 2494 C 227.278 -3.41242 -1.06249 0
M  V30 2495 C 226.944 -4.50882 -0.0398791 0
M  V30 2496 C 225.606 -4.80595 0.241247 0
M  V30 2497 C 227.958 -5.17058 0.65578 0
M  V30 2498 C 225.286 -5.73792 1.22393 0
M  V30 2499 C 227.638 -6.11313 1.62724 0
M  V30 2500 C 226.302 -6.39407 1.91612 0
M  V30 2501 H 225.572 -0.717068 -0.186802 0
M  V30 2502 H 228.219 -1.90142 0.227643 0
M  V30 2503 H 226.524 -3.43866 -1.87785 0
M  V30 2504 H 228.221 -3.68742 -1.57576 0
M  V30 2505 H 224.811 -4.27754 -0.269174 0
M  V30 2506 H 228.995 -4.94239 0.451779 0
M  V30 2507 H 224.251 -5.93853 1.45424 0
M  V30 2508 H 228.425 -6.61668 2.17183 0
M  V30 2509 H 226.052 -7.11427 2.6791 0
M  V30 2510 N 227.627 0.131896 -1.57047 0
M  V30 2511 C 228.873 0.843179 -1.84441 0
M  V30 2512 C 229.206 1.80129 -0.725749 0
M  V30 2513 O 228.481 1.92624 0.269469 0
M  V30 2514 C 228.764 1.60442 -3.22382 0
M  V30 2515 C 228.617 0.666782 -4.4483 0
M  V30 2516 C 229.936 2.56354 -3.5773 0
M  V30 2517 H 227.055 0.305081 -0.670891 0
M  V30 2518 H 229.697 0.107839 -1.89694 0
M  V30 2519 H 227.847 2.23128 -3.18035 0
M  V30 2520 H 229.519 0.0497646 -4.61273 0
M  V30 2521 H 227.762 -0.022609 -4.33794 0
M  V30 2522 H 228.433 1.23579 -5.37989 0
M  V30 2523 H 230.909 2.0378 -3.62785 0
M  V30 2524 H 229.785 3.06657 -4.5525 0
M  V30 2525 H 230.046 3.38419 -2.84473 0
M  V30 2526 N 229.106 1.52395 0.401703 0
M  V30 2527 C 230.016 1.7917 1.51444 0
M  V30 2528 C 231.032 0.677691 1.6026 0
M  V30 2529 O 232.208 0.963909 1.76835 0
M  V30 2530 C 229.273 1.94347 2.87107 0
M  V30 2531 C 228.334 3.18257 2.88116 0
M  V30 2532 C 227.567 3.32701 4.17308 0
M  V30 2533 O 227.79 2.52238 5.11598 0
M  V30 2534 O 226.724 4.25891 4.25324 0
M  V30 2535 H 230.55 2.73633 1.31752 0
M  V30 2536 H 228.135 1.3733 0.588296 0
M  V30 2537 H 230.017 2.06109 3.67555 0
M  V30 2538 H 228.692 1.03073 3.06851 0
M  V30 2539 H 227.599 3.11947 2.06494 0
M  V30 2540 H 228.932 4.09336 2.73322 0
M  V30 2541 N 230.584 -0.659388 1.43143 0
M  V30 2542 C 231.809 -1.45221 1.48073 0
M  V30 2543 C 232.234 -1.87845 0.097995 0
M  V30 2544 O 231.592 -1.56985 -0.90694 0
M  V30 2545 C 231.64 -2.66748 2.42647 0
M  V30 2546 O 230.744 -3.65583 1.90848 0
M  V30 2547 H 230.085 -0.435669 0.501088 0
M  V30 2548 H 232.615 -0.807432 1.87994 0
M  V30 2549 H 232.625 -3.14637 2.59745 0
M  V30 2550 H 231.3 -2.35067 3.43098 0
M  V30 2551 H 229.877 -3.24693 1.83381 0
M  V30 2552 N 232.062 -1.29571 -0.897171 0
M  V30 2553 C 233.311 -1.1706 -1.64256 0
M  V30 2554 C 233.624 0.276476 -1.93636 0
M  V30 2555 O 234.83 0.52294 -2.66416 0
M  V30 2556 C 233.286 -2.0475 -2.95982 0
M  V30 2557 C 232.894 -3.54295 -2.74187 0
M  V30 2558 C 234.638 -2.0097 -3.73914 0
M  V30 2559 C 232.545 -4.34081 -4.01656 0
M  V30 2560 H 231.475 -0.43452 -0.616205 0
M  V30 2561 H 234.126 -1.54229 -0.994268 0
M  V30 2562 H 232.508 -1.60452 -3.62038 0
M  V30 2563 H 233.682 -4.06662 -2.1671 0
M  V30 2564 H 231.997 -3.59773 -2.09648 0
M  V30 2565 H 234.594 -2.57838 -4.68427 0
M  V30 2566 H 234.937 -0.990273 -4.0435 0
M  V30 2567 H 235.47 -2.43325 -3.14703 0
M  V30 2568 H 232.209 -5.36671 -3.76384 0
M  V30 2569 H 231.729 -3.86483 -4.58684 0
M  V30 2570 H 233.408 -4.44877 -4.69781 0
M  V30 2571 N 233.54 1.10788 -1.12088 0
M  V30 2572 C 234.78 1.84297 -0.883974 0
M  V30 2573 C 235.144 1.83036 0.579797 0
M  V30 2574 O 236.345 2.52061 0.933734 0
M  V30 2575 C 234.616 3.27173 -1.43849 0
M  V30 2576 S 236.175 4.17853 -1.33957 0
M  V30 2577 H 232.993 0.635433 -0.318977 0
M  V30 2578 H 235.595 1.33341 -1.4297 0
M  V30 2579 H 234.299 3.25658 -2.49749 0
M  V30 2580 H 233.83 3.83198 -0.890096 0
M  V30 2581 H 235.845 4.95239 -0.308603 0
M  V30 2582 N 235.018 0.912232 1.28515 0
M  V30 2583 C 236.264 0.545405 1.95328 0
M  V30 2584 C 236.597 -0.908313 1.71649 0
M  V30 2585 O 235.872 -1.64575 1.03659 0
M  V30 2586 C 236.155 0.853483 3.4984 0
M  V30 2587 C 236.008 2.35982 3.82926 0
M  V30 2588 C 237.327 0.348589 4.38717 0
M  V30 2589 H 234.446 0.199626 0.709449 0
M  V30 2590 H 237.088 1.1412 1.5191 0
M  V30 2591 H 235.238 0.34643 3.86952 0
M  V30 2592 H 236.91 2.93738 3.55691 0
M  V30 2593 H 235.153 2.81543 3.30024 0
M  V30 2594 H 235.824 2.52593 4.90816 0
M  V30 2595 H 238.3 0.78294 4.08668 0
M  V30 2596 H 237.176 0.593242 5.45685 0
M  V30 2597 H 237.437 -0.751049 4.35674 0
M  V30 2598 N 236.496 -1.42363 0.676048 0
M  V30 2599 C 237.773 -1.95183 0.127726 0
M  V30 2600 C 238.153 -1.61641 -1.35777 0
M  V30 2601 O 237.501 -0.913216 -2.09458 0
M  V30 2602 C 237.711 -3.46721 0.398199 0
M  V30 2603 C 239.059 -4.23427 0.315383 0
M  V30 2604 O 240.083 -3.54649 0.332016 0
M  V30 2605 O 238.942 -5.45888 0.25865 0
M  V30 2606 H 236.036 -0.826992 0.00359427 0
M  V30 2607 H 238.582 -1.52184 0.750864 0
M  V30 2608 H 237.354 -3.64344 1.4272 0
M  V30 2609 H 236.977 -3.96769 -0.256885 0
M  V30 2610 N 237.974 -0.419461 -1.51915 0
M  V30 2611 C 239.385 0.0477853 -1.86639 0
M  V30 2612 C 239.736 1.43531 -1.33766 0
M  V30 2613 O 238.861 2.05401 -0.68113 0
M  V30 2614 C 239.456 0.0934885 -3.38671 0
M  V30 2615 C 238.015 0.505097 -3.72996 0
M  V30 2616 C 237.162 -0.313792 -2.75519 0
M  V30 2617 H 240.113 -0.636088 -1.45395 0
M  V30 2618 H 240.134 0.906667 -3.6954 0
M  V30 2619 H 239.646 -0.916501 -3.77123 0
M  V30 2620 H 237.747 1.52135 -3.40126 0
M  V30 2621 H 237.86 0.242309 -4.78487 0
M  V30 2622 H 236.224 0.225363 -2.53701 0
M  V30 2623 H 237.007 -1.32232 -3.16812 0
M  V30 2624 N 239.452 1.56882 -0.150215 0
M  V30 2625 C 240.362 2.20494 0.801222 0
M  V30 2626 C 241.378 1.19019 1.26927 0
M  V30 2627 O 242.554 1.51607 1.32579 0
M  V30 2628 C 239.619 2.81659 2.02161 0
M  V30 2629 C 238.68 3.9827 1.60249 0
M  V30 2630 C 237.913 4.56508 2.7647 0
M  V30 2631 O 238.136 4.13627 3.92771 0
M  V30 2632 O 237.07 5.46719 2.51757 0
M  V30 2633 H 240.896 3.02315 0.289717 0
M  V30 2634 H 238.481 1.49202 0.0769684 0
M  V30 2635 H 240.363 3.20522 2.73576 0
M  V30 2636 H 239.038 2.02849 2.52258 0
M  V30 2637 H 237.945 3.64117 0.858477 0
M  V30 2638 H 239.278 4.78609 1.14864 0
M  V30 2639 N 240.93 -0.123565 1.57115 0
M  V30 2640 C 242.176 -0.833386 1.84885 0
M  V30 2641 C 242.509 -1.79742 0.735292 0
M  V30 2642 O 241.784 -1.92764 -0.25925 0
M  V30 2643 C 242.067 -1.5873 3.23228 0
M  V30 2644 C 241.92 -0.643183 4.45178 0
M  V30 2645 C 243.239 -2.54453 3.59085 0
M  V30 2646 H 240.358 -0.301518 0.6725 0
M  V30 2647 H 243 -0.097778 1.89748 0
M  V30 2648 H 241.15 -2.21438 3.19214 0
M  V30 2649 H 242.822 -0.0253015 4.61293 0
M  V30 2650 H 241.065 0.0456139 4.33776 0
M  V30 2651 H 241.736 -1.20724 5.38637 0
M  V30 2652 H 244.212 -2.01853 3.63861 0
M  V30 2653 H 243.088 -3.04238 4.5687 0
M  V30 2654 H 243.349 -3.36906 2.86264 0
M  V30 2655 N 242.408 -1.52605 -0.393616 0
M  V30 2656 C 243.657 -1.66649 -1.13627 0
M  V30 2657 C 243.97 -0.410364 -1.91247 0
M  V30 2658 O 245.176 -0.430854 -2.68059 0
M  V30 2659 C 243.632 -2.9449 -2.06891 0
M  V30 2660 C 243.24 -4.27266 -1.34714 0
M  V30 2661 C 244.984 -3.17899 -2.81319 0
M  V30 2662 C 242.891 -5.46217 -2.26717 0
M  V30 2663 H 241.821 -0.62084 -0.427871 0
M  V30 2664 H 244.472 -1.791 -0.399428 0
M  V30 2665 H 242.854 -2.75774 -2.84191 0
M  V30 2666 H 244.028 -4.56518 -0.626714 0
M  V30 2667 H 242.343 -4.10081 -0.722643 0
M  V30 2668 H 244.94 -4.03949 -3.50328 0
M  V30 2669 H 245.283 -2.32777 -3.45139 0
M  V30 2670 H 245.816 -3.37159 -2.11113 0
M  V30 2671 H 242.555 -6.33733 -1.67521 0
M  V30 2672 H 242.075 -5.21283 -2.96689 0
M  V30 2673 H 243.754 -5.7991 -2.86903 0
M  V30 2674 N 243.887 0.651787 -1.4349 0
M  V30 2675 C 244.85 1.74647 -1.48429 0
M  V30 2676 C 245.85 1.56513 -0.368817 0
M  V30 2677 O 247.04 1.62385 -0.630623 0
M  V30 2678 C 244.172 3.13533 -1.33827 0
M  V30 2679 H 245.365 1.71649 -2.4592 0
M  V30 2680 H 242.918 0.863573 -1.30277 0
M  V30 2681 H 243.653 3.22142 -0.37349 0
M  V30 2682 H 243.438 3.28101 -2.14691 0
M  V30 2683 H 244.928 3.93356 -1.40218 0
M  V30 2684 N 245.365 1.30045 0.890287 0
M  V30 2685 C 246.328 1.15963 1.977 0
M  V30 2686 C 247.328 0.0923777 1.60534 0
M  V30 2687 O 248.518 0.340071 1.70848 0
M  V30 2688 C 245.65 0.775451 3.31963 0
M  V30 2689 H 246.843 2.12502 2.11619 0
M  V30 2690 H 244.396 1.13366 1.07601 0
M  V30 2691 H 245.131 -0.189671 3.23745 0
M  V30 2692 H 244.916 1.54668 3.60306 0
M  V30 2693 H 246.406 0.700251 4.11687 0
M  V30 2694 N 246.843 -1.10192 1.12674 0
M  V30 2695 C 247.791 -2.18694 0.792196 0
M  V30 2696 C 248.785 -1.67938 -0.222058 0
M  V30 2697 O 249.991 -1.79822 -0.0800074 0
M  V30 2698 H 246.366 -0.713223 0.238364 0
M  V30 2699 H 248.337 -2.44149 1.71564 0
M  V30 2700 C 247.086 -3.46682 0.265859 0
M  V30 2701 H 246.409 -3.86101 1.03761 0
M  V30 2702 H 247.849 -4.23942 0.0701128 0
M  V30 2703 C 246.308 -3.21506 -1.00675 0
M  V30 2704 O 246.838 -3.43408 -2.08408 0
M  V30 2705 N 245.044 -2.75158 -0.934692 0
M  V30 2706 H 244.591 -2.57535 -0.0578604 0
M  V30 2707 H 244.549 -2.58691 -1.7868 0
M  V30 2708 N 248.321 -0.919034 -1.28029 0
M  V30 2709 C 249.57 -0.550802 -1.94034 0
M  V30 2710 C 249.883 0.910877 -1.73096 0
M  V30 2711 O 251.089 1.3875 -2.33368 0
M  V30 2712 C 249.545 -0.934249 -3.47563 0
M  V30 2713 C 249.153 -2.41602 -3.7727 0
M  V30 2714 C 250.897 -0.636854 -4.19696 0
M  V30 2715 C 248.804 -2.73932 -5.24133 0
M  V30 2716 H 247.734 -0.202273 -0.726362 0
M  V30 2717 H 250.385 -1.11867 -1.45458 0
M  V30 2718 H 248.767 -0.295115 -3.94899 0
M  V30 2719 H 249.941 -3.10233 -3.40723 0
M  V30 2720 H 248.256 -2.68441 -3.18321 0
M  V30 2721 H 250.853 -0.855005 -5.2782 0
M  V30 2722 H 251.196 0.425575 -4.14119 0
M  V30 2723 H 251.729 -1.23469 -3.78154 0
M  V30 2724 H 248.468 -3.79049 -5.34792 0
M  V30 2725 H 247.988 -2.09942 -5.61858 0
M  V30 2726 H 249.667 -2.61215 -5.91925 0
M  V30 2727 N 249.799 1.42003 -0.683588 0
M  V30 2728 C 251.045 2.01712 -0.209825 0
M  V30 2729 C 251.378 1.53968 1.18353 0
M  V30 2730 O 250.653 0.745661 1.79639 0
M  V30 2731 C 250.936 3.59202 -0.254197 0
M  V30 2732 C 250.789 4.17102 -1.68363 0
M  V30 2733 C 252.108 4.38344 0.392709 0
M  V30 2734 H 249.227 0.732891 -0.0777189 0
M  V30 2735 H 251.869 1.68909 -0.87004 0
M  V30 2736 H 250.019 3.87278 0.307954 0
M  V30 2737 H 251.691 3.99946 -2.29871 0
M  V30 2738 H 249.934 3.72597 -2.22157 0
M  V30 2739 H 250.605 5.26249 -1.6663 0
M  V30 2740 H 253.081 4.16011 -0.0859162 0
M  V30 2741 H 251.957 5.47901 0.331063 0
M  V30 2742 H 252.218 4.16887 1.47164 0
M  V30 2743 N 251.277 0.427512 1.51691 0
M  V30 2744 C 252.209 -0.424521 2.25234 0
M  V30 2745 C 253.222 -0.994671 1.2888 0
M  V30 2746 O 254.411 -0.890483 1.54702 0
M  V30 2747 C 251.511 -1.60479 2.98496 0
M  V30 2748 C 250.684 -1.15527 4.21868 0
M  V30 2749 C 249.743 -2.20454 4.77793 0
M  V30 2750 O 248.769 -1.8029 5.39893 0
M  V30 2751 N 249.971 -3.52831 4.60967 0
M  V30 2752 H 252.736 0.205749 2.98993 0
M  V30 2753 H 250.297 0.255867 1.59865 0
M  V30 2754 H 252.289 -2.30276 3.32799 0
M  V30 2755 H 250.859 -2.14061 2.27809 0
M  V30 2756 H 250.079 -0.284736 3.9317 0
M  V30 2757 H 251.367 -0.832173 5.01949 0
M  V30 2758 H 250.765 -3.88201 4.11481 0
M  V30 2759 H 249.322 -4.18551 4.99658 0
M  V30 2760 N 252.755 -1.56801 0.158532 0
M  V30 2761 C 254.001 -1.96781 -0.490405 0
M  V30 2762 C 254.334 -1.04397 -1.63753 0
M  V30 2763 O 253.609 -0.0885805 -1.94298 0
M  V30 2764 C 253.892 -3.4635 -0.985594 0
M  V30 2765 C 253.745 -4.49512 0.160824 0
M  V30 2766 C 255.064 -3.98697 -1.86355 0
M  V30 2767 H 252.183 -0.715482 -0.176788 0
M  V30 2768 H 254.825 -1.88451 0.242088 0
M  V30 2769 H 252.975 -3.53579 -1.60978 0
M  V30 2770 H 254.647 -4.54353 0.797537 0
M  V30 2771 H 252.89 -4.26013 0.818256 0
M  V30 2772 H 253.561 -5.51531 -0.227569 0
M  V30 2773 H 256.037 -3.94019 -1.33746 0
M  V30 2774 H 254.913 -5.03792 -2.17909 0
M  V30 2775 H 255.174 -3.41744 -2.8047 0
M  V30 2776 N 254.233 0.115231 -1.57178 0
M  V30 2777 C 255.18 1.14115 -2.00615 0
M  V30 2778 C 256.15 1.40939 -0.878941 0
M  V30 2779 O 257.335 1.52741 -1.14345 0
M  V30 2780 C 254.475 2.46156 -2.4187 0
M  V30 2781 C 253.588 2.26236 -3.68024 0
M  V30 2782 C 252.723 3.51534 -3.98243 0
M  V30 2783 C 251.762 3.26787 -5.17568 0
M  V30 2784 N 250.899 4.44298 -5.43639 0
M  V30 2785 H 255.739 0.763743 -2.88047 0
M  V30 2786 H 253.276 0.365615 -1.42484 0
M  V30 2787 H 255.234 3.23189 -2.63827 0
M  V30 2788 H 253.864 2.81783 -1.57475 0
M  V30 2789 H 252.916 1.40102 -3.5366 0
M  V30 2790 H 254.228 2.03929 -4.55208 0
M  V30 2791 H 253.382 4.36984 -4.20868 0
M  V30 2792 H 252.121 3.76876 -3.09541 0
M  V30 2793 H 251.126 2.39729 -4.94783 0
M  V30 2794 H 252.351 3.02812 -6.0785 0
M  V30 2795 H 250.297 4.69754 -4.57895 0
M  V30 2796 H 250.214 4.25109 -6.25154 0
M  V30 2797 H 251.482 5.3087 -5.70786 0
M  V30 2798 N 255.711 1.52812 0.385517 0
M  V30 2799 C 256.641 1.80808 1.47752 0
M  V30 2800 C 257.622 0.660318 1.5676 0
M  V30 2801 O 258.807 0.908246 1.71652 0
M  V30 2802 C 255.937 1.98008 2.85324 0
M  V30 2803 C 254.891 3.13709 2.91154 0
M  V30 2804 C 254.217 3.16169 4.31209 0
M  V30 2805 C 255.517 4.52709 2.60483 0
M  V30 2806 H 257.211 2.72253 1.24573 0
M  V30 2807 H 254.757 1.31003 0.597839 0
M  V30 2808 H 256.71 2.16176 3.61726 0
M  V30 2809 H 255.434 1.03255 3.09848 0
M  V30 2810 H 254.093 2.95329 2.17201 0
M  V30 2811 H 253.741 2.19092 4.52778 0
M  V30 2812 H 253.441 3.93894 4.36029 0
M  V30 2813 H 254.965 3.36496 5.09512 0
M  V30 2814 H 256.379 4.71173 3.26602 0
M  V30 2815 H 254.776 5.32528 2.76648 0
M  V30 2816 H 255.846 4.59186 1.55809 0
M  V30 2817 N 257.189 -0.644168 1.43834 0
M  V30 2818 C 258.437 -1.40117 1.45642 0
M  V30 2819 C 258.758 -1.94814 0.0852413 0
M  V30 2820 O 258.028 -1.74988 -0.880688 0
M  V30 2821 H 256.608 -0.52005 0.536243 0
M  V30 2822 H 259.27 -0.7591 1.7951 0
M  V30 2823 H 258.366 -2.23902 2.17427 0
M  V30 2824 N 258.668 -1.30515 -0.883378 0
M  V30 2825 C 259.893 -1.22487 -1.67367 0
M  V30 2826 C 260.318 0.208767 -1.86938 0
M  V30 2827 O 259.676 1.15015 -1.40148 0
M  V30 2828 C 259.724 -1.96041 -3.02655 0
M  V30 2829 O 258.828 -1.28859 -3.91751 0
M  V30 2830 H 258.169 -0.423573 -0.511353 0
M  V30 2831 H 260.699 -1.72362 -1.10239 0
M  V30 2832 H 260.709 -2.05124 -3.52687 0
M  V30 2833 H 259.384 -3.00307 -2.8773 0
M  V30 2834 H 257.961 -1.28141 -3.50192 0
M  V30 2835 N 260.146 1.09593 -1.13257 0
M  V30 2836 C 261.557 1.63229 -0.906274 0
M  V30 2837 C 261.908 1.8811 0.557578 0
M  V30 2838 O 261.033 1.62953 1.42391 0
M  V30 2839 C 261.628 2.96535 -1.63867 0
M  V30 2840 C 260.187 3.47003 -1.45828 0
M  V30 2841 C 259.334 2.2145 -1.66898 0
M  V30 2842 H 262.285 0.92978 -1.28611 0
M  V30 2843 H 262.306 3.64411 -1.09476 0
M  V30 2844 H 261.818 2.78394 -2.70404 0
M  V30 2845 H 259.919 3.70272 -0.415848 0
M  V30 2846 H 260.032 4.24551 -2.2202 0
M  V30 2847 H 258.396 2.30022 -1.09371 0
M  V30 2848 H 259.179 2.0583 -2.74752 0
M  V30 2849 N 261.624 0.925811 1.2754 0
M  V30 2850 C 262.901 0.483726 1.89524 0
M  V30 2851 C 263.281 -1.03809 1.83812 0
M  V30 2852 O 262.629 -1.89143 1.28207 0
M  V30 2853 C 262.839 1.02769 3.33526 0
M  V30 2854 C 264.187 1.08703 4.10449 0
M  V30 2855 O 265.211 0.977175 3.42534 0
M  V30 2856 O 264.07 1.25599 5.31871 0
M  V30 2857 H 261.164 0.15529 0.812289 0
M  V30 2858 H 263.71 1.01738 1.35822 0
M  V30 2859 H 262.482 2.07155 3.31967 0
M  V30 2860 H 262.105 0.475567 3.94746 0
M  V30 2861 N 263.102 -1.41638 0.69111 0
M  V30 2862 C 264.332 -2.0533 0.228758 0
M  V30 2863 C 264.74 -1.52089 -1.12541 0
M  V30 2864 O 264.083 -0.662145 -1.71351 0
M  V30 2865 C 264.145 -3.59349 0.10407 0
M  V30 2866 C 263.809 -4.35362 1.38956 0
M  V30 2867 C 264.806 -4.64942 2.32648 0
M  V30 2868 C 262.491 -4.74714 1.64169 0
M  V30 2869 C 264.485 -5.32828 3.49818 0
M  V30 2870 C 262.172 -5.42338 2.81625 0
M  V30 2871 C 263.17 -5.71322 3.74273 0
M  V30 2872 O 262.858 -6.37554 4.89673 0
M  V30 2873 H 262.59 -0.667796 0.104997 0
M  V30 2874 H 265.144 -1.82477 0.942938 0
M  V30 2875 H 263.374 -3.80924 -0.665839 0
M  V30 2876 H 265.063 -4.04633 -0.320519 0
M  V30 2877 H 265.829 -4.35025 2.14425 0
M  V30 2878 H 261.708 -4.51538 0.929202 0
M  V30 2879 H 265.252 -5.55368 4.22152 0
M  V30 2880 H 261.149 -5.71673 2.99768 0
M  V30 2881 H 261.917 -6.56049 4.8943 0
M  V30 2882 N 264.58 -0.43555 -1.51462 0
M  V30 2883 C 265.826 0.131709 -2.02372 0
M  V30 2884 C 266.159 1.42516 -1.3192 0
M  V30 2885 O 265.434 1.89606 -0.433573 0
M  V30 2886 C 265.717 0.352301 -3.58373 0
M  V30 2887 C 265.57 -0.959676 -4.39443 0
M  V30 2888 C 266.889 1.12286 -4.25535 0
M  V30 2889 H 264.008 0.0463936 -0.735538 0
M  V30 2890 H 266.65 -0.574197 -1.81116 0
M  V30 2891 H 264.8 0.9536 -3.76615 0
M  V30 2892 H 266.472 -1.59482 -4.32855 0
M  V30 2893 H 264.715 -1.56468 -4.04599 0
M  V30 2894 H 265.386 -0.759394 -5.46752 0
M  V30 2895 H 267.862 0.613545 -4.11552 0
M  V30 2896 H 266.738 1.24598 -5.34571 0
M  V30 2897 H 266.999 2.15048 -3.86273 0
M  V30 2898 N 266.058 1.56714 -0.166846 0
M  V30 2899 C 267.006 2.19056 0.782123 0
M  V30 2900 C 268 1.15328 1.24079 0
M  V30 2901 O 269.206 1.33537 1.20697 0
M  V30 2902 H 265.581 0.70167 0.270486 0
M  V30 2903 H 267.552 2.97494 0.232322 0
M  V30 2904 C 266.301 2.84206 2.00306 0
M  V30 2905 H 265.624 3.63748 1.65914 0
M  V30 2906 H 267.064 3.31302 2.64604 0
M  V30 2907 C 265.523 1.83744 2.82382 0
M  V30 2908 O 266.053 1.32014 3.79388 0
M  V30 2909 N 264.259 1.52601 2.47308 0
M  V30 2910 H 263.806 1.9486 1.68485 0
M  V30 2911 H 263.764 0.856351 3.02513 0
M  V30 2912 N 267.536 -0.106894 1.57237 0
M  V30 2913 C 268.952 -0.46078 1.52804 0
M  V30 2914 C 269.152 -1.81184 0.881746 0
M  V30 2915 O 268.208 -2.48102 0.469224 0
M  V30 2916 C 269.521 -0.434127 2.9755 0
M  V30 2917 C 271.069 -0.516821 3.08704 0
M  V30 2918 C 271.544 -0.520436 4.55033 0
M  V30 2919 N 273.035 -0.58153 4.59535 0
M  V30 2920 C 273.77 -0.605973 5.70189 0
M  V30 2921 N 273.266 -0.587331 6.90306 0
M  V30 2922 N 275.059 -0.649895 5.5833 0
M  V30 2923 H 267.21 0.778203 1.9763 0
M  V30 2924 H 269.473 0.288403 0.903066 0
M  V30 2925 H 269.179 0.491197 3.48253 0
M  V30 2926 H 269.053 -1.25748 3.55622 0
M  V30 2927 H 271.44 -1.43256 2.57995 0
M  V30 2928 H 271.521 0.334449 2.53604 0
M  V30 2929 H 271.165 0.391313 5.0639 0
M  V30 2930 H 271.095 -1.38876 5.07958 0
M  V30 2931 H 273.586 -0.60161 3.73081 0
M  V30 2932 H 273.899 -0.60894 7.70397 0
M  V30 2933 H 272.244 -0.554564 6.92784 0
M  V30 2934 H 275.435 -0.661907 4.63397 0
M  V30 2935 H 275.608 -0.665476 6.44574 0
M  V30 2936 N 269.014 -1.53014 -0.377408 0
M  V30 2937 C 270.291 -1.59215 -1.13622 0
M  V30 2938 C 270.671 -0.392407 -2.07421 0
M  V30 2939 O 270.019 0.618342 -2.19975 0
M  V30 2940 C 270.229 -2.93669 -1.88573 0
M  V30 2941 C 271.577 -3.47822 -2.43526 0
M  V30 2942 O 272.601 -2.9562 -1.98715 0
M  V30 2943 O 271.46 -4.39055 -3.25412 0
M  V30 2944 H 268.554 -0.642625 -0.52054 0
M  V30 2945 H 271.1 -1.65353 -0.381625 0
M  V30 2946 H 269.872 -3.7243 -1.20048 0
M  V30 2947 H 269.495 -2.90968 -2.70968 0
M  V30 2948 N 270.492 0.636531 -1.44174 0
M  V30 2949 C 271.717 1.42847 -1.50364 0
M  V30 2950 C 272.142 1.87665 -0.127867 0
M  V30 2951 O 271.5 1.58408 0.88185 0
M  V30 2952 C 271.548 2.62854 -2.4686 0
M  V30 2953 O 270.652 3.62501 -1.9664 0
M  V30 2954 H 269.993 0.427642 -0.507955 0
M  V30 2955 H 272.523 0.777422 -1.89255 0
M  V30 2956 H 272.533 3.10465 -2.64718 0
M  V30 2957 H 271.208 2.29578 -3.46795 0
M  V30 2958 H 269.785 3.21735 -1.88523 0
M  V30 2959 N 271.97 1.30982 0.876444 0
M  V30 2960 C 273.247 1.10942 1.61094 0
M  V30 2961 C 273.627 -0.338223 2.08373 0
M  V30 2962 O 272.975 -1.33122 1.85717 0
M  V30 2963 C 273.185 2.11789 2.77392 0
M  V30 2964 C 274.533 2.43965 3.47514 0
M  V30 2965 O 275.557 2.10166 2.87591 0
M  V30 2966 O 274.416 3.01817 4.55597 0
M  V30 2967 H 271.51 0.42667 0.708436 0
M  V30 2968 H 274.056 1.42438 0.922474 0
M  V30 2969 H 272.828 3.09194 2.39823 0
M  V30 2970 H 272.451 1.81161 3.5393 0
M  V30 2971 N 273.449 -1.08991 1.13837 0
M  V30 2972 C 274.359 -2.19301 0.833333 0
M  V30 2973 C 275.375 -1.73026 -0.183847 0
M  V30 2974 O 276.551 -2.01395 -0.0138092 0
M  V30 2975 C 273.616 -3.45323 0.308651 0
M  V30 2976 C 272.677 -4.06255 1.38764 0
M  V30 2977 C 271.91 -5.26262 0.887896 0
M  V30 2978 O 272.133 -5.69747 -0.27287 0
M  V30 2979 O 271.067 -5.78435 1.66421 0
M  V30 2980 H 274.893 -2.47854 1.75506 0
M  V30 2981 H 272.478 -1.18012 0.916166 0
M  V30 2982 H 274.36 -4.21394 0.0216739 0
M  V30 2983 H 273.035 -3.18362 -0.585431 0
M  V30 2984 H 271.942 -3.318 1.72799 0
M  V30 2985 H 273.275 -4.37452 2.25602 0
M  V30 2986 N 274.927 -0.932562 -1.27047 0
M  V30 2987 C 275.89 -0.440064 -2.24936 0
M  V30 2988 C 276.89 0.444071 -1.54547 0
M  V30 2989 O 278.08 0.244465 -1.72476 0
M  V30 2990 C 275.212 0.36678 -3.38921 0
M  V30 2991 H 276.405 -1.305 -2.70018 0
M  V30 2992 H 273.958 -0.713707 -1.39054 0
M  V30 2993 H 274.693 1.25033 -2.99228 0
M  V30 2994 H 274.478 -0.267204 -3.91188 0
M  V30 2995 H 275.968 0.701567 -4.11665 0
M  V30 2996 N 276.405 1.4127 -0.698611 0
M  V30 2997 C 277.633 2.05503 -0.239992 0
M  V30 2998 C 278.048 1.52584 1.11191 0
M  V30 2999 O 277.405 0.675323 1.69545 0
M  V30 3000 C 277.456 3.60987 -0.192429 0
M  V30 3001 O 277.177 4.1195 -1.49094 0
M  V30 3002 C 278.678 4.42371 0.28681 0
M  V30 3003 H 275.898 0.661748 -0.111045 0
M  V30 3004 H 278.442 1.80987 -0.95205 0
M  V30 3005 H 276.597 3.84533 0.470472 0
M  V30 3006 H 277.011 5.06018 -1.38007 0
M  V30 3007 H 278.485 5.51344 0.26896 0
M  V30 3008 H 278.962 4.18699 1.32619 0
M  V30 3009 H 279.568 4.23897 -0.345201 0
M  V30 3010 N 277.883 0.443576 1.51229 0
M  V30 3011 C 278.793 -0.370721 2.31652 0
M  V30 3012 C 279.809 -1.02186 1.40833 0
M  V30 3013 O 280.985 -1.01586 1.73903 0
M  V30 3014 C 278.05 -1.45376 3.14749 0
M  V30 3015 C 277.111 -0.822099 4.21355 0
M  V30 3016 C 276.344 -1.85353 5.0048 0
M  V30 3017 O 276.567 -3.07656 4.80316 0
M  V30 3018 O 275.501 -1.4406 5.84406 0
M  V30 3019 H 279.327 0.286002 3.0235 0
M  V30 3020 H 276.912 0.20598 1.47973 0
M  V30 3021 H 278.794 -2.08173 3.66391 0
M  V30 3022 H 277.469 -2.09445 2.46809 0
M  V30 3023 H 276.376 -0.155909 3.73775 0
M  V30 3024 H 277.709 -0.224797 4.91686 0
M  V30 3025 N 279.361 -1.56624 0.175154 0
M  V30 3026 C 280.638 -1.88688 -0.515373 0
M  V30 3027 C 281.018 -1.08564 -1.81044 0
M  V30 3028 O 280.366 -0.180703 -2.27784 0
M  V30 3029 C 280.576 -3.40768 -0.753552 0
M  V30 3030 C 281.924 -4.10587 -1.08184 0
M  V30 3031 O 282.948 -3.46106 -0.841961 0
M  V30 3032 O 281.807 -5.24512 -1.53459 0
M  V30 3033 H 278.901 -0.78301 -0.26613 0
M  V30 3034 H 281.447 -1.68347 0.213877 0
M  V30 3035 H 280.219 -3.90965 0.161829 0
M  V30 3036 H 279.842 -3.66733 -1.53598 0
M  V30 3037 N 280.839 0.0985539 -1.57292 0
M  V30 3038 C 282.086 0.802678 -1.85912 0
M  V30 3039 C 282.414 1.78901 -0.763186 0
M  V30 3040 O 281.669 1.94178 0.243559 0
M  V30 3041 C 281.968 1.56927 -3.21105 0
M  V30 3042 C 281.634 0.725376 -4.45027 0
M  V30 3043 C 280.296 0.492726 -4.78671 0
M  V30 3044 C 282.648 0.138493 -5.21016 0
M  V30 3045 C 279.976 -0.336727 -5.85733 0
M  V30 3046 C 282.328 -0.678264 -6.28953 0
M  V30 3047 C 280.992 -0.921039 -6.61115 0
M  V30 3048 H 280.262 0.293721 -0.680301 0
M  V30 3049 H 282.909 0.0642841 -1.91392 0
M  V30 3050 H 281.214 2.37914 -3.11294 0
M  V30 3051 H 282.911 2.11841 -3.40477 0
M  V30 3052 H 279.501 0.916815 -4.18679 0
M  V30 3053 H 283.685 0.305404 -4.95359 0
M  V30 3054 H 278.941 -0.533836 -6.09065 0
M  V30 3055 H 283.115 -1.1399 -6.87007 0
M  V30 3056 H 280.742 -1.56556 -7.43905 0
M  V30 3057 N 282.317 1.53212 0.369288 0
M  V30 3058 C 283.25 1.74166 1.4745 0
M  V30 3059 C 284.228 0.589923 1.51521 0
M  V30 3060 O 285.412 0.822078 1.69629 0
M  V30 3061 C 282.539 1.81711 2.8583 0
M  V30 3062 C 281.585 3.03649 2.99499 0
M  V30 3063 S 282.418 4.63242 2.6864 0
M  V30 3064 C 283.574 4.7363 4.09177 0
M  V30 3065 H 283.807 2.67636 1.29454 0
M  V30 3066 H 281.34 1.43754 0.563396 0
M  V30 3067 H 283.298 1.86743 3.65564 0
M  V30 3068 H 281.959 0.89299 3.01139 0
M  V30 3069 H 281.152 3.05526 4.00836 0
M  V30 3070 H 280.754 2.9671 2.27683 0
M  V30 3071 H 283.046 4.53456 5.03372 0
M  V30 3072 H 283.989 5.75682 4.12306 0
M  V30 3073 H 284.397 4.02295 3.96004 0
M  V30 3074 N 283.795 -0.628877 1.44509 0
M  V30 3075 C 285.211 -0.947305 1.28446 0
M  V30 3076 C 285.411 -2.00275 0.221872 0
M  V30 3077 O 284.467 -2.49447 -0.391471 0
M  V30 3078 C 285.78 -1.40843 2.65676 0
M  V30 3079 C 287.328 -1.52379 2.73404 0
M  V30 3080 C 287.803 -2.01875 4.11109 0
M  V30 3081 N 289.294 -2.09142 4.13296 0
M  V30 3082 C 290.029 -2.48615 5.16699 0
M  V30 3083 N 289.525 -2.87209 6.30462 0
M  V30 3084 N 291.318 -2.48768 5.04054 0
M  V30 3085 H 283.469 0.0690977 2.12288 0
M  V30 3086 H 285.732 -0.0317164 0.947469 0
M  V30 3087 H 285.438 -0.707206 3.44516 0
M  V30 3088 H 285.312 -2.37902 2.92716 0
M  V30 3089 H 287.699 -2.21598 1.9488 0
M  V30 3090 H 287.78 -0.536898 2.50102 0
M  V30 3091 H 287.424 -1.3325 4.90109 0
M  V30 3092 H 287.354 -3.0144 4.31789 0
M  V30 3093 H 289.845 -1.81991 3.31191 0
M  V30 3094 H 290.158 -3.16149 7.05174 0
M  V30 3095 H 288.503 -2.84955 6.33897 0
M  V30 3096 H 291.694 -2.18009 4.14234 0
M  V30 3097 H 291.867 -2.79207 5.84763 0
M  V30 3098 N 285.273 -1.31445 -0.869486 0
M  V30 3099 C 286.689 -1.10113 -1.15531 0
M  V30 3100 C 286.889 0.128087 -2.01092 0
M  V30 3101 O 285.945 0.817276 -2.38908 0
M  V30 3102 C 287.258 -2.37291 -1.84698 0
M  V30 3103 C 288.806 -2.42906 -1.97397 0
M  V30 3104 C 289.281 -3.69967 -2.69979 0
M  V30 3105 N 290.772 -3.70864 -2.77514 0
M  V30 3106 C 291.507 -4.65875 -3.34287 0
M  V30 3107 N 291.003 -5.71242 -3.91988 0
M  V30 3108 N 292.796 -4.53394 -3.3225 0
M  V30 3109 H 284.947 -2.1028 -0.299347 0
M  V30 3110 H 287.21 -0.927683 -0.195214 0
M  V30 3111 H 286.916 -3.27078 -1.29278 0
M  V30 3112 H 286.79 -2.47125 -2.84972 0
M  V30 3113 H 289.177 -1.53588 -2.51982 0
M  V30 3114 H 289.258 -2.37036 -0.961643 0
M  V30 3115 H 288.902 -4.59652 -2.16062 0
M  V30 3116 H 288.832 -3.73103 -3.7162 0
M  V30 3117 H 291.323 -2.94697 -2.36563 0
M  V30 3118 H 291.636 -6.39817 -4.33421 0
M  V30 3119 H 289.981 -5.75015 -3.90362 0
M  V30 3120 H 293.172 -3.70252 -2.8641 0
M  V30 3121 H 293.345 -5.27617 -3.76197 0
M  V30 3122 N 286.751 1.08385 -1.14413 0
M  V30 3123 C 288 1.80153 -0.907076 0
M  V30 3124 C 288.313 1.87176 0.567851 0
M  V30 3125 O 289.519 2.55359 0.922172 0
M  V30 3126 C 287.975 3.23687 -1.57336 0
M  V30 3127 C 287.583 3.24897 -3.08457 0
M  V30 3128 C 289.327 4.00136 -1.41744 0
M  V30 3129 C 287.234 4.6302 -3.67921 0
M  V30 3130 H 286.164 0.675139 -0.335714 0
M  V30 3131 H 288.815 1.21733 -1.37307 0
M  V30 3132 H 287.197 3.82234 -1.03505 0
M  V30 3133 H 288.371 2.76055 -3.68958 0
M  V30 3134 H 286.686 2.61943 -3.2369 0
M  V30 3135 H 289.283 5.02201 -1.83572 0
M  V30 3136 H 289.626 4.14709 -0.363576 0
M  V30 3137 H 290.159 3.48058 -1.92614 0
M  V30 3138 H 286.898 4.5365 -4.73161 0
M  V30 3139 H 286.418 5.12143 -3.12201 0
M  V30 3140 H 288.097 5.31994 -3.68227 0
M  V30 3141 N 288.23 0.939286 1.26551 0
M  V30 3142 C 289.14 0.453432 2.30176 0
M  V30 3143 C 290.156 -0.471649 1.67486 0
M  V30 3144 O 291.332 -0.35164 1.98306 0
M  V30 3145 C 288.397 -0.275326 3.45605 0
M  V30 3146 C 287.458 0.686084 4.23782 0
M  V30 3147 C 286.691 -0.00798994 5.33699 0
M  V30 3148 O 286.914 -1.22528 5.57085 0
M  V30 3149 O 285.848 0.669746 5.98162 0
M  V30 3150 H 289.674 1.31416 2.73795 0
M  V30 3151 H 287.259 0.705095 1.31715 0
M  V30 3152 H 289.141 -0.685911 4.1578 0
M  V30 3153 H 287.816 -1.11147 3.0402 0
M  V30 3154 H 286.723 1.14658 3.56096 0
M  V30 3155 H 288.056 1.48979 4.69112 0
M  V30 3156 N 289.708 -1.40897 0.706093 0
M  V30 3157 C 290.948 -2.02916 0.245827 0
M  V30 3158 C 291.312 -1.54751 -1.13649 0
M  V30 3159 O 292.513 -2.08768 -1.69321 0
M  V30 3160 C 290.784 -3.56031 0.312537 0
M  V30 3161 S 292.343 -4.38741 -0.0721388 0
M  V30 3162 H 289.161 -0.704186 0.0982007 0
M  V30 3163 H 291.763 -1.72168 0.926207 0
M  V30 3164 H 290.467 -3.88579 1.32039 0
M  V30 3165 H 289.998 -3.91495 -0.386641 0
M  V30 3166 H 292.013 -4.78952 -1.29692 0
M  V30 3167 N 291.186 -0.45159 -1.50991 0
M  V30 3168 C 292.416 0.108177 -2.06317 0
M  V30 3169 C 292.824 1.35774 -1.31765 0
M  V30 3170 O 292.167 1.79838 -0.374694 0
M  V30 3171 C 292.229 0.481659 -3.56259 0
M  V30 3172 C 291.893 -0.663114 -4.52163 0
M  V30 3173 C 292.89 -1.53947 -4.96585 0
M  V30 3174 C 290.575 -0.8479 -4.95092 0
M  V30 3175 C 292.569 -2.58518 -5.82621 0
M  V30 3176 C 290.256 -1.89686 -5.80915 0
M  V30 3177 C 291.254 -2.76388 -6.24579 0
M  V30 3178 O 290.942 -3.79482 -7.08695 0
M  V30 3179 H 290.674 0.00499183 -0.675982 0
M  V30 3180 H 293.228 -0.633659 -1.95381 0
M  V30 3181 H 291.458 1.27641 -3.65027 0
M  V30 3182 H 293.147 0.974233 -3.94035 0
M  V30 3183 H 293.913 -1.4083 -4.64103 0
M  V30 3184 H 289.792 -0.18258 -4.60638 0
M  V30 3185 H 293.336 -3.26224 -6.16623 0
M  V30 3186 H 289.233 -2.02817 -6.12809 0
M  V30 3187 H 290.001 -3.76234 -7.26905 0
M  V30 3188 N 292.664 1.56529 -0.183458 0
M  V30 3189 C 293.574 2.22144 0.754272 0
M  V30 3190 C 294.59 1.21684 1.24374 0
M  V30 3191 O 295.766 1.54385 1.29333 0
M  V30 3192 C 292.831 2.85884 1.96141 0
M  V30 3193 C 291.892 4.01579 1.51765 0
M  V30 3194 C 291.125 4.6227 2.66725 0
M  V30 3195 O 291.348 4.21865 3.83909 0
M  V30 3196 O 290.282 5.51936 2.40104 0
M  V30 3197 H 294.108 3.02861 0.225527 0
M  V30 3198 H 291.693 1.49331 0.0453032 0
M  V30 3199 H 293.575 3.26253 2.66715 0
M  V30 3200 H 292.25 2.08154 2.47899 0
M  V30 3201 H 291.157 3.65856 0.781049 0
M  V30 3202 H 292.49 4.80938 1.04686 0
M  V30 3203 N 294.142 -0.090211 1.57342 0
M  V30 3204 C 295.09 -1.12792 2.03422 0
M  V30 3205 C 296.084 -1.41182 0.936166 0
M  V30 3206 O 297.29 -1.40805 1.12133 0
M  V30 3207 H 293.665 -0.380986 0.648347 0
M  V30 3208 H 295.636 -0.71299 2.89757 0
M  V30 3209 C 294.385 -2.43855 2.47851 0
M  V30 3210 H 293.708 -2.22855 3.31927 0
M  V30 3211 H 295.148 -3.14955 2.83865 0
M  V30 3212 C 293.607 -3.08503 1.3538 0
M  V30 3213 O 294.137 -3.95805 0.685641 0
M  V30 3214 N 292.343 -2.68831 1.10355 0
M  V30 3215 H 291.89 -1.97929 1.64869 0
M  V30 3216 H 291.848 -3.12412 0.353031 0
M  V30 3217 N 295.62 -1.53406 -0.361157 0
M  V30 3218 C 296.845 -1.74024 -1.12829 0
M  V30 3219 C 297.27 -0.470069 -1.82132 0
M  V30 3220 O 296.628 0.57619 -1.719 0
M  V30 3221 C 296.676 -2.90903 -2.13091 0
M  V30 3222 O 295.78 -2.59821 -3.20261 0
M  V30 3223 H 295.121 -0.577804 -0.327168 0
M  V30 3224 H 297.651 -2.00307 -0.41693 0
M  V30 3225 H 297.661 -3.17194 -2.56616 0
M  V30 3226 H 296.336 -3.83034 -1.62042 0
M  V30 3227 H 294.913 -2.44362 -2.81677 0
M  V30 3228 N 297.098 0.621204 -1.44841 0
M  V30 3229 C 298.328 1.40548 -1.51426 0
M  V30 3230 C 298.736 1.88673 -0.141083 0
M  V30 3231 O 298.079 1.62053 0.865128 0
M  V30 3232 C 298.141 2.65325 -2.42576 0
M  V30 3233 C 297.805 2.3893 -3.89566 0
M  V30 3234 C 298.802 2.00138 -4.79834 0
M  V30 3235 C 296.487 2.52263 -4.3436 0
M  V30 3236 C 298.481 1.75021 -6.129 0
M  V30 3237 C 296.168 2.2676 -5.67471 0
M  V30 3238 C 297.166 1.88199 -6.56559 0
M  V30 3239 O 296.854 1.62986 -7.87204 0
M  V30 3240 H 296.586 0.437122 -0.515655 0
M  V30 3241 H 299.14 0.765987 -1.90583 0
M  V30 3242 H 297.37 3.31947 -1.98364 0
M  V30 3243 H 299.059 3.27347 -2.39998 0
M  V30 3244 H 299.825 1.89386 -4.46495 0
M  V30 3245 H 295.704 2.81246 -3.65269 0
M  V30 3246 H 299.248 1.44848 -6.82396 0
M  V30 3247 H 295.145 2.37125 -6.00368 0
M  V30 3248 H 295.913 1.7715 -7.991 0
M  V30 3249 N 298.576 1.31904 0.862503 0
M  V30 3250 C 299.486 1.22161 2.00285 0
M  V30 3251 C 300.502 0.136785 1.73462 0
M  V30 3252 O 301.678 0.355994 1.98229 0
M  V30 3253 C 298.743 0.937093 3.33796 0
M  V30 3254 C 297.804 2.10957 3.73893 0
M  V30 3255 C 297.037 1.83853 5.01033 0
M  V30 3256 O 297.26 0.777274 5.65079 0
M  V30 3257 O 296.194 2.69741 5.38074 0
M  V30 3258 H 300.02 2.18008 2.11439 0
M  V30 3259 H 297.605 1.11716 0.991957 0
M  V30 3260 H 299.487 0.794583 4.13841 0
M  V30 3261 H 298.162 0.00871894 3.23699 0
M  V30 3262 H 297.069 2.30752 2.94456 0
M  V30 3263 H 298.402 3.02046 3.88625 0
M  V30 3264 N 300.054 -1.07777 1.14986 0
M  V30 3265 C 301.279 -1.84558 0.946213 0
M  V30 3266 C 301.704 -1.81323 -0.500362 0
M  V30 3267 O 301.062 -1.20301 -1.35637 0
M  V30 3268 C 301.11 -3.29736 1.45968 0
M  V30 3269 O 300.214 -4.07149 0.65601 0
M  V30 3270 H 299.555 -0.571641 0.33782 0
M  V30 3271 H 302.085 -1.35991 1.52865 0
M  V30 3272 H 302.095 -3.80574 1.47063 0
M  V30 3273 H 300.77 -3.31406 2.51283 0
M  V30 3274 H 299.347 -3.65994 0.714322 0
M  V30 3275 N 301.532 -0.945985 -1.26051 0
M  V30 3276 C 302.462 -0.477172 -2.28572 0
M  V30 3277 C 303.443 0.472032 -1.63419 0
M  V30 3278 O 304.628 0.372853 -1.90587 0
M  V30 3279 C 301.758 0.253975 -3.4637 0
M  V30 3280 C 300.712 -0.609135 -4.23643 0
M  V30 3281 C 300.038 0.252252 -5.34105 0
M  V30 3282 C 301.338 -1.8829 -4.8718 0
M  V30 3283 H 303.032 -1.33402 -2.68038 0
M  V30 3284 H 300.578 -0.642904 -1.28852 0
M  V30 3285 H 302.531 0.593016 -4.17207 0
M  V30 3286 H 301.255 1.145 -3.05871 0
M  V30 3287 H 299.914 -0.931138 -3.54578 0
M  V30 3288 H 299.562 1.14278 -4.89846 0
M  V30 3289 H 299.262 -0.32188 -5.86718 0
M  V30 3290 H 300.786 0.586454 -6.07777 0
M  V30 3291 H 302.2 -1.61081 -5.50205 0
M  V30 3292 H 300.597 -2.40199 -5.49931 0
M  V30 3293 H 301.667 -2.59134 -4.09851 0
M  V30 3294 N 303.011 1.40521 -0.713556 0
M  V30 3295 C 304.288 1.94775 -0.17943 0
M  V30 3296 C 304.668 1.65184 1.31444 0
M  V30 3297 O 304.016 0.968429 2.06963 0
M  V30 3298 C 304.226 3.45543 -0.489986 0
M  V30 3299 C 305.574 4.22442 -0.427536 0
M  V30 3300 O 306.598 3.53644 -0.425929 0
M  V30 3301 O 305.457 5.4501 -0.403292 0
M  V30 3302 H 302.551 0.826606 -0.0255192 0
M  V30 3303 H 305.097 1.5014 -0.790949 0
M  V30 3304 H 303.869 3.60432 -1.5233 0
M  V30 3305 H 303.492 3.97311 0.151598 0
M  V30 3306 N 304.489 0.459591 1.5075 0
M  V30 3307 C 305.399 -0.34613 2.32033 0
M  V30 3308 C 306.415 -1.00686 1.41909 0
M  V30 3309 O 307.591 -0.997361 1.7497 0
M  V30 3310 C 304.656 -1.42029 3.16273 0
M  V30 3311 C 303.717 -0.777362 4.22203 0
M  V30 3312 C 302.95 -1.80034 5.02418 0
M  V30 3313 O 303.173 -3.02544 4.83553 0
M  V30 3314 O 302.107 -1.37853 5.85901 0
M  V30 3315 H 305.933 0.318054 3.0203 0
M  V30 3316 H 303.518 0.221663 1.47746 0
M  V30 3317 H 305.4 -2.04275 3.68578 0
M  V30 3318 H 304.075 -2.06815 2.49016 0
M  V30 3319 H 302.982 -0.116256 3.73919 0
M  V30 3320 H 304.315 -0.172634 4.91897 0
M  V30 3321 N 305.967 -1.56429 0.191757 0
M  V30 3322 C 307.244 -1.89224 -0.495332 0
M  V30 3323 C 307.624 -1.10478 -1.79883 0
M  V30 3324 O 306.972 -0.204852 -2.2758 0
M  V30 3325 C 307.182 -3.41548 -0.717367 0
M  V30 3326 C 308.53 -4.11711 -1.03823 0
M  V30 3327 O 309.554 -3.4698 -0.805204 0
M  V30 3328 O 308.413 -5.2611 -1.47887 0
M  V30 3329 H 305.507 -0.785788 -0.25781 0
M  V30 3330 H 308.053 -1.68111 0.231721 0
M  V30 3331 H 306.825 -3.90772 0.203287 0
M  V30 3332 H 306.448 -3.68342 -1.497 0
M  V30 3333 N 307.445 0.0818655 -1.57387 0
M  V30 3334 C 308.375 1.09885 -2.06028 0
M  V30 3335 C 309.356 1.4098 -0.951774 0
M  V30 3336 O 310.541 1.50781 -1.22387 0
M  V30 3337 C 307.671 2.4151 -2.4958 0
M  V30 3338 C 306.625 2.24792 -3.64215 0
M  V30 3339 C 305.951 3.61712 -3.93787 0
M  V30 3340 C 307.251 1.67749 -4.94629 0
M  V30 3341 H 308.945 0.694128 -2.91243 0
M  V30 3342 H 306.491 0.332448 -1.4011 0
M  V30 3343 H 308.444 3.12939 -2.82219 0
M  V30 3344 H 307.168 2.83943 -1.61381 0
M  V30 3345 H 305.827 1.55807 -3.31843 0
M  V30 3346 H 305.475 4.01697 -3.02735 0
M  V30 3347 H 305.175 3.51368 -4.70971 0
M  V30 3348 H 306.699 4.34587 -4.28913 0
M  V30 3349 H 308.113 2.29032 -5.25564 0
M  V30 3350 H 306.51 1.68128 -5.76067 0
M  V30 3351 H 307.58 0.638059 -4.80684 0
M  V30 3352 N 308.923 1.53595 0.353017 0
M  V30 3353 C 310.2 1.61002 1.11075 0
M  V30 3354 C 310.58 0.425356 2.0677 0
M  V30 3355 O 309.928 -0.583267 2.2093 0
M  V30 3356 C 310.138 2.96631 1.83877 0
M  V30 3357 C 311.486 3.51653 2.37961 0
M  V30 3358 O 312.51 2.98743 1.93987 0
M  V30 3359 O 311.369 4.44177 3.18386 0
M  V30 3360 H 308.463 0.650825 0.510251 0
M  V30 3361 H 311.009 1.6594 0.35527 0
M  V30 3362 H 309.781 3.74293 1.14108 0
M  V30 3363 H 309.404 2.95242 2.66304 0
M  V30 3364 N 310.401 -0.613514 1.45168 0
M  V30 3365 C 311.817 -0.933629 1.29443 0
M  V30 3366 C 312.017 -2.00028 0.243101 0
M  V30 3367 O 311.073 -2.49848 -0.364992 0
M  V30 3368 C 312.386 -1.38018 2.67155 0
M  V30 3369 C 313.934 -1.49471 2.75004 0
M  V30 3370 C 314.409 -1.97503 4.13227 0
M  V30 3371 N 315.9 -2.04746 4.15491 0
M  V30 3372 C 316.635 -2.43121 5.19307 0
M  V30 3373 N 316.131 -2.80506 6.33473 0
M  V30 3374 N 317.924 -2.43408 5.06664 0
M  V30 3375 H 310.075 0.0916097 2.12202 0
M  V30 3376 H 312.338 -0.0216655 0.947752 0
M  V30 3377 H 312.044 -0.670625 3.45247 0
M  V30 3378 H 311.918 -2.34784 2.95222 0
M  V30 3379 H 314.305 -2.19519 1.9722 0
M  V30 3380 H 314.386 -0.510342 2.50657 0
M  V30 3381 H 314.03 -1.28045 4.91495 0
M  V30 3382 H 313.96 -2.96843 4.34962 0
M  V30 3383 H 316.451 -1.78468 3.33103 0
M  V30 3384 H 316.764 -3.08652 7.08487 0
M  V30 3385 H 315.109 -2.78216 6.36884 0
M  V30 3386 H 318.3 -2.13604 4.16523 0
M  V30 3387 H 318.473 -2.72989 5.87691 0
M  V30 3388 N 311.879 -1.3236 -0.855495 0
M  V30 3389 C 313.156 -1.13491 -1.59309 0
M  V30 3390 C 313.536 0.30503 -2.08885 0
M  V30 3391 O 312.884 1.30151 -1.87811 0
M  V30 3392 C 313.094 -2.16176 -2.73987 0
M  V30 3393 C 314.442 -2.49463 -3.43589 0
M  V30 3394 O 315.466 -2.14715 -2.84211 0
M  V30 3395 O 314.325 -3.09027 -4.50738 0
M  V30 3396 H 311.419 -0.437887 -0.701559 0
M  V30 3397 H 313.965 -1.43887 -0.899696 0
M  V30 3398 H 312.737 -3.1297 -2.34873 0
M  V30 3399 H 312.36 -1.86769 -3.51003 0
M  V30 3400 N 313.357 1.07166 -1.15556 0
M  V30 3401 C 314.287 2.16403 -0.877046 0
M  V30 3402 C 315.268 1.69217 0.173111 0
M  V30 3403 O 316.453 1.94181 0.027084 0
M  V30 3404 C 313.583 3.45349 -0.367632 0
M  V30 3405 C 312.537 4.05995 -1.35468 0
M  V30 3406 C 311.863 5.30045 -0.704038 0
M  V30 3407 C 313.163 4.45804 -2.72132 0
M  V30 3408 H 314.857 2.39959 -1.79053 0
M  V30 3409 H 312.403 1.15325 -0.862331 0
M  V30 3410 H 314.356 4.21095 -0.160317 0
M  V30 3411 H 313.08 3.21385 0.581326 0
M  V30 3412 H 311.739 3.32296 -1.54839 0
M  V30 3413 H 311.387 5.02373 0.251128 0
M  V30 3414 H 311.087 5.71579 -1.36277 0
M  V30 3415 H 312.611 6.08495 -0.50654 0
M  V30 3416 H 314.025 5.12671 -2.56595 0
M  V30 3417 H 312.422 4.98296 -3.34397 0
M  V30 3418 H 313.492 3.57083 -3.28054 0
M  V30 3419 N 314.835 0.952656 1.25548 0
M  V30 3420 C 316.06 0.623025 1.97821 0
M  V30 3421 C 316.485 -0.7976 1.70352 0
M  V30 3422 O 315.843 -1.53905 0.958283 0
M  V30 3423 C 315.891 0.885532 3.49558 0
M  V30 3424 O 314.995 -0.0366641 4.12384 0
M  V30 3425 H 314.336 0.237082 0.620232 0
M  V30 3426 H 316.866 1.27871 1.59719 0
M  V30 3427 H 316.876 0.811009 3.99858 0
M  V30 3428 H 315.551 1.92094 3.6888 0
M  V30 3429 H 314.128 0.0898954 3.72792 0
M  V30 3430 N 316.313 -1.40141 0.720998 0
M  V30 3431 C 317.543 -2.04798 0.27226 0
M  V30 3432 C 317.951 -1.54442 -1.09289 0
M  V30 3433 O 317.294 -0.698342 -1.69908 0
M  V30 3434 C 317.356 -3.59048 0.18027 0
M  V30 3435 C 317.02 -4.32317 1.48159 0
M  V30 3436 C 318.017 -4.59902 2.42458 0
M  V30 3437 C 315.702 -4.71125 1.74202 0
M  V30 3438 C 317.696 -5.25288 3.61042 0
M  V30 3439 C 315.383 -5.36242 2.93066 0
M  V30 3440 C 316.381 -5.63254 3.86308 0
M  V30 3441 O 316.069 -6.27024 5.03086 0
M  V30 3442 H 315.801 -0.665419 0.119139 0
M  V30 3443 H 318.355 -1.80436 0.981432 0
M  V30 3444 H 316.585 -3.82251 -0.58489 0
M  V30 3445 H 318.274 -4.05221 -0.234618 0
M  V30 3446 H 319.04 -4.30379 2.23604 0
M  V30 3447 H 314.919 -4.49466 1.02477 0
M  V30 3448 H 318.463 -5.46289 4.33837 0
M  V30 3449 H 314.36 -5.65185 3.11826 0
M  V30 3450 H 315.128 -6.4552 5.03235 0
M  V30 3451 N 317.792 -0.46758 -1.50504 0
M  V30 3452 C 319.041 0.0902868 -2.01498 0
M  V30 3453 C 319.354 1.411 -1.35463 0
M  V30 3454 O 320.56 2.0536 -1.77594 0
M  V30 3455 C 319.016 0.21142 -3.59278 0
M  V30 3456 C 318.624 -1.10065 -4.34269 0
M  V30 3457 C 320.368 0.721433 -4.18325 0
M  V30 3458 C 318.275 -0.943505 -5.83825 0
M  V30 3459 H 317.205 0.037517 -0.753066 0
M  V30 3460 H 319.856 -0.601943 -1.73346 0
M  V30 3461 H 318.238 0.967352 -3.84003 0
M  V30 3462 H 319.412 -1.86726 -4.21272 0
M  V30 3463 H 317.727 -1.5415 -3.86816 0
M  V30 3464 H 320.324 0.85598 -5.27804 0
M  V30 3465 H 320.667 1.71186 -3.79475 0
M  V30 3466 H 321.2 0.0229843 -3.97793 0
M  V30 3467 H 317.939 -1.90719 -6.27141 0
M  V30 3468 H 317.459 -0.217213 -5.99407 0
M  V30 3469 H 319.138 -0.608715 -6.4413 0
M  V30 3470 N 319.27 1.56325 -0.20005 0
M  V30 3471 C 320.217 2.1932 0.718833 0
M  V30 3472 C 321.187 1.14198 1.20615 0
M  V30 3473 O 322.372 1.42469 1.26914 0
M  V30 3474 C 319.512 2.86041 1.93066 0
M  V30 3475 C 318.625 4.05702 1.48425 0
M  V30 3476 C 317.76 4.60266 2.65196 0
M  V30 3477 C 316.799 5.72273 2.17185 0
M  V30 3478 N 315.936 6.21221 3.27152 0
M  V30 3479 H 320.776 2.97486 0.17489 0
M  V30 3480 H 318.313 1.46911 0.0745794 0
M  V30 3481 H 320.271 3.22897 2.64184 0
M  V30 3482 H 318.901 2.1043 2.44783 0
M  V30 3483 H 317.953 3.74475 0.668755 0
M  V30 3484 H 319.265 4.86699 1.09204 0
M  V30 3485 H 318.419 4.99453 3.4443 0
M  V30 3486 H 317.158 3.78386 3.07693 0
M  V30 3487 H 316.163 5.3261 1.36407 0
M  V30 3488 H 317.388 6.55974 1.75713 0
M  V30 3489 H 315.334 5.42263 3.69171 0
M  V30 3490 H 315.251 6.97284 2.92116 0
M  V30 3491 H 316.519 6.65063 4.06585 0
M  V30 3492 N 320.748 -0.0735177 1.57428 0
M  V30 3493 C 321.997 -0.771809 1.86349 0
M  V30 3494 C 322.31 -1.78828 0.792452 0
M  V30 3495 O 323.516 -2.53602 0.96945 0
M  V30 3496 C 321.972 -1.42358 3.30548 0
M  V30 3497 C 321.58 -0.445761 4.45777 0
M  V30 3498 C 323.324 -2.10434 3.6867 0
M  V30 3499 C 321.231 -1.10335 5.81016 0
M  V30 3500 H 320.161 -0.291999 0.695164 0
M  V30 3501 H 322.812 -0.0250749 1.83483 0
M  V30 3502 H 321.194 -2.21852 3.28021 0
M  V30 3503 H 322.368 0.319239 4.59693 0
M  V30 3504 H 320.683 0.130457 4.16196 0
M  V30 3505 H 323.28 -2.60405 4.67004 0
M  V30 3506 H 323.623 -2.90298 2.98383 0
M  V30 3507 H 324.156 -1.37773 3.7318 0
M  V30 3508 H 320.895 -0.345061 6.54591 0
M  V30 3509 H 320.415 -1.83925 5.70904 0
M  V30 3510 H 322.094 -1.62367 6.26295 0
M  V30 3511 N 322.226 -1.5378 -0.344866 0
M  V30 3512 C 323.159 -1.7649 -1.4466 0
M  V30 3513 C 324.137 -0.613954 -1.50563 0
M  V30 3514 O 325.321 -0.84896 -1.683 0
M  V30 3515 C 322.448 -1.86235 -2.82903 0
M  V30 3516 C 321.494 -3.08375 -2.94631 0
M  V30 3517 S 322.327 -4.67457 -2.61236 0
M  V30 3518 C 323.483 -4.80079 -4.0159 0
M  V30 3519 H 323.716 -2.69661 -1.2518 0
M  V30 3520 H 321.249 -1.44632 -0.540455 0
M  V30 3521 H 323.207 -1.92535 -3.62547 0
M  V30 3522 H 321.868 -0.940786 -2.9968 0
M  V30 3523 H 321.061 -3.11865 -3.95925 0
M  V30 3524 H 320.663 -3.00294 -2.22934 0
M  V30 3525 H 322.955 -4.61407 -4.96094 0
M  V30 3526 H 323.898 -5.82168 -4.03095 0
M  V30 3527 H 324.306 -4.08544 -3.89554 0
M  V30 3528 N 323.704 0.605807 -1.45491 0
M  V30 3529 C 324.981 1.36522 -1.40075 0
M  V30 3530 C 325.361 2.10976 -0.0722744 0
M  V30 3531 O 324.709 2.08007 0.945808 0
M  V30 3532 C 324.919 2.31056 -2.61561 0
M  V30 3533 C 326.267 2.93608 -3.06724 0
M  V30 3534 O 327.291 2.41376 -2.61946 0
M  V30 3535 O 326.15 3.88421 -3.84437 0
M  V30 3536 H 323.244 0.612248 -0.555951 0
M  V30 3537 H 325.79 0.628747 -1.57623 0
M  V30 3538 H 324.562 1.75311 -3.49831 0
M  V30 3539 H 324.185 3.12081 -2.46356 0
M  V30 3540 N 325.182 1.32811 0.848464 0
M  V30 3541 C 326.428 1.23907 1.60546 0
M  V30 3542 C 326.761 -0.197161 1.93197 0
M  V30 3543 O 326.036 -1.13596 1.5788 0
M  V30 3544 C 326.319 2.10489 2.92175 0
M  V30 3545 C 326.172 3.62522 2.66266 0
M  V30 3546 C 327.491 1.97075 3.93509 0
M  V30 3547 H 324.61 0.451459 0.58254 0
M  V30 3548 H 327.252 1.62818 0.979296 0
M  V30 3549 H 325.402 1.77434 3.45614 0
M  V30 3550 H 327.074 4.05821 2.19334 0
M  V30 3551 H 325.317 3.84879 2.00126 0
M  V30 3552 H 325.988 4.18437 3.6002 0
M  V30 3553 H 328.464 2.26045 3.49346 0
M  V30 3554 H 327.34 2.59923 4.83457 0
M  V30 3555 H 327.601 0.940186 4.31987 0
M  V30 3556 N 326.66 -1.06551 1.16123 0
M  V30 3557 C 327.908 -1.78947 0.939267 0
M  V30 3558 C 328.229 -1.87532 -0.534476 0
M  V30 3559 O 327.499 -1.38211 -1.38833 0
M  V30 3560 H 326.079 -0.662807 0.344523 0
M  V30 3561 H 328.741 -1.28725 1.46342 0
M  V30 3562 H 327.837 -2.81117 1.35572 0
M  V30 3563 N 328.138 -0.959301 -1.25041 0
M  V30 3564 C 329.07 -0.440543 -2.24926 0
M  V30 3565 C 330.083 0.446131 -1.56568 0
M  V30 3566 O 331.272 0.253657 -1.76689 0
M  V30 3567 C 328.372 0.38412 -3.36716 0
M  V30 3568 C 327.545 -0.490658 -4.34639 0
M  V30 3569 C 326.604 0.276587 -5.25473 0
M  V30 3570 O 325.63 -0.326614 -5.68262 0
M  V30 3571 N 326.832 1.56844 -5.5891 0
M  V30 3572 H 329.597 -1.29931 -2.70071 0
M  V30 3573 H 327.158 -0.830181 -1.38995 0
M  V30 3574 H 329.15 0.905228 -3.94446 0
M  V30 3575 H 327.72 1.14377 -2.90924 0
M  V30 3576 H 326.94 -1.19282 -3.7572 0
M  V30 3577 H 328.228 -1.08756 -4.97041 0
M  V30 3578 H 327.626 2.08036 -5.26059 0
M  V30 3579 H 326.183 2.03541 -6.19205 0
M  V30 3580 N 329.616 1.39756 -0.72842 0
M  V30 3581 C 330.841 2.05472 -0.282159 0
M  V30 3582 C 331.266 1.54549 1.07221 0
M  V30 3583 O 330.624 0.686372 1.67805 0
M  V30 3584 C 330.672 3.59462 -0.286264 0
M  V30 3585 O 329.776 4.05918 0.728298 0
M  V30 3586 H 329.117 0.651226 -0.129618 0
M  V30 3587 H 331.647 1.78915 -0.992499 0
M  V30 3588 H 331.657 4.07798 -0.128373 0
M  V30 3589 H 330.332 3.95889 -1.27456 0
M  V30 3590 H 328.909 3.69012 0.537081 0
M  V30 3591 N 331.094 0.475555 1.50254 0
M  V30 3592 C 332.324 -0.0753399 2.06463 0
M  V30 3593 C 332.732 -1.33661 1.33908 0
M  V30 3594 O 332.075 -1.79219 0.403257 0
M  V30 3595 C 332.137 -0.424921 3.5698 0
M  V30 3596 C 331.801 0.734965 4.51051 0
M  V30 3597 C 332.798 1.61827 4.94073 0
M  V30 3598 C 330.483 0.926557 4.9368 0
M  V30 3599 C 332.477 2.67754 5.78434 0
M  V30 3600 C 330.164 1.98904 5.77824 0
M  V30 3601 C 331.162 2.8629 6.20103 0
M  V30 3602 O 330.85 3.90708 7.02568 0
M  V30 3603 H 330.582 0.00576308 0.675975 0
M  V30 3604 H 333.136 0.664662 1.94349 0
M  V30 3605 H 331.366 -1.21817 3.67012 0
M  V30 3606 H 333.055 -0.911422 3.95535 0
M  V30 3607 H 333.821 1.48196 4.61804 0
M  V30 3608 H 329.7 0.25584 4.6029 0
M  V30 3609 H 333.244 3.35992 6.11355 0
M  V30 3610 H 329.141 2.12541 6.09505 0
M  V30 3611 H 329.909 3.87751 7.20827 0
M  V30 3612 N 332.573 -1.56217 0.208337 0
M  V30 3613 C 333.819 -1.98242 -0.427552 0
M  V30 3614 C 334.152 -1.09554 -1.60348 0
M  V30 3615 O 333.427 -0.15035 -1.93918 0
M  V30 3616 C 333.71 -3.4931 -0.874907 0
M  V30 3617 C 333.563 -4.48773 0.303751 0
M  V30 3618 C 334.882 -4.04424 -1.73577 0
M  V30 3619 H 332.001 -0.720744 -0.153936 0
M  V30 3620 H 334.643 -1.87586 0.30192 0
M  V30 3621 H 332.793 -3.58522 -1.49648 0
M  V30 3622 H 334.465 -4.51586 0.941682 0
M  V30 3623 H 332.708 -4.23194 0.953375 0
M  V30 3624 H 333.379 -5.51976 -0.0519883 0
M  V30 3625 H 335.855 -3.98075 -1.21143 0
M  V30 3626 H 334.731 -5.1047 -2.01771 0
M  V30 3627 H 334.992 -3.50494 -2.69456 0
M  V30 3628 N 334.051 0.0651679 -1.57465 0
M  V30 3629 C 335.297 0.764193 -1.87851 0
M  V30 3630 C 335.63 1.76889 -0.801495 0
M  V30 3631 O 334.905 1.93594 0.187528 0
M  V30 3632 C 335.188 1.46625 -3.28897 0
M  V30 3633 C 335.041 0.477515 -4.47258 0
M  V30 3634 C 336.36 2.4095 -3.68281 0
M  V30 3635 H 333.479 0.276351 -0.683227 0
M  V30 3636 H 336.121 0.0272868 -1.8998 0
M  V30 3637 H 334.271 2.09438 -3.27212 0
M  V30 3638 H 335.943 -0.145922 -4.61069 0
M  V30 3639 H 334.186 -0.206576 -4.33308 0
M  V30 3640 H 334.857 1.0065 -5.42746 0
M  V30 3641 H 337.333 1.88209 -3.71102 0
M  V30 3642 H 336.209 2.87072 -4.67847 0
M  V30 3643 H 336.47 3.26049 -2.98571 0
M  V30 3644 N 335.529 1.53961 0.336706 0
M  V30 3645 C 336.477 1.83136 1.43401 0
M  V30 3646 C 337.471 0.702313 1.54156 0
M  V30 3647 O 338.677 0.885765 1.56698 0
M  V30 3648 H 335.052 0.580309 0.478273 0
M  V30 3649 H 337.023 2.74925 1.16012 0
M  V30 3650 C 335.772 2.06385 2.79822 0
M  V30 3651 H 335.095 2.92718 2.72316 0
M  V30 3652 H 336.535 2.30761 3.55704 0
M  V30 3653 C 334.994 0.851414 3.25964 0
M  V30 3654 O 335.524 0.0541904 4.01663 0
M  V30 3655 N 333.73 0.66672 2.82848 0
M  V30 3656 H 333.277 1.31665 2.21409 0
M  V30 3657 H 333.235 -0.143032 3.14074 0
M  V30 3658 N 337.007 -0.598083 1.45811 0
M  V30 3659 C 338.423 -0.919847 1.30426 0
M  V30 3660 C 338.623 -1.99759 0.264303 0
M  V30 3661 O 337.679 -2.50221 -0.338472 0
M  V30 3662 C 338.992 -1.35176 2.68603 0
M  V30 3663 C 340.54 -1.46546 2.76574 0
M  V30 3664 C 341.015 -1.9311 4.15298 0
M  V30 3665 N 342.506 -2.00328 4.1764 0
M  V30 3666 C 343.241 -2.37599 5.21856 0
M  V30 3667 N 342.737 -2.73771 6.36413 0
M  V30 3668 N 344.53 -2.38021 5.09218 0
M  V30 3669 H 336.681 0.114111 2.12093 0
M  V30 3670 H 338.944 -0.0116121 0.947929 0
M  V30 3671 H 338.65 -0.633969 3.45939 0
M  V30 3672 H 338.524 -2.3164 2.97696 0
M  V30 3673 H 340.911 -2.17415 1.99537 0
M  V30 3674 H 340.992 -0.483727 2.51185 0
M  V30 3675 H 340.636 -1.22824 4.92825 0
M  V30 3676 H 340.566 -2.92213 4.38086 0
M  V30 3677 H 343.057 -1.74925 3.34977 0
M  V30 3678 H 343.37 -3.0112 7.11721 0
M  V30 3679 H 341.715 -2.71445 6.39799 0
M  V30 3680 H 344.906 -2.09174 4.18765 0
M  V30 3681 H 345.079 -2.66741 5.90554 0
M  V30 3682 N 338.485 -1.33259 -0.841409 0
M  V30 3683 C 339.731 -1.24757 -1.59886 0
M  V30 3684 C 340.064 0.186913 -1.93298 0
M  V30 3685 O 339.339 1.12757 -1.5848 0
M  V30 3686 C 339.622 -2.12036 -2.91055 0
M  V30 3687 C 339.475 -3.63929 -2.6434 0
M  V30 3688 C 340.794 -1.9916 -3.92458 0
M  V30 3689 H 337.913 -0.454542 -0.580138 0
M  V30 3690 H 340.555 -1.63335 -0.970647 0
M  V30 3691 H 338.705 -1.79265 -3.44669 0
M  V30 3692 H 340.377 -4.06978 -2.17178 0
M  V30 3693 H 338.62 -3.85935 -1.98082 0
M  V30 3694 H 339.291 -4.20341 -3.57796 0
M  V30 3695 H 341.767 -2.27895 -3.48143 0
M  V30 3696 H 340.643 -2.62484 -4.82072 0
M  V30 3697 H 340.904 -0.963082 -4.31482 0
M  V30 3698 N 339.963 1.05934 -1.16686 0
M  V30 3699 C 340.926 2.11669 -0.879144 0
M  V30 3700 C 341.926 1.60294 0.127445 0
M  V30 3701 O 343.116 1.7389 -0.103865 0
M  V30 3702 C 340.248 3.39438 -0.315425 0
M  V30 3703 H 341.441 2.38626 -1.81653 0
M  V30 3704 H 338.994 1.22058 -0.976299 0
M  V30 3705 H 339.729 3.18132 0.629468 0
M  V30 3706 H 339.514 3.78034 -1.04079 0
M  V30 3707 H 341.004 4.17391 -0.132189 0
M  V30 3708 N 341.441 0.965919 1.2453 0
M  V30 3709 C 342.718 0.543777 1.87889 0
M  V30 3710 C 343.098 -0.97909 1.87021 0
M  V30 3711 O 342.446 -1.84969 1.3416 0
M  V30 3712 C 342.656 1.13327 3.30088 0
M  V30 3713 C 344.004 1.21707 4.06783 0
M  V30 3714 O 345.028 1.08566 3.39252 0
M  V30 3715 O 343.887 1.42456 5.27606 0
M  V30 3716 H 340.981 0.181054 0.806938 0
M  V30 3717 H 343.527 1.06007 1.32516 0
M  V30 3718 H 342.299 2.17612 3.25209 0
M  V30 3719 H 341.922 0.600911 3.93033 0
M  V30 3720 N 342.919 -1.39368 0.735821 0
M  V30 3721 C 343.869 -2.27885 0.0724287 0
M  V30 3722 C 344.853 -1.44301 -0.711756 0
M  V30 3723 O 346.045 -1.67206 -0.58063 0
M  V30 3724 C 343.174 -3.33029 -0.833454 0
M  V30 3725 C 342.26 -4.24078 -0.0433749 0
M  V30 3726 N 342.651 -4.96138 0.983903 0
M  V30 3727 C 340.949 -4.45164 -0.272905 0
M  V30 3728 C 341.65 -5.63069 1.4604 0
M  V30 3729 N 340.626 -5.37991 0.778857 0
M  V30 3730 H 344.428 -2.81052 0.859467 0
M  V30 3731 H 341.942 -1.5206 0.570227 0
M  V30 3732 H 343.939 -3.95311 -1.32419 0
M  V30 3733 H 342.599 -2.81421 -1.61964 0
M  V30 3734 H 343.61 -4.9958 1.36528 0
M  V30 3735 H 340.287 -4.04497 -1.03383 0
M  V30 3736 H 341.677 -6.30755 2.31511 0
M  V30 3737 N 344.397 -0.483516 -1.5 0
M  V30 3738 C 345.646 0.0689102 -2.01582 0
M  V30 3739 C 345.959 1.39655 -1.36952 0
M  V30 3740 O 347.165 2.03465 -1.79762 0
M  V30 3741 C 345.621 0.173302 -3.59483 0
M  V30 3742 C 345.229 -1.14665 -4.33077 0
M  V30 3743 C 346.973 0.677024 -4.19066 0
M  V30 3744 C 344.88 -1.00537 -5.82792 0
M  V30 3745 H 343.81 0.0295277 -0.753422 0
M  V30 3746 H 346.461 -0.620295 -1.72698 0
M  V30 3747 H 344.843 0.926569 -3.85007 0
M  V30 3748 H 346.017 -1.91184 -4.19268 0
M  V30 3749 H 344.332 -1.58244 -3.85159 0
M  V30 3750 H 346.929 0.799952 -5.28682 0
M  V30 3751 H 347.272 1.67151 -3.81269 0
M  V30 3752 H 347.805 -0.0192083 -3.97795 0
M  V30 3753 H 344.544 -1.9736 -6.25083 0
M  V30 3754 H 344.064 -0.280776 -5.99142 0
M  V30 3755 H 345.743 -0.677 -6.43448 0
M  V30 3756 N 345.875 1.56104 -0.216619 0
M  V30 3757 C 346.807 2.17339 0.72776 0
M  V30 3758 C 347.82 1.14109 1.16116 0
M  V30 3759 O 349.009 1.4111 1.09317 0
M  V30 3760 C 346.109 2.73818 1.99693 0
M  V30 3761 C 345.282 4.02168 1.71988 0
M  V30 3762 C 344.341 4.43259 2.83562 0
M  V30 3763 O 343.367 5.10257 2.52244 0
M  V30 3764 N 344.569 4.08535 4.12407 0
M  V30 3765 H 347.334 2.99005 0.203983 0
M  V30 3766 H 344.895 1.61861 -0.0354289 0
M  V30 3767 H 346.887 2.9828 2.73516 0
M  V30 3768 H 345.457 1.96483 2.43132 0
M  V30 3769 H 344.677 3.85612 0.818337 0
M  V30 3770 H 345.965 4.85907 1.50903 0
M  V30 3771 H 345.363 3.54687 4.40696 0
M  V30 3772 H 343.92 4.37901 4.8279 0
M  V30 3773 N 347.353 -0.0568162 1.57498 0
M  V30 3774 C 348.578 -0.769402 1.92601 0
M  V30 3775 C 349.003 -1.69559 0.814336 0
M  V30 3776 O 348.361 -1.79811 -0.231903 0
M  V30 3777 C 348.409 -1.52634 3.26704 0
M  V30 3778 O 347.513 -2.63797 3.16994 0
M  V30 3779 H 346.854 -0.208909 0.63028 0
M  V30 3780 H 349.384 -0.0205798 2.0459 0
M  V30 3781 H 349.394 -1.90234 3.60936 0
M  V30 3782 H 348.069 -0.846875 4.07186 0
M  V30 3783 H 346.646 -2.28943 2.94346 0
M  V30 3784 N 348.832 -1.54138 -0.328536 0
M  V30 3785 C 350.248 -1.44736 -0.672574 0
M  V30 3786 C 350.448 -0.616217 -1.91846 0
M  V30 3787 O 349.504 -0.113067 -2.52247 0
M  V30 3788 C 350.817 -2.884 -0.851217 0
M  V30 3789 C 352.365 -2.98271 -0.948877 0
M  V30 3790 C 352.84 -4.43074 -1.15973 0
M  V30 3791 N 354.331 -4.46665 -1.22658 0
M  V30 3792 C 355.066 -5.55857 -1.40751 0
M  V30 3793 N 354.562 -6.75026 -1.5592 0
M  V30 3794 N 356.355 -5.43495 -1.4342 0
M  V30 3795 H 348.506 -2.06661 0.490421 0
M  V30 3796 H 350.769 -0.934812 0.157579 0
M  V30 3797 H 350.475 -3.51699 -0.00704236 0
M  V30 3798 H 350.349 -3.34225 -1.74853 0
M  V30 3799 H 352.736 -2.35102 -1.78356 0
M  V30 3800 H 352.817 -2.55785 -0.0281435 0
M  V30 3801 H 352.461 -5.06827 -0.329915 0
M  V30 3802 H 352.391 -4.83165 -2.09426 0
M  V30 3803 H 354.882 -3.60797 -1.124 0
M  V30 3804 H 355.195 -7.54004 -1.69404 0
M  V30 3805 H 353.54 -6.77944 -1.53027 0
M  V30 3806 H 356.731 -4.49349 -1.31162 0
M  V30 3807 H 356.904 -6.28649 -1.57178 0
M  V30 3808 N 350.31 0.590341 -1.46126 0
M  V30 3809 C 351.559 1.34499 -1.50309 0
M  V30 3810 C 351.872 1.94977 -0.156021 0
M  V30 3811 O 353.078 2.71395 -0.0756037 0
M  V30 3812 C 351.534 2.43723 -2.64815 0
M  V30 3813 C 351.142 1.89582 -4.0591 0
M  V30 3814 C 352.886 3.20579 -2.78262 0
M  V30 3815 C 350.793 2.9639 -5.11769 0
M  V30 3816 H 349.723 0.505593 -0.559368 0
M  V30 3817 H 352.374 0.630848 -1.72315 0
M  V30 3818 H 350.756 3.17902 -2.36124 0
M  V30 3819 H 351.93 1.21997 -4.44357 0
M  V30 3820 H 350.245 1.25418 -3.97063 0
M  V30 3821 H 352.842 4.00276 -3.54519 0
M  V30 3822 H 353.185 3.72684 -1.85505 0
M  V30 3823 H 353.718 2.53505 -3.06562 0
M  V30 3824 H 350.457 2.49181 -6.06291 0
M  V30 3825 H 349.977 3.62487 -4.77873 0
M  V30 3826 H 351.656 3.60474 -5.37278 0
M  V30 3827 N 351.788 1.33704 0.83433 0
M  V30 3828 C 353.034 1.25603 1.59222 0
M  V30 3829 C 353.367 -0.176659 1.93395 0
M  V30 3830 O 352.642 -1.11915 1.59076 0
M  V30 3831 C 352.925 2.13576 2.89926 0
M  V30 3832 C 352.778 3.65326 2.62406 0
M  V30 3833 C 354.097 2.01238 3.91397 0
M  V30 3834 H 351.216 0.457613 0.577719 0
M  V30 3835 H 353.858 1.63848 0.961972 0
M  V30 3836 H 352.008 1.8109 3.43713 0
M  V30 3837 H 353.68 4.08124 2.15017 0
M  V30 3838 H 351.923 3.8698 1.96033 0
M  V30 3839 H 352.594 4.22232 3.55562 0
M  V30 3840 H 355.07 2.29738 3.46929 0
M  V30 3841 H 353.946 2.65036 4.80673 0
M  V30 3842 H 354.207 0.985951 4.30966 0
M  V30 3843 N 353.266 -1.05314 1.17247 0
M  V30 3844 C 354.496 -1.81707 0.983166 0
M  V30 3845 C 354.904 -1.83222 -0.471822 0
M  V30 3846 O 354.247 -1.25721 -1.3394 0
M  V30 3847 C 354.309 -3.29134 1.44606 0
M  V30 3848 C 353.973 -3.51304 2.92292 0
M  V30 3849 C 354.97 -3.4353 3.90235 0
M  V30 3850 C 352.655 -3.78306 3.30439 0
M  V30 3851 C 354.649 -3.62442 5.24323 0
M  V30 3852 C 352.336 -3.96866 4.64694 0
M  V30 3853 C 353.334 -3.88933 5.61445 0
M  V30 3854 O 353.022 -4.06976 6.93272 0
M  V30 3855 H 352.754 -0.579476 0.348114 0
M  V30 3856 H 355.308 -1.33705 1.55924 0
M  V30 3857 H 353.538 -3.78046 0.813537 0
M  V30 3858 H 355.227 -3.87049 1.22262 0
M  V30 3859 H 355.993 -3.22648 3.62109 0
M  V30 3860 H 351.872 -3.83585 2.55702 0
M  V30 3861 H 355.416 -3.56165 5.99827 0
M  V30 3862 H 351.313 -4.1724 4.92525 0
M  V30 3863 H 352.081 -4.24209 6.99992 0
M  V30 3864 N 354.744 -0.972509 -1.24016 0
M  V30 3865 C 355.974 -0.653853 -1.9598 0
M  V30 3866 C 356.382 0.781801 -1.72292 0
M  V30 3867 O 355.725 1.53677 -1.00644 0
M  V30 3868 C 355.787 -0.854608 -3.49194 0
M  V30 3869 C 355.451 -2.27082 -3.96589 0
M  V30 3870 C 356.448 -3.24892 -4.05883 0
M  V30 3871 C 354.133 -2.5998 -4.29786 0
M  V30 3872 C 356.127 -4.53684 -4.47716 0
M  V30 3873 C 353.814 -3.88997 -4.71301 0
M  V30 3874 C 354.812 -4.85661 -4.80232 0
M  V30 3875 O 354.5 -6.12376 -5.20818 0
M  V30 3876 H 354.232 -0.242572 -0.630979 0
M  V30 3877 H 356.786 -1.30431 -1.58673 0
M  V30 3878 H 355.016 -0.146985 -3.86421 0
M  V30 3879 H 356.705 -0.534311 -4.02368 0
M  V30 3880 H 357.471 -3.00805 -3.80449 0
M  V30 3881 H 353.35 -1.85457 -4.22051 0
M  V30 3882 H 356.894 -5.29135 -4.54601 0
M  V30 3883 H 352.791 -4.12882 -4.96184 0
M  V30 3884 H 353.559 -6.16013 -5.38953 0
M  V30 3885 N 356.222 1.38976 -0.743202 0
M  V30 3886 C 357.152 2.33171 -0.123873 0
M  V30 3887 C 358.133 1.54336 0.71516 0
M  V30 3888 O 359.318 1.82696 0.658467 0
M  V30 3889 C 356.448 3.38474 0.777978 0
M  V30 3890 C 355.402 4.27979 0.0424758 0
M  V30 3891 C 354.728 5.2405 1.06189 0
M  V30 3892 C 356.028 5.10155 -1.1198 0
M  V30 3893 H 357.722 2.85213 -0.910709 0
M  V30 3894 H 355.268 1.37133 -0.439388 0
M  V30 3895 H 357.221 4.03328 1.22084 0
M  V30 3896 H 355.945 2.84891 1.59702 0
M  V30 3897 H 354.604 3.64616 -0.380853 0
M  V30 3898 H 354.252 4.66758 1.87472 0
M  V30 3899 H 353.952 5.84785 0.574485 0
M  V30 3900 H 355.476 5.9178 1.50428 0
M  V30 3901 H 356.89 5.68307 -0.75499 0
M  V30 3902 H 355.287 5.80073 -1.53738 0
M  V30 3903 H 356.357 4.44504 -1.93764 0
M  V30 3904 N 357.7 0.491464 1.49741 0
M  V30 3905 C 358.633 -0.338464 2.25676 0
M  V30 3906 C 359.611 -0.978676 1.29849 0
M  V30 3907 O 360.795 -1.01064 1.59117 0
M  V30 3908 C 357.922 -1.47588 3.04853 0
M  V30 3909 C 356.968 -0.951 4.15762 0
M  V30 3910 S 357.801 0.150626 5.35288 0
M  V30 3911 C 358.957 -0.990178 6.18018 0
M  V30 3912 H 359.19 0.306068 2.9572 0
M  V30 3913 H 356.723 0.276622 1.51902 0
M  V30 3914 H 358.681 -2.12764 3.51058 0
M  V30 3915 H 357.342 -2.09199 2.34296 0
M  V30 3916 H 356.535 -1.80311 4.70642 0
M  V30 3917 H 356.137 -0.376607 3.72099 0
M  V30 3918 H 358.429 -1.89748 6.50386 0
M  V30 3919 H 359.372 -0.480205 7.0647 0
M  V30 3920 H 359.78 -1.25321 5.50413 0
M  V30 3921 N 359.178 -1.55987 0.224894 0
M  V30 3922 C 360.126 -2.21808 -0.700283 0
M  V30 3923 C 361.12 -1.19854 -1.19714 0
M  V30 3924 O 362.326 -1.37925 -1.15658 0
M  V30 3925 H 358.701 -0.711226 -0.244258 0
M  V30 3926 H 360.672 -2.98152 -0.121749 0
M  V30 3927 C 359.421 -2.91444 -1.8962 0
M  V30 3928 H 358.744 -3.69655 -1.52299 0
M  V30 3929 H 360.184 -3.40894 -2.52125 0
M  V30 3930 C 358.643 -1.94098 -2.75368 0
M  V30 3931 O 359.173 -1.46004 -3.74227 0
M  V30 3932 N 357.379 -1.61675 -2.41474 0
M  V30 3933 H 356.926 -2.00979 -1.61137 0
M  V30 3934 H 356.884 -0.968036 -2.99126 0
M  V30 3935 N 360.656 0.0484629 -1.57525 0
M  V30 3936 C 361.905 0.742065 -1.87553 0
M  V30 3937 C 362.218 1.77545 -0.820802 0
M  V30 3938 O 363.424 2.52027 -1.00967 0
M  V30 3939 C 361.88 1.37081 -3.32771 0
M  V30 3940 C 361.488 0.374786 -4.4643 0
M  V30 3941 C 363.232 2.04542 -3.71972 0
M  V30 3942 C 361.139 1.01077 -5.82698 0
M  V30 3943 H 360.069 0.280903 -0.699721 0
M  V30 3944 H 362.72 -0.00411877 -1.835 0
M  V30 3945 H 361.102 2.16605 -3.31509 0
M  V30 3946 H 362.276 -0.392331 -4.59127 0
M  V30 3947 H 360.591 -0.196653 -4.15935 0
M  V30 3948 H 363.188 2.52943 -4.71088 0
M  V30 3949 H 363.531 2.85515 -3.02964 0
M  V30 3950 H 364.064 1.31819 -3.75325 0
M  V30 3951 H 360.803 0.240878 -6.55057 0
M  V30 3952 H 360.323 1.74819 -5.73758 0
M  V30 3953 H 362.002 1.52383 -6.28799 0
M  V30 3954 N 362.134 1.5431 0.320358 0
M  V30 3955 C 363.084 1.803 1.39556 0
M  V30 3956 C 364.068 0.659166 1.46778 0
M  V30 3957 O 365.26 0.91926 1.51257 0
M  V30 3958 C 362.389 2.03665 2.76361 0
M  V30 3959 C 361.475 3.24178 2.73439 0
M  V30 3960 N 361.866 4.4516 2.40137 0
M  V30 3961 C 360.164 3.25816 3.04565 0
M  V30 3962 C 360.865 5.27109 2.4603 0
M  V30 3963 N 359.841 4.64368 2.82601 0
M  V30 3964 H 363.643 2.71416 1.12742 0
M  V30 3965 H 361.157 1.53548 0.528856 0
M  V30 3966 H 363.154 2.20425 3.53862 0
M  V30 3967 H 361.814 1.13805 3.04103 0
M  V30 3968 H 362.825 4.72104 2.12927 0
M  V30 3969 H 359.502 2.46001 3.37328 0
M  V30 3970 H 360.892 6.33728 2.23246 0
M  V30 3971 N 363.613 -0.582584 1.46437 0
M  V30 3972 C 364.859 -1.34278 1.51978 0
M  V30 3973 C 365.192 -1.93446 0.170973 0
M  V30 3974 O 364.467 -1.76481 -0.817608 0
M  V30 3975 C 364.75 -2.47203 2.61845 0
M  V30 3976 C 364.603 -1.93069 4.06257 0
M  V30 3977 C 365.922 -3.49247 2.67795 0
M  V30 3978 H 363.041 -0.486876 0.553282 0
M  V30 3979 H 365.683 -0.654437 1.78374 0
M  V30 3980 H 363.833 -3.0592 2.39469 0
M  V30 3981 H 365.505 -1.38808 4.3992 0
M  V30 3982 H 363.748 -1.23898 4.1573 0
M  V30 3983 H 364.419 -2.74586 4.7886 0
M  V30 3984 H 366.895 -3.00411 2.8791 0
M  V30 3985 H 365.771 -4.25719 3.46489 0
M  V30 3986 H 366.032 -4.06482 1.73852 0
M  V30 3987 N 365.091 -1.34144 -0.827227 0
M  V30 3988 C 366.319 -1.29325 -1.61501 0
M  V30 3989 C 366.734 0.13354 -1.88327 0
M  V30 3990 O 366.091 1.0793 -1.47164 0
M  V30 3991 C 366.142 -2.07746 -2.95844 0
M  V30 3992 O 365.863 -3.4486 -2.70191 0
M  V30 3993 C 367.364 -2.10273 -3.90256 0
M  V30 3994 H 364.584 -0.445069 -0.50215 0
M  V30 3995 H 367.128 -1.76693 -1.02955 0
M  V30 3996 H 365.283 -1.6403 -3.5096 0
M  V30 3997 H 365.697 -3.85345 -3.55822 0
M  V30 3998 H 367.171 -2.69575 -4.81698 0
M  V30 3999 H 367.648 -1.096 -4.25305 0
M  V30 4000 H 368.254 -2.54059 -3.41078 0
M  V30 4001 N 366.569 1.04691 -1.17803 0
M  V30 4002 C 367.98 1.59238 -0.974689 0
M  V30 4003 C 368.331 1.90306 0.477292 0
M  V30 4004 O 367.456 1.68846 1.35352 0
M  V30 4005 C 368.051 2.89318 -1.76296 0
M  V30 4006 C 366.61 3.40506 -1.60414 0
M  V30 4007 C 365.757 2.14172 -1.76141 0
M  V30 4008 H 368.708 0.874395 -1.32439 0
M  V30 4009 H 368.729 3.5944 -1.24833 0
M  V30 4010 H 368.241 2.66675 -2.81968 0
M  V30 4011 H 366.342 3.68175 -0.572519 0
M  V30 4012 H 366.455 4.14753 -2.39827 0
M  V30 4013 H 364.819 2.25176 -1.19028 0
M  V30 4014 H 365.602 1.93992 -2.83235 0
M  V30 4015 N 368.047 0.979072 1.23499 0
M  V30 4016 C 369.463 0.687475 1.44034 0
M  V30 4017 C 369.663 -0.746801 1.8715 0
M  V30 4018 O 368.719 -1.51939 2.0167 0
M  V30 4019 C 370.032 1.68127 2.49307 0
M  V30 4020 C 371.58 1.69516 2.63122 0
M  V30 4021 C 372.055 2.67723 3.71603 0
M  V30 4022 N 373.546 2.66233 3.79044 0
M  V30 4023 C 374.281 3.38891 4.62537 0
M  V30 4024 N 373.777 4.21103 5.50131 0
M  V30 4025 N 375.57 3.27661 4.56721 0
M  V30 4026 H 367.721 1.90559 0.938135 0
M  V30 4027 H 369.984 0.821051 0.473897 0
M  V30 4028 H 369.69 2.70693 2.2454 0
M  V30 4029 H 369.564 1.46306 3.4767 0
M  V30 4030 H 371.951 0.676561 2.8724 0
M  V30 4031 H 372.032 1.95404 1.65079 0
M  V30 4032 H 371.676 3.69724 3.48233 0
M  V30 4033 H 371.606 2.39111 4.69184 0
M  V30 4034 H 374.097 2.06568 3.16446 0
M  V30 4035 H 374.41 4.73403 6.10827 0
M  V30 4036 H 372.755 4.25195 5.49759 0
M  V30 4037 H 375.946 2.62887 3.87309 0
M  V30 4038 H 376.119 3.84547 5.21562 0
M  V30 4039 N 369.525 -1.3858 0.750561 0
M  V30 4040 C 370.75 -2.04997 0.314812 0
M  V30 4041 C 371.175 -1.56235 -1.04749 0
M  V30 4042 O 370.533 -0.712981 -1.66692 0
M  V30 4043 C 370.581 -3.58961 0.343415 0
M  V30 4044 O 369.685 -4.07025 -0.663628 0
M  V30 4045 H 369.026 -0.649081 0.139962 0
M  V30 4046 H 371.556 -1.77313 1.02084 0
M  V30 4047 H 371.566 -4.07542 0.193233 0
M  V30 4048 H 370.241 -3.93811 1.33738 0
M  V30 4049 H 368.818 -3.6982 -0.478307 0
M  V30 4050 N 371.003 -0.499398 -1.49478 0
M  V30 4051 C 372.252 0.0475259 -2.01644 0
M  V30 4052 C 372.565 1.38195 -1.38425 0
M  V30 4053 O 373.771 2.01547 -1.8191 0
M  V30 4054 C 372.227 0.135164 -3.59646 0
M  V30 4055 C 371.835 -1.19252 -4.31837 0
M  V30 4056 C 373.579 0.632538 -4.19761 0
M  V30 4057 C 371.486 -1.06713 -5.81693 0
M  V30 4058 H 370.416 0.0215349 -0.753692 0
M  V30 4059 H 373.067 -0.638577 -1.7203 0
M  V30 4060 H 371.449 0.885681 -3.85969 0
M  V30 4061 H 372.623 -1.9562 -4.17216 0
M  V30 4062 H 370.938 -1.62321 -3.83459 0
M  V30 4063 H 373.535 0.743833 -5.29501 0
M  V30 4064 H 373.878 1.63098 -3.83021 0
M  V30 4065 H 374.411 -0.0613987 -3.97753 0
M  V30 4066 H 371.15 -2.03979 -6.22955 0
M  V30 4067 H 370.67 -0.344307 -5.98811 0
M  V30 4068 H 372.349 -0.745208 -6.42694 0
M  V30 4069 N 372.481 1.55866 -0.233164 0
M  V30 4070 C 373.711 2.02704 0.399325 0
M  V30 4071 C 374.119 1.11204 1.53069 0
M  V30 4072 O 373.462 0.116182 1.83332 0
M  V30 4073 C 373.524 3.45844 0.981429 0
M  V30 4074 C 373.188 4.56997 -0.0159561 0
M  V30 4075 C 374.185 5.13384 -0.820552 0
M  V30 4076 C 371.87 5.0211 -0.138072 0
M  V30 4077 C 373.864 6.13365 -1.73386 0
M  V30 4078 C 371.551 6.01926 -1.0549 0
M  V30 4079 C 372.549 6.57431 -1.85132 0
M  V30 4080 O 372.237 7.55302 -2.75272 0
M  V30 4081 H 371.969 0.668459 0.100692 0
M  V30 4082 H 374.523 2.02387 -0.35052 0
M  V30 4083 H 372.753 3.43267 1.78058 0
M  V30 4084 H 374.442 3.76262 1.52255 0
M  V30 4085 H 375.208 4.79372 -0.736721 0
M  V30 4086 H 371.087 4.5858 0.471737 0
M  V30 4087 H 374.631 6.56614 -2.35592 0
M  V30 4088 H 370.528 6.35359 -1.1397 0
M  V30 4089 H 371.296 7.72867 -2.69477 0
M  V30 4090 N 373.959 -0.0401083 1.57549 0
M  V30 4091 C 374.889 -1.04384 2.08869 0
M  V30 4092 C 375.87 -1.38407 0.988817 0
M  V30 4093 O 377.055 -1.47483 1.26342 0
M  V30 4094 C 374.185 -2.34808 2.55895 0
M  V30 4095 C 373.139 -2.15057 3.70047 0
M  V30 4096 C 372.465 -3.51145 4.03239 0
M  V30 4097 C 373.765 -1.54576 4.98902 0
M  V30 4098 H 375.459 -0.616666 2.92981 0
M  V30 4099 H 373.005 -0.295184 1.40942 0
M  V30 4100 H 374.958 -3.05346 2.90417 0
M  V30 4101 H 373.682 -2.79565 1.68853 0
M  V30 4102 H 372.341 -1.46954 3.35857 0
M  V30 4103 H 371.989 -3.93529 3.13279 0
M  V30 4104 H 371.689 -3.38758 4.80122 0
M  V30 4105 H 373.213 -4.23062 4.40285 0
M  V30 4106 H 374.627 -2.15017 5.31451 0
M  V30 4107 H 373.024 -1.52796 5.80322 0
M  V30 4108 H 374.094 -0.51039 4.82206 0
M  V30 4109 N 375.437 -1.54477 -0.31217 0
M  V30 4110 C 376.677 -1.74958 -1.05684 0
M  V30 4111 C 377.041 -0.518414 -1.84869 0
M  V30 4112 O 378.242 -0.600759 -2.62001 0
M  V30 4113 C 376.513 -2.99656 -1.94785 0
M  V30 4114 S 378.072 -3.4109 -2.76049 0
M  V30 4115 H 374.89 -0.615104 -0.356606 0
M  V30 4116 H 377.492 -1.92669 -0.331514 0
M  V30 4117 H 376.196 -3.87397 -1.35468 0
M  V30 4118 H 375.727 -2.845 -2.71704 0
M  V30 4119 H 377.742 -2.97283 -3.97287 0
M  V30 4120 N 376.915 0.57481 -1.46744 0
M  V30 4121 C 378.331 0.898981 -1.31873 0
M  V30 4122 C 378.531 1.99313 -0.29605 0
M  V30 4123 O 377.587 2.50728 0.298621 0
M  V30 4124 C 378.9 1.30886 -2.7072 0
M  V30 4125 C 380.448 1.42127 -2.78871 0
M  V30 4126 C 380.923 1.86478 -4.18318 0
M  V30 4127 N 382.414 1.93658 -4.20774 0
M  V30 4128 C 383.149 2.29267 -5.2557 0
M  V30 4129 N 382.645 2.63612 -6.40688 0
M  V30 4130 N 384.438 2.29889 -5.1294 0
M  V30 4131 H 376.589 -0.147839 -2.11885 0
M  V30 4132 H 378.852 -0.00347013 -0.947994 0
M  V30 4133 H 378.558 0.578853 -3.46904 0
M  V30 4134 H 378.432 2.26874 -3.01343 0
M  V30 4135 H 380.819 2.14213 -2.0297 0
M  V30 4136 H 380.9 0.443705 -2.51922 0
M  V30 4137 H 380.544 1.14968 -4.94717 0
M  V30 4138 H 380.474 2.85207 -4.42679 0
M  V30 4139 H 382.965 1.69574 -3.37718 0
M  V30 4140 H 383.278 2.89759 -7.16421 0
M  V30 4141 H 381.623 2.61232 -6.44036 0
M  V30 4142 H 384.814 2.02485 -4.22039 0
M  V30 4143 H 384.987 2.57312 -5.94722 0
M  V30 4144 N 378.394 1.34581 0.820102 0
M  V30 4145 C 379.344 1.22943 1.92013 0
M  V30 4146 C 380.328 0.127802 1.60392 0
M  V30 4147 O 381.52 0.357737 1.73347 0
M  V30 4148 C 378.649 0.989938 3.28717 0
M  V30 4149 C 377.735 2.13486 3.66449 0
M  V30 4150 N 378.126 3.38625 3.75722 0
M  V30 4151 C 376.424 2.04573 3.96315 0
M  V30 4152 C 377.125 4.13832 4.08801 0
M  V30 4153 N 376.101 3.42451 4.22171 0
M  V30 4154 H 379.903 2.17771 1.97365 0
M  V30 4155 H 377.417 1.2686 1.01392 0
M  V30 4156 H 379.414 0.887462 4.07345 0
M  V30 4157 H 378.074 0.0503691 3.24661 0
M  V30 4158 H 379.085 3.73143 3.59144 0
M  V30 4159 H 375.762 1.1839 4.00362 0
M  V30 4160 H 377.152 5.21909 4.23156 0
M  V30 4161 N 379.872 -1.04064 1.18357 0
M  V30 4162 C 381.12 -1.76915 0.977013 0
M  V30 4163 C 381.441 -1.88624 -0.494577 0
M  V30 4164 O 380.711 -1.41125 -1.3587 0
M  V30 4165 H 379.291 -0.65535 0.358504 0
M  V30 4166 H 381.953 -1.25592 1.49039 0
M  V30 4167 H 381.049 -2.78178 1.41504 0
M  V30 4168 N 381.35 -0.985608 -1.22978 0
M  V30 4169 C 382.26 -0.538548 -2.28335 0
M  V30 4170 C 383.276 0.409163 -1.69121 0
M  V30 4171 O 384.452 0.277797 -1.99475 0
M  V30 4172 C 381.517 0.146867 -3.46389 0
M  V30 4173 C 380.578 -0.842896 -4.20944 0
M  V30 4174 C 379.811 -0.190095 -5.33361 0
M  V30 4175 O 380.034 1.01767 -5.61248 0
M  V30 4176 O 378.968 -0.891289 -5.95264 0
M  V30 4177 H 382.794 -1.41487 -2.68729 0
M  V30 4178 H 380.379 -0.753495 -1.29007 0
M  V30 4179 H 382.261 0.531125 -4.1804 0
M  V30 4180 H 380.936 0.997871 -3.07935 0
M  V30 4181 H 379.843 -1.27795 -3.51595 0
M  V30 4182 H 381.176 -1.66287 -4.6326 0
M  V30 4183 N 382.828 1.3818 -0.7579 0
M  V30 4184 C 384.053 2.04827 -0.325679 0
M  V30 4185 C 384.478 1.56788 1.03919 0
M  V30 4186 O 383.836 0.721811 1.66312 0
M  V30 4187 C 383.884 3.58774 -0.362447 0
M  V30 4188 O 382.988 4.07372 0.642033 0
M  V30 4189 H 382.329 0.64833 -0.143402 0
M  V30 4190 H 384.859 1.7677 -1.03023 0
M  V30 4191 H 384.869 4.07434 -0.214844 0
M  V30 4192 H 383.544 3.93096 -1.35824 0
M  V30 4193 H 382.121 3.70068 0.458688 0
M  V30 4194 N 384.306 0.507319 1.49211 0
M  V30 4195 C 385.216 -0.272136 2.33016 0
M  V30 4196 C 386.232 -0.961206 1.45041 0
M  V30 4197 O 387.408 -0.941191 1.78055 0
M  V30 4198 C 384.473 -1.31895 3.20631 0
M  V30 4199 C 383.534 -0.642648 4.24463 0
M  V30 4200 C 382.767 -1.63959 5.07891 0
M  V30 4201 O 382.99 -2.87007 4.92933 0
M  V30 4202 O 381.924 -1.19143 5.8999 0
M  V30 4203 H 385.75 0.413982 3.00865 0
M  V30 4204 H 383.335 0.268556 1.46966 0
M  V30 4205 H 385.217 -1.92446 3.7489 0
M  V30 4206 H 383.892 -1.98788 2.5547 0
M  V30 4207 H 382.799 0.00276252 3.741 0
M  V30 4208 H 384.132 -0.0160534 4.92197 0
M  V30 4209 N 385.784 -1.5574 0.241426 0
M  V30 4210 C 386.714 -2.24133 -0.654722 0
M  V30 4211 C 387.695 -1.21974 -1.1856 0
M  V30 4212 O 388.88 -1.50612 -1.22595 0
M  V30 4213 C 386.01 -2.93659 -1.85423 0
M  V30 4214 C 384.964 -4.0246 -1.45636 0
M  V30 4215 C 384.29 -4.59383 -2.73626 0
M  V30 4216 C 385.59 -5.18468 -0.631506 0
M  V30 4217 H 387.284 -2.99281 -0.0844353 0
M  V30 4218 H 384.83 -1.43947 -0.0391707 0
M  V30 4219 H 386.783 -3.40203 -2.48676 0
M  V30 4220 H 385.507 -2.15991 -2.44981 0
M  V30 4221 H 384.166 -3.56676 -0.847202 0
M  V30 4222 H 383.814 -3.78422 -3.3137 0
M  V30 4223 H 383.514 -5.32826 -2.4773 0
M  V30 4224 H 385.038 -5.08658 -3.37786 0
M  V30 4225 H 386.452 -5.61272 -1.1682 0
M  V30 4226 H 384.849 -5.98266 -0.468831 0
M  V30 4227 H 385.919 -4.8358 0.357506 0
M  V30 4228 N 387.262 0.0317525 -1.57568 0
M  V30 4229 C 388.21 1.05165 -2.07468 0
M  V30 4230 C 389.204 1.3761 -0.98792 0
M  V30 4231 O 390.41 1.36546 -1.17282 0
M  V30 4232 H 386.785 0.35666 -0.66204 0
M  V30 4233 H 388.756 0.604958 -2.92203 0
M  V30 4234 C 387.505 2.34488 -2.56731 0
M  V30 4235 H 386.828 2.10383 -3.39969 0
M  V30 4236 H 388.268 3.04203 -2.95358 0
M  V30 4237 C 386.727 3.03266 -1.46736 0
M  V30 4238 O 387.257 3.92988 -0.832069 0
M  V30 4239 N 385.463 2.6455 -1.20256 0
M  V30 4240 H 385.01 1.91674 -1.72102 0
M  V30 4241 H 384.968 3.10886 -0.468737 0
M  V30 4242 N 388.74 1.54641 0.303973 0
M  V30 4243 C 389.67 1.88386 1.3796 0
M  V30 4244 C 390.651 0.742485 1.5304 0
M  V30 4245 O 391.836 0.997959 1.66597 0
M  V30 4246 C 388.966 2.12854 2.74427 0
M  V30 4247 C 387.92 3.28702 2.74115 0
M  V30 4248 C 387.246 3.38582 4.13844 0
M  V30 4249 C 388.546 4.65881 2.3612 0
M  V30 4250 H 390.24 2.78474 1.09966 0
M  V30 4251 H 387.786 1.33988 0.527556 0
M  V30 4252 H 389.739 2.35047 3.49758 0
M  V30 4253 H 388.463 1.19535 3.03939 0
M  V30 4254 H 387.122 3.06428 2.0124 0
M  V30 4255 H 386.77 2.42784 4.40528 0
M  V30 4256 H 386.47 4.16453 4.14537 0
M  V30 4257 H 387.994 3.63031 4.90959 0
M  V30 4258 H 389.408 4.87823 3.01167 0
M  V30 4259 H 387.805 5.46444 2.48031 0
M  V30 4260 H 388.875 4.66799 1.3125 0
M  V30 4261 N 390.218 -0.567019 1.47046 0
M  V30 4262 C 391.165 -1.67489 1.58796 0
M  V30 4263 C 392.135 -1.60399 0.43144 0
M  V30 4264 O 393.32 -1.79378 0.650233 0
M  V30 4265 C 390.46 -3.05821 1.59899 0
M  V30 4266 C 389.573 -3.2342 2.86397 0
M  V30 4267 C 388.708 -4.52093 2.789 0
M  V30 4268 C 387.747 -4.6309 4.00267 0
M  V30 4269 N 386.884 -5.83106 3.91064 0
M  V30 4270 H 391.724 -1.56785 2.53422 0
M  V30 4271 H 389.261 -0.763896 1.2571 0
M  V30 4272 H 391.219 -3.8591 1.58522 0
M  V30 4273 H 389.849 -3.15384 0.687929 0
M  V30 4274 H 388.901 -2.3683 2.97684 0
M  V30 4275 H 390.213 -3.27412 3.76301 0
M  V30 4276 H 389.367 -5.4043 2.75718 0
M  V30 4277 H 388.106 -4.50565 1.86662 0
M  V30 4278 H 387.111 -3.73168 4.03765 0
M  V30 4279 H 388.336 -4.66386 4.93621 0
M  V30 4280 H 386.282 -5.82546 3.01623 0
M  V30 4281 H 386.199 -5.88434 4.74638 0
M  V30 4282 H 387.467 -6.73831 3.91882 0
M  V30 4283 N 391.696 -1.35014 -0.812953 0
M  V30 4284 C 392.944 -1.27678 -1.56661 0
M  V30 4285 C 393.265 0.150359 -1.94419 0
M  V30 4286 O 392.535 1.08532 -1.63088 0
M  V30 4287 H 391.115 -0.469602 -0.580933 0
M  V30 4288 H 393.777 -1.69043 -0.970076 0
M  V30 4289 H 392.873 -1.88833 -2.48492 0
M  V30 4290 N 393.175 1.03435 -1.18907 0
M  V30 4291 C 394.591 1.28973 -0.940111 0
M  V30 4292 C 394.791 1.97676 0.390691 0
M  V30 4293 O 393.847 2.26127 1.12352 0
M  V30 4294 C 395.16 2.14221 -2.11021 0
M  V30 4295 C 396.708 2.27547 -2.14922 0
M  V30 4296 C 397.183 3.16164 -3.31367 0
M  V30 4297 N 398.674 3.23752 -3.31269 0
M  V30 4298 C 399.409 3.92495 -4.18014 0
M  V30 4299 N 398.905 4.63515 -5.14904 0
M  V30 4300 N 400.698 3.88838 -4.05908 0
M  V30 4301 H 392.849 0.57252 -2.04538 0
M  V30 4302 H 395.112 0.315184 -0.894071 0
M  V30 4303 H 394.818 1.71054 -3.073 0
M  V30 4304 H 394.692 3.14919 -2.0762 0
M  V30 4305 H 397.079 2.69947 -1.19217 0
M  V30 4306 H 397.16 1.26418 -2.22378 0
M  V30 4307 H 396.804 2.74474 -4.27348 0
M  V30 4308 H 396.734 4.17339 -3.21148 0
M  V30 4309 H 399.225 2.73167 -2.61129 0
M  V30 4310 H 399.538 5.13583 -5.77453 0
M  V30 4311 H 397.883 4.62398 -5.18857 0
M  V30 4312 H 401.074 3.32491 -3.29495 0
M  V30 4313 H 401.247 4.4214 -4.73726 0
M  V30 4314 N 394.653 0.992116 1.22453 0
M  V30 4315 C 395.902 0.662992 1.90492 0
M  V30 4316 C 396.215 -0.808407 1.78113 0
M  V30 4317 O 397.421 -1.24908 2.41061 0
M  V30 4318 C 395.877 1.1353 3.41524 0
M  V30 4319 C 395.485 2.63187 3.62542 0
M  V30 4320 C 397.229 0.880465 4.15269 0
M  V30 4321 C 395.136 3.04024 5.0727 0
M  V30 4322 H 394.066 0.244278 0.713333 0
M  V30 4323 H 396.717 1.20157 1.38688 0
M  V30 4324 H 395.099 0.52485 3.92506 0
M  V30 4325 H 396.273 3.2957 3.22056 0
M  V30 4326 H 394.588 2.86543 3.02129 0
M  V30 4327 H 397.185 1.16128 5.21937 0
M  V30 4328 H 397.528 -0.183408 4.15896 0
M  V30 4329 H 398.061 1.45307 3.70312 0
M  V30 4330 H 394.8 4.09584 5.11782 0
M  V30 4331 H 394.32 2.42343 5.48662 0
M  V30 4332 H 395.999 2.95282 5.75689 0
M  V30 4333 N 396.131 -1.37776 0.765217 0
M  V30 4334 C 397.379 -1.99454 0.325943 0
M  V30 4335 C 397.7 -1.61049 -1.09947 0
M  V30 4336 O 396.97 -0.872821 -1.75381 0
M  V30 4337 H 395.55 -0.737697 0.117525 0
M  V30 4338 H 398.212 -1.68359 0.981895 0
M  V30 4339 H 397.308 -3.09547 0.398353 0
M  V30 4340 N 397.609 -0.515225 -1.4894 0
M  V30 4341 C 398.857 0.0241671 -2.02086 0
M  V30 4342 C 399.178 1.3616 -1.3959 0
M  V30 4343 O 398.448 1.87841 -0.556121 0
M  V30 4344 H 397.028 0.0119203 -0.746905 0
M  V30 4345 H 399.69 -0.675702 -1.82812 0
M  V30 4346 H 398.786 0.143385 -3.1177 0
M  V30 4347 N 399.087 1.5561 -0.249682 0
M  V30 4348 C 400.364 1.90932 0.424761 0
M  V30 4349 C 400.744 1.17078 1.75658 0
M  V30 4350 O 400.092 0.289176 2.26663 0
M  V30 4351 C 400.302 3.43975 0.590109 0
M  V30 4352 C 401.65 4.15281 0.884714 0
M  V30 4353 O 402.674 3.49729 0.67587 0
M  V30 4354 O 401.533 5.31236 1.28259 0
M  V30 4355 H 398.627 0.794815 0.228468 0
M  V30 4356 H 401.173 1.67135 -0.293954 0
M  V30 4357 H 399.945 3.89748 -0.34818 0
M  V30 4358 H 399.568 3.73644 1.35926 0
M  V30 4359 N 400.565 -0.0233959 1.57583 0
M  V30 4360 C 401.976 -0.56927 1.77809 0
M  V30 4361 C 402.327 -1.75284 0.881472 0
M  V30 4362 O 401.452 -2.1626 0.0777805 0
M  V30 4363 C 402.047 -1.03949 3.22459 0
M  V30 4364 C 400.606 -1.53084 3.43864 0
M  V30 4365 C 399.753 -0.471454 2.73263 0
M  V30 4366 H 402.704 0.202825 1.57399 0
M  V30 4367 H 402.725 -1.90661 3.29285 0
M  V30 4368 H 402.237 -0.177865 3.87692 0
M  V30 4369 H 400.338 -2.41414 2.83814 0
M  V30 4370 H 400.451 -1.57443 4.52491 0
M  V30 4371 H 398.815 -0.927788 2.37201 0
M  V30 4372 H 399.598 0.380808 3.41181 0
M  V30 4373 N 402.043 -1.548 -0.295768 0
M  V30 4374 C 403.291 -1.73985 -1.02828 0
M  V30 4375 C 403.612 -0.531406 -1.87619 0
M  V30 4376 O 402.882 0.454221 -1.90561 0
M  V30 4377 H 401.462 -0.641556 -0.382642 0
M  V30 4378 H 404.124 -1.92163 -0.325489 0
M  V30 4379 H 403.22 -2.63129 -1.67838 0
M  V30 4380 N 403.521 0.559213 -1.47345 0
M  V30 4381 C 404.451 1.67622 -1.62558 0
M  V30 4382 C 405.432 1.63331 -0.475087 0
M  V30 4383 O 406.617 1.80983 -0.704182 0
M  V30 4384 C 403.747 3.0626 -1.63774 0
M  V30 4385 C 402.701 3.25397 -2.7803 0
M  V30 4386 C 402.027 4.64801 -2.64318 0
M  V30 4387 C 403.327 3.10965 -4.19641 0
M  V30 4388 H 405.021 1.55146 -2.56067 0
M  V30 4389 H 402.567 0.744961 -1.23233 0
M  V30 4390 H 404.52 3.84247 -1.73008 0
M  V30 4391 H 403.244 3.1969 -0.66825 0
M  V30 4392 H 401.903 2.49817 -2.68304 0
M  V30 4393 H 401.551 4.75028 -1.65401 0
M  V30 4394 H 401.251 4.78555 -3.40968 0
M  V30 4395 H 402.775 5.44926 -2.75478 0
M  V30 4396 H 404.189 3.78772 -4.30354 0
M  V30 4397 H 402.586 3.36229 -4.97062 0
M  V30 4398 H 403.656 2.07736 -4.38148 0
M  V30 4399 N 404.999 1.35443 0.805782 0
M  V30 4400 C 406.224 1.32037 1.59941 0
M  V30 4401 C 406.649 -0.0994215 1.87837 0
M  V30 4402 O 406.007 -1.06648 1.46615 0
M  V30 4403 C 406.055 2.13354 2.90711 0
M  V30 4404 O 405.159 1.5148 3.83572 0
M  V30 4405 H 404.5 0.452666 0.485787 0
M  V30 4406 H 407.03 1.78496 1.00002 0
M  V30 4407 H 407.04 2.25338 3.40128 0
M  V30 4408 H 405.715 3.16572 2.69732 0
M  V30 4409 H 404.292 1.4834 3.42125 0
M  V30 4410 N 406.477 -1.02803 1.19454 0
M  V30 4411 C 407.888 -1.57667 0.999899 0
M  V30 4412 C 408.239 -1.91041 -0.446956 0
M  V30 4413 O 407.364 -1.70978 -1.32648 0
M  V30 4414 C 407.959 -2.86477 1.80877 0
M  V30 4415 C 406.518 -3.37911 1.65811 0
M  V30 4416 C 405.665 -2.11343 1.79526 0
M  V30 4417 H 408.616 -0.853214 1.33813 0
M  V30 4418 H 408.637 -3.57408 1.30536 0
M  V30 4419 H 408.149 -2.62155 2.86175 0
M  V30 4420 H 406.25 -3.67218 0.63102 0
M  V30 4421 H 406.363 -4.10885 2.46395 0
M  V30 4422 H 404.727 -2.23254 1.22596 0
M  V30 4423 H 405.51 -1.89461 2.86285 0
M  V30 4424 N 407.956 -0.998596 -1.21925 0
M  V30 4425 C 409.372 -0.710303 -1.42923 0
M  V30 4426 C 409.572 0.716933 -1.88314 0
M  V30 4427 O 408.628 1.48712 -2.04062 0
M  V30 4428 C 409.941 -1.72072 -2.466 0
M  V30 4429 C 411.489 -1.73681 -2.60392 0
M  V30 4430 C 411.964 -2.73601 -3.67296 0
M  V30 4431 N 413.455 -2.7223 -3.7476 0
M  V30 4432 C 414.19 -3.46206 -4.57087 0
M  V30 4433 N 413.686 -4.29802 -5.43362 0
M  V30 4434 N 415.479 -3.34886 -4.51451 0
M  V30 4435 H 407.63 -1.92028 -0.9077 0
M  V30 4436 H 409.893 -0.828487 -0.460775 0
M  V30 4437 H 409.599 -2.74231 -2.20206 0
M  V30 4438 H 409.473 -1.51818 -3.45299 0
M  V30 4439 H 411.86 -0.722173 -2.86127 0
M  V30 4440 H 411.941 -1.98005 -1.61949 0
M  V30 4441 H 411.585 -3.75217 -3.42307 0
M  V30 4442 H 411.515 -2.46545 -4.65321 0
M  V30 4443 H 414.006 -2.11576 -3.1312 0
M  V30 4444 H 414.319 -4.83061 -6.03218 0
M  V30 4445 H 412.664 -4.33887 -5.42925 0
M  V30 4446 H 415.855 -2.69015 -3.83078 0
M  V30 4447 H 416.028 -3.92796 -5.15379 0
M  V30 4448 N 409.434 1.37368 -0.772513 0
M  V30 4449 C 410.682 1.99279 -0.336516 0
M  V30 4450 C 411.003 1.6163 1.09091 0
M  V30 4451 O 410.273 0.882109 1.74916 0
M  V30 4452 H 408.853 0.737063 -0.121435 0
M  V30 4453 H 411.515 1.67836 -0.990809 0
M  V30 4454 H 410.611 3.09332 -0.414763 0
M  V30 4455 N 410.912 0.523116 1.48665 0
M  V30 4456 C 412.328 0.180511 1.58576 0
M  V30 4457 C 412.528 -1.31597 1.52592 0
M  V30 4458 O 411.584 -2.0937 1.4114 0
M  V30 4459 C 412.897 0.776949 2.90489 0
M  V30 4460 C 414.445 0.745058 3.04003 0
M  V30 4461 C 414.92 1.31995 4.38567 0
M  V30 4462 N 416.411 1.28162 4.45117 0
M  V30 4463 C 417.146 1.6964 5.47731 0
M  V30 4464 N 416.642 2.18816 6.57337 0
M  V30 4465 N 418.435 1.6092 5.38573 0
M  V30 4466 H 410.586 1.4958 1.50797 0
M  V30 4467 H 412.849 0.621772 0.715614 0
M  V30 4468 H 412.555 1.82732 3.00503 0
M  V30 4469 H 412.429 0.25007 3.7637 0
M  V30 4470 H 414.816 -0.296532 2.93606 0
M  V30 4471 H 414.897 1.30933 2.1975 0
M  V30 4472 H 414.541 2.36043 4.49718 0
M  V30 4473 H 414.471 0.731418 5.21496 0
M  V30 4474 H 416.962 0.92155 3.66491 0
M  V30 4475 H 417.275 2.48478 7.31764 0
M  V30 4476 H 415.62 2.22805 6.58318 0
M  V30 4477 H 418.811 1.22304 4.5184 0
M  V30 4478 H 418.984 1.93567 6.18414 0
M  V30 4479 N 412.39 -1.55475 0.257931 0
M  V30 4480 C 413.3 -2.2549 -0.647425 0
M  V30 4481 C 414.316 -1.2748 -1.18427 0
M  V30 4482 O 415.492 -1.6038 -1.2182 0
M  V30 4483 C 412.557 -2.94916 -1.82278 0
M  V30 4484 C 411.618 -4.08363 -1.32432 0
M  V30 4485 C 410.851 -4.74469 -2.44366 0
M  V30 4486 O 411.074 -4.39701 -3.63344 0
M  V30 4487 O 410.008 -5.62763 -2.13497 0
M  V30 4488 H 413.834 -3.03593 -0.0807707 0
M  V30 4489 H 411.419 -1.49377 0.0259962 0
M  V30 4490 H 413.301 -3.38606 -2.50846 0
M  V30 4491 H 411.976 -2.19744 -2.37685 0
M  V30 4492 H 410.883 -3.69166 -0.605605 0
M  V30 4493 H 412.216 -4.85385 -0.816211 0
M  V30 4494 N 413.868 0.0150385 -1.57593 0
M  V30 4495 C 415.115 0.703001 -1.89906 0
M  V30 4496 C 415.443 1.74604 -0.856944 0
M  V30 4497 O 414.698 1.95197 0.140287 0
M  V30 4498 C 414.997 1.39686 -3.28972 0
M  V30 4499 C 414.663 0.488457 -4.48246 0
M  V30 4500 C 413.325 0.2383 -4.8061 0
M  V30 4501 C 415.677 -0.137881 -5.21018 0
M  V30 4502 C 413.005 -0.646738 -5.83125 0
M  V30 4503 C 415.357 -1.0107 -6.24474 0
M  V30 4504 C 414.021 -1.27019 -6.55303 0
M  V30 4505 H 413.291 0.257246 -0.694914 0
M  V30 4506 H 415.938 -0.037259 -1.91464 0
M  V30 4507 H 414.243 2.21079 -3.23468 0
M  V30 4508 H 415.94 1.93495 -3.51227 0
M  V30 4509 H 412.53 0.693593 -4.22951 0
M  V30 4510 H 416.714 0.0423953 -4.96282 0
M  V30 4511 H 411.97 -0.855937 -6.05379 0
M  V30 4512 H 416.144 -1.50247 -6.79999 0
M  V30 4513 H 413.771 -1.95769 -7.3456 0
M  V30 4514 N 415.346 1.54954 0.287554 0
M  V30 4515 C 416.309 1.86076 1.33823 0
M  V30 4516 C 417.309 0.734414 1.43049 0
M  V30 4517 O 418.499 1.00266 1.42452 0
M  V30 4518 C 415.631 2.05305 2.72144 0
M  V30 4519 H 416.824 2.79984 1.07465 0
M  V30 4520 H 414.377 1.47223 0.524902 0
M  V30 4521 H 415.112 1.1373 3.03704 0
M  V30 4522 H 414.897 2.873 2.66836 0
M  V30 4523 H 416.387 2.30706 3.48087 0
M  V30 4524 N 416.824 -0.551391 1.4764 0
M  V30 4525 C 417.771 -1.65796 1.60563 0
M  V30 4526 C 418.741 -1.59932 0.448428 0
M  V30 4527 O 419.926 -1.78679 0.669222 0
M  V30 4528 C 417.066 -3.04108 1.63133 0
M  V30 4529 C 416.179 -3.20365 2.89811 0
M  V30 4530 C 415.314 -4.49109 2.8368 0
M  V30 4531 C 414.353 -4.58819 4.05156 0
M  V30 4532 N 413.49 -5.78926 3.97227 0
M  V30 4533 H 418.33 -1.54088 2.5507 0
M  V30 4534 H 415.867 -0.75052 1.26513 0
M  V30 4535 H 417.825 -3.84207 1.62606 0
M  V30 4536 H 416.455 -3.14637 0.721341 0
M  V30 4537 H 415.507 -2.33659 3.00179 0
M  V30 4538 H 416.819 -3.23402 3.79753 0
M  V30 4539 H 415.973 -5.37475 2.81434 0
M  V30 4540 H 414.712 -4.4856 1.91431 0
M  V30 4541 H 413.717 -3.68864 4.077 0
M  V30 4542 H 414.942 -4.61124 4.98539 0
M  V30 4543 H 412.888 -5.79314 3.07785 0
M  V30 4544 H 412.805 -5.83367 4.80853 0
M  V30 4545 H 414.073 -6.69637 3.99007 0
M  V30 4546 N 418.302 -1.35869 -0.798587 0
M  V30 4547 C 419.527 -1.32883 -1.59238 0
M  V30 4548 C 419.952 0.0894587 -1.87887 0
M  V30 4549 O 419.31 1.05869 -1.47178 0
M  V30 4550 C 419.358 -2.14892 -2.89575 0
M  V30 4551 O 418.462 -1.53512 -3.82763 0
M  V30 4552 H 417.803 -0.455236 -0.48338 0
M  V30 4553 H 420.333 -1.79024 -0.990539 0
M  V30 4554 H 420.343 -2.27139 -3.38928 0
M  V30 4555 H 419.018 -3.17998 -2.68049 0
M  V30 4556 H 417.595 -1.50153 -3.41334 0
M  V30 4557 N 419.78 1.02168 -1.19998 0
M  V30 4558 C 420.71 2.12488 -0.96804 0
M  V30 4559 C 421.691 1.69799 0.101185 0
M  V30 4560 O 422.876 1.94121 -0.0552993 0
M  V30 4561 C 420.006 3.43479 -0.513776 0
M  V30 4562 C 418.96 3.99884 -1.52566 0
M  V30 4563 C 418.286 5.26582 -0.928214 0
M  V30 4564 C 419.586 4.33861 -2.90795 0
M  V30 4565 H 421.28 2.32149 -1.89069 0
M  V30 4566 H 418.826 1.11564 -0.910468 0
M  V30 4567 H 420.779 4.20036 -0.338774 0
M  V30 4568 H 419.503 3.23561 0.444493 0
M  V30 4569 H 418.162 3.25429 -1.68794 0
M  V30 4570 H 417.81 5.02986 0.0378289 0
M  V30 4571 H 417.51 5.65284 -1.60397 0
M  V30 4572 H 419.034 6.05799 -0.764167 0
M  V30 4573 H 420.448 5.01327 -2.78109 0
M  V30 4574 H 418.845 4.83664 -3.55231 0
M  V30 4575 H 419.915 3.42848 -3.42904 0
M  V30 4576 N 421.258 1.00505 1.21394 0
M  V30 4577 C 422.221 0.570459 2.21987 0
M  V30 4578 C 423.221 -0.353211 1.56873 0
M  V30 4579 O 424.411 -0.14349 1.73608 0
M  V30 4580 C 421.543 -0.168555 3.40483 0
M  V30 4581 H 422.736 1.46021 2.6195 0
M  V30 4582 H 420.289 0.793565 1.34656 0
M  V30 4583 H 421.024 -1.07374 3.06009 0
M  V30 4584 H 420.809 0.494823 3.88965 0
M  V30 4585 H 422.299 -0.460362 4.15055 0
M  V30 4586 N 422.737 -1.36956 0.779787 0
M  V30 4587 C 423.669 -2.28833 0.129639 0
M  V30 4588 C 424.682 -1.4902 -0.655511 0
M  V30 4589 O 425.871 -1.71578 -0.492279 0
M  V30 4590 C 422.971 -3.2833 -0.839792 0
M  V30 4591 C 422.144 -4.3727 -0.10675 0
M  V30 4592 C 421.203 -5.16789 -0.990717 0
M  V30 4593 O 420.229 -5.67406 -0.451516 0
M  V30 4594 N 421.431 -5.32294 -2.3161 0
M  V30 4595 H 424.196 -2.85268 0.918803 0
M  V30 4596 H 421.757 -1.49019 0.632841 0
M  V30 4597 H 423.749 -3.78413 -1.43477 0
M  V30 4598 H 422.319 -2.72605 -1.52988 0
M  V30 4599 H 421.539 -3.88478 0.669216 0
M  V30 4600 H 422.827 -5.07229 0.399464 0
M  V30 4601 H 422.225 -4.92768 -2.77843 0
M  V30 4602 H 420.782 -5.85656 -2.86095 0
M  V30 4603 N 424.215 -0.530993 -1.48385 0
M  V30 4604 C 425.462 0.0027373 -2.025 0
M  V30 4605 C 425.79 1.34186 -1.40799 0
M  V30 4606 O 425.045 1.88 -0.543544 0
M  V30 4607 C 425.344 0.172742 -3.56982 0
M  V30 4608 C 425.01 -1.09215 -4.37473 0
M  V30 4609 C 423.672 -1.43881 -4.59186 0
M  V30 4610 C 426.024 -1.93153 -4.84088 0
M  V30 4611 C 423.352 -2.62381 -5.2476 0
M  V30 4612 C 425.704 -3.10833 -5.50968 0
M  V30 4613 C 424.368 -3.45843 -5.70919 0
M  V30 4614 H 423.638 0.00100165 -0.740999 0
M  V30 4615 H 426.285 -0.697219 -1.78357 0
M  V30 4616 H 424.59 0.955473 -3.79971 0
M  V30 4617 H 426.287 0.600642 -3.96476 0
M  V30 4618 H 422.877 -0.812177 -4.20834 0
M  V30 4619 H 427.061 -1.67683 -4.67115 0
M  V30 4620 H 422.317 -2.89707 -5.38405 0
M  V30 4621 H 426.491 -3.7618 -5.86056 0
M  V30 4622 H 424.118 -4.37764 -6.21503 0
M  V30 4623 N 425.693 1.55336 -0.266172 0
M  V30 4624 C 426.942 1.98574 0.353749 0
M  V30 4625 C 427.255 1.15789 1.57646 0
M  V30 4626 O 428.461 1.49129 2.26876 0
M  V30 4627 C 426.917 3.53403 0.680747 0
M  V30 4628 C 426.525 4.44953 -0.52165 0
M  V30 4629 C 428.269 4.05251 1.26379 0
M  V30 4630 C 426.176 5.91156 -0.169736 0
M  V30 4631 H 425.106 0.741643 0.135949 0
M  V30 4632 H 427.757 1.79743 -0.369421 0
M  V30 4633 H 426.139 3.68001 1.46257 0
M  V30 4634 H 427.313 4.42121 -1.29869 0
M  V30 4635 H 425.628 4.03691 -1.02093 0
M  V30 4636 H 428.225 5.12021 1.54074 0
M  V30 4637 H 428.568 3.53749 2.19471 0
M  V30 4638 H 429.101 3.94057 0.544447 0
M  V30 4639 H 425.84 6.46736 -1.0683 0
M  V30 4640 H 425.36 5.97079 0.570717 0
M  V30 4641 H 427.039 6.4655 0.241245 0
M  V30 4642 N 427.171 -0.0066808 1.57599 0
M  V30 4643 C 428.396 -0.707738 1.94951 0
M  V30 4644 C 428.821 -1.66882 0.867868 0
M  V30 4645 O 428.179 -1.80457 -0.17458 0
M  V30 4646 C 428.227 -1.42162 3.31394 0
M  V30 4647 O 427.331 -2.53578 3.25226 0
M  V30 4648 H 426.672 -0.188752 0.636607 0
M  V30 4649 H 429.202 0.0445193 2.04552 0
M  V30 4650 H 429.212 -1.78655 3.66806 0
M  V30 4651 H 427.887 -0.716903 4.09675 0
M  V30 4652 H 426.464 -2.19463 3.01481 0
M  V30 4653 N 428.649 -1.55105 -0.279332 0
M  V30 4654 C 429.926 -1.66119 -1.03267 0
M  V30 4655 C 430.306 -0.523525 -2.04505 0
M  V30 4656 O 429.654 0.477194 -2.23462 0
M  V30 4657 C 429.864 -3.05067 -1.69515 0
M  V30 4658 C 431.212 -3.62606 -2.20912 0
M  V30 4659 O 432.236 -3.07659 -1.79512 0
M  V30 4660 O 431.095 -4.58861 -2.96831 0
M  V30 4661 H 428.189 -0.674429 -0.478618 0
M  V30 4662 H 430.735 -1.67446 -0.275694 0
M  V30 4663 H 429.507 -3.79311 -0.9612 0
M  V30 4664 H 429.13 -3.07611 -2.51915 0
M  V30 4665 N 430.127 0.543554 -1.4793 0
M  V30 4666 C 431.059 1.665 -1.57513 0
M  V30 4667 C 432.072 1.56156 -0.460333 0
M  V30 4668 O 433.261 1.62865 -0.730573 0
M  V30 4669 C 430.361 3.05063 -1.47614 0
M  V30 4670 C 429.534 3.41024 -2.739 0
M  V30 4671 C 428.593 4.58809 -2.57645 0
M  V30 4672 O 427.619 4.62707 -3.31498 0
M  V30 4673 N 428.821 5.56149 -1.66368 0
M  V30 4674 H 431.586 1.5872 -2.5422 0
M  V30 4675 H 429.147 0.730517 -1.44482 0
M  V30 4676 H 431.139 3.81712 -1.34455 0
M  V30 4677 H 429.709 3.06994 -0.589359 0
M  V30 4678 H 428.929 2.53687 -3.01723 0
M  V30 4679 H 430.217 3.61831 -3.57709 0
M  V30 4680 H 429.615 5.55767 -1.05543 0
M  V30 4681 H 428.172 6.32071 -1.59154 0
M  V30 4682 N 431.605 1.3629 0.791371 0
M  V30 4683 C 432.553 1.30514 1.92533 0
M  V30 4684 C 433.547 0.197285 1.68247 0
M  V30 4685 O 434.753 0.364176 1.76278 0
M  V30 4686 H 431.128 0.406263 0.632815 0
M  V30 4687 H 433.099 2.26282 1.94523 0
M  V30 4688 C 431.848 1.10933 3.29529 0
M  V30 4689 H 431.171 1.95427 3.48781 0
M  V30 4690 H 432.611 1.10937 4.0923 0
M  V30 4691 C 431.07 -0.186123 3.36385 0
M  V30 4692 O 431.6 -1.17664 3.84081 0
M  V30 4693 N 429.806 -0.230128 2.89687 0
M  V30 4694 H 429.353 0.576545 2.51065 0
M  V30 4695 H 429.311 -1.09658 2.94657 0
M  V30 4696 N 433.083 -1.0153 1.20538 0
M  V30 4697 C 434.332 -1.74558 1.01057 0
M  V30 4698 C 434.645 -1.90168 -0.457756 0
M  V30 4699 O 435.851 -2.60301 -0.771722 0
M  V30 4700 C 434.307 -3.13963 1.75941 0
M  V30 4701 C 433.915 -3.06361 3.26875 0
M  V30 4702 C 435.659 -3.91191 1.64832 0
M  V30 4703 C 433.566 -4.40782 3.94291 0
M  V30 4704 H 432.496 -0.654417 0.374505 0
M  V30 4705 H 435.147 -1.13521 1.44171 0
M  V30 4706 H 433.529 -3.75549 1.25614 0
M  V30 4707 H 434.703 -2.54074 3.84425 0
M  V30 4708 H 433.018 -2.42625 3.38411 0
M  V30 4709 H 435.615 -4.90644 2.12539 0
M  V30 4710 H 435.958 -4.11884 0.604745 0
M  V30 4711 H 436.491 -3.36236 2.12579 0
M  V30 4712 H 433.23 -4.25292 4.98805 0
M  V30 4713 H 432.75 -4.9307 3.41529 0
M  V30 4714 H 434.429 -5.09621 3.98617 0
M  V30 4715 N 434.561 -1.01147 -1.20859 0
M  V30 4716 C 435.508 -0.577354 -2.23462 0
M  V30 4717 C 436.478 0.399922 -1.61214 0
M  V30 4718 O 437.663 0.300515 -1.88419 0
M  V30 4719 C 434.803 0.083372 -3.44999 0
M  V30 4720 C 433.916 -0.937856 -4.21697 0
M  V30 4721 C 433.051 -0.248717 -5.30617 0
M  V30 4722 C 432.09 -1.25705 -5.99053 0
M  V30 4723 N 431.227 -0.594939 -6.99575 0
M  V30 4724 H 436.067 -1.45695 -2.59956 0
M  V30 4725 H 433.604 -0.729428 -1.27741 0
M  V30 4726 H 435.562 0.483535 -4.14388 0
M  V30 4727 H 434.192 0.926645 -3.09214 0
M  V30 4728 H 433.244 -1.45622 -3.51423 0
M  V30 4729 H 434.556 -1.70493 -4.68757 0
M  V30 4730 H 433.71 0.207215 -6.06346 0
M  V30 4731 H 432.449 0.55071 -4.84581 0
M  V30 4732 H 431.454 -1.72343 -5.2209 0
M  V30 4733 H 432.679 -2.05767 -6.47176 0
M  V30 4734 H 430.625 0.184713 -6.5574 0
M  V30 4735 H 430.542 -1.30017 -7.44736 0
M  V30 4736 H 431.81 -0.162427 -7.79331 0
M  V30 4737 N 436.039 1.36541 -0.78704 0
M  V30 4738 C 437.316 1.9355 -0.282424 0
M  V30 4739 C 437.696 1.71919 1.22503 0
M  V30 4740 O 437.044 1.07677 2.01539 0
M  V30 4741 C 437.254 3.4246 -0.672462 0
M  V30 4742 C 438.602 4.19582 -0.650863 0
M  V30 4743 O 439.626 3.50889 -0.612789 0
M  V30 4744 O 438.485 5.42106 -0.691623 0
M  V30 4745 H 435.579 0.824091 -0.0693 0
M  V30 4746 H 438.125 1.45736 -0.869423 0
M  V30 4747 H 436.897 3.51851 -1.71221 0
M  V30 4748 H 436.52 3.97556 -0.0592211 0
M  V30 4749 N 437.518 0.538854 1.48102 0
M  V30 4750 C 438.448 -0.207654 2.32575 0
M  V30 4751 C 439.429 -0.926559 1.4265 0
M  V30 4752 O 440.614 -0.91061 1.71527 0
M  V30 4753 C 437.744 -1.24957 3.24042 0
M  V30 4754 C 436.698 -0.648263 4.23062 0
M  V30 4755 C 436.024 -1.79348 5.03725 0
M  V30 4756 C 437.324 0.385897 5.20872 0
M  V30 4757 H 439.018 0.497534 2.95237 0
M  V30 4758 H 436.564 0.240715 1.41974 0
M  V30 4759 H 438.517 -1.77983 3.81969 0
M  V30 4760 H 437.241 -1.98446 2.59397 0
M  V30 4761 H 435.9 -0.139452 3.66335 0
M  V30 4762 H 435.548 -2.51696 4.35498 0
M  V30 4763 H 435.248 -1.39702 5.70751 0
M  V30 4764 H 436.772 -2.32735 5.64506 0
M  V30 4765 H 438.186 -0.057607 5.73271 0
M  V30 4766 H 436.583 0.700227 5.96001 0
M  V30 4767 H 437.653 1.28848 4.67468 0
M  V30 4768 N 438.996 -1.55193 0.274407 0
M  V30 4769 C 439.943 -2.225 -0.613374 0
M  V30 4770 C 440.913 -1.19823 -1.15029 0
M  V30 4771 O 442.098 -1.48362 -1.19973 0
M  V30 4772 C 439.238 -2.94927 -1.79199 0
M  V30 4773 C 438.351 -4.12322 -1.28899 0
M  V30 4774 C 437.486 -4.72394 -2.42934 0
M  V30 4775 C 436.525 -5.81984 -1.89634 0
M  V30 4776 N 435.662 -6.36123 -2.9714 0
M  V30 4777 H 440.502 -2.97982 -0.032756 0
M  V30 4778 H 438.039 -1.47099 -0.00440146 0
M  V30 4779 H 439.997 -3.35134 -2.48478 0
M  V30 4780 H 438.627 -2.2187 -2.34465 0
M  V30 4781 H 437.679 -3.7724 -0.489327 0
M  V30 4782 H 438.991 -4.91355 -0.858587 0
M  V30 4783 H 438.145 -5.15317 -3.20208 0
M  V30 4784 H 436.884 -3.92636 -2.8929 0
M  V30 4785 H 435.889 -5.38511 -1.1084 0
M  V30 4786 H 437.114 -6.6361 -1.44215 0
M  V30 4787 H 435.06 -5.59259 -3.42878 0
M  V30 4788 H 434.977 -7.10427 -2.58515 0
M  V30 4789 H 436.245 -6.83704 -3.74391 0
M  V30 4790 N 440.474 -0.00167713 -1.576 0
M  V30 4791 C 441.72 0.683832 -1.90923 0
M  V30 4792 C 442.053 1.7333 -0.875799 0
M  V30 4793 O 441.328 1.94215 0.10525 0
M  V30 4794 C 441.611 1.32543 -3.3482 0
M  V30 4795 C 441.464 0.287387 -4.48881 0
M  V30 4796 C 442.783 2.25114 -3.78169 0
M  V30 4797 H 439.902 0.247125 -0.694333 0
M  V30 4798 H 442.544 -0.0533149 -1.89925 0
M  V30 4799 H 440.694 1.95372 -3.35801 0
M  V30 4800 H 442.366 -0.341346 -4.60035 0
M  V30 4801 H 440.609 -0.39017 -4.32042 0
M  V30 4802 H 441.28 0.775393 -5.46527 0
M  V30 4803 H 443.756 1.723 -3.7875 0
M  V30 4804 H 442.632 2.66971 -4.79602 0
M  V30 4805 H 442.893 3.13092 -3.12131 0
M  V30 4806 N 441.952 1.55251 0.271103 0
M  V30 4807 C 443.198 1.7713 0.999832 0
M  V30 4808 C 443.553 0.56659 1.83868 0
M  V30 4809 O 442.846 -0.44069 1.86463 0
M  V30 4810 C 443.04 3.01879 1.91321 0
M  V30 4811 C 442.869 4.34368 1.16426 0
M  V30 4812 C 441.639 4.97593 0.879169 0
M  V30 4813 C 443.837 5.1131 0.553749 0
M  V30 4814 N 441.819 6.13813 0.103618 0
M  V30 4815 C 443.19 6.19938 -0.0875442 0
M  V30 4816 C 445.245 4.95754 0.461782 0
M  V30 4817 C 443.948 7.14703 -0.811942 0
M  V30 4818 C 445.974 5.90875 -0.249027 0
M  V30 4819 C 445.336 6.98893 -0.879051 0
M  V30 4820 H 441.435 0.700407 0.347784 0
M  V30 4821 H 444.019 1.92744 0.275314 0
M  V30 4822 H 442.19 2.87637 2.60997 0
M  V30 4823 H 443.922 3.12154 2.57569 0
M  V30 4824 H 440.677 4.58538 1.18491 0
M  V30 4825 H 441.101 6.76455 -0.271543 0
M  V30 4826 H 445.743 4.12342 0.934552 0
M  V30 4827 H 443.461 7.97634 -1.29639 0
M  V30 4828 H 447.047 5.80916 -0.320529 0
M  V30 4829 H 445.927 7.71231 -1.42031 0
M  V30 4830 N 443.43 -0.535701 1.48216 0
M  V30 4831 C 444.658 -1.31671 1.59594 0
M  V30 4832 C 445.073 -1.87083 0.254056 0
M  V30 4833 O 444.43 -1.66112 -0.755854 0
M  V30 4834 C 444.481 -2.47158 2.63809 0
M  V30 4835 O 444.202 -1.94032 3.92789 0
M  V30 4836 C 445.703 -3.39062 2.85573 0
M  V30 4837 H 442.923 -0.400623 0.538277 0
M  V30 4838 H 445.467 -0.646827 1.94001 0
M  V30 4839 H 443.622 -3.10043 2.32276 0
M  V30 4840 H 444.036 -2.69585 4.49916 0
M  V30 4841 H 445.51 -4.16459 3.62306 0
M  V30 4842 H 445.987 -3.93941 1.94184 0
M  V30 4843 H 446.593 -2.81975 3.18387 0
M  V30 4844 N 444.908 -1.36708 -0.784132 0
M  V30 4845 C 446.133 -1.34565 -1.5782 0
M  V30 4846 C 446.558 0.0695257 -1.87971 0
M  V30 4847 O 445.916 1.04302 -1.48293 0
M  V30 4848 C 445.964 -2.17952 -2.87279 0
M  V30 4849 O 445.068 -1.57563 -3.81114 0
M  V30 4850 H 444.409 -0.460337 -0.478524 0
M  V30 4851 H 446.939 -1.80064 -0.971495 0
M  V30 4852 H 446.949 -2.30721 -3.365 0
M  V30 4853 H 445.624 -3.20823 -2.64661 0
M  V30 4854 H 444.201 -1.53764 -3.39722 0
M  V30 4855 N 446.386 1.0089 -1.21074 0
M  V30 4856 C 447.318 2.09737 -0.924291 0
M  V30 4857 C 448.331 1.62546 0.0909809 0
M  V30 4858 O 449.52 1.77942 -0.141021 0
M  V30 4859 C 446.62 3.36922 -0.36559 0
M  V30 4860 C 445.793 4.13216 -1.43426 0
M  V30 4861 C 444.852 5.18696 -0.885496 0
M  V30 4862 O 443.878 5.47176 -1.56801 0
M  V30 4863 N 445.08 5.79718 0.301227 0
M  V30 4864 H 447.845 2.34895 -1.8613 0
M  V30 4865 H 445.406 1.17341 -1.11546 0
M  V30 4866 H 447.398 4.04697 0.0158407 0
M  V30 4867 H 445.968 3.08952 0.476149 0
M  V30 4868 H 445.188 3.40301 -1.9897 0
M  V30 4869 H 446.476 4.60967 -2.15376 0
M  V30 4870 H 445.874 5.58926 0.872849 0
M  V30 4871 H 444.431 6.48804 0.624211 0
M  V30 4872 N 447.864 1.01787 1.20321 0
M  V30 4873 C 448.797 0.533882 2.21867 0
M  V30 4874 C 449.775 -0.419361 1.57099 0
M  V30 4875 O 450.959 -0.339062 1.85426 0
M  V30 4876 C 448.086 -0.222899 3.37966 0
M  V30 4877 C 447.132 0.680091 4.21043 0
M  V30 4878 S 447.965 2.14997 4.90445 0
M  V30 4879 C 449.121 1.40339 6.09964 0
M  V30 4880 H 449.354 1.39429 2.62577 0
M  V30 4881 H 446.887 0.826867 1.30393 0
M  V30 4882 H 448.845 -0.653425 4.05266 0
M  V30 4883 H 447.506 -1.0589 2.95713 0
M  V30 4884 H 446.699 0.0964704 5.03908 0
M  V30 4885 H 446.301 1.04845 3.59004 0
M  V30 4886 H 448.593 0.68407 6.74038 0
M  V30 4887 H 449.536 2.20823 6.72787 0
M  V30 4888 H 449.944 0.905716 5.57187 0
M  V30 4889 N 449.342 -1.36122 0.79427 0
M  V30 4890 C 450.289 -2.29982 0.194101 0
M  V30 4891 C 451.259 -1.52214 -0.664833 0
M  V30 4892 O 452.444 -1.80702 -0.612498 0
M  V30 4893 C 449.584 -3.38706 -0.661244 0
M  V30 4894 C 448.697 -4.31456 0.216766 0
M  V30 4895 C 447.832 -5.27265 -0.645411 0
M  V30 4896 C 446.871 -6.11653 0.233756 0
M  V30 4897 N 446.008 -6.99636 -0.587682 0
M  V30 4898 H 450.848 -2.80722 0.999965 0
M  V30 4899 H 448.385 -1.38172 0.504677 0
M  V30 4900 H 450.343 -4.00394 -1.17219 0
M  V30 4901 H 448.973 -2.89274 -1.43249 0
M  V30 4902 H 448.025 -3.7088 0.845724 0
M  V30 4903 H 449.337 -4.90724 0.893973 0
M  V30 4904 H 448.491 -5.94266 -1.22198 0
M  V30 4905 H 447.23 -4.68463 -1.35623 0
M  V30 4906 H 446.235 -5.4361 0.82269 0
M  V30 4907 H 447.46 -6.72531 0.942247 0
M  V30 4908 H 445.406 -6.43337 -1.2827 0
M  V30 4909 H 445.323 -7.55993 0.0317402 0
M  V30 4910 H 446.591 -7.71001 -1.14792 0
M  V30 4911 N 450.82 -0.546701 -1.47814 0
M  V30 4912 C 452.236 -0.205717 -1.58269 0
M  V30 4913 C 452.436 1.29153 -1.54667 0
M  V30 4914 O 451.492 2.07098 -1.44453 0
M  V30 4915 C 452.805 -0.823065 -2.89216 0
M  V30 4916 C 454.353 -0.793328 -3.02779 0
M  V30 4917 C 454.828 -1.38955 -4.36412 0
M  V30 4918 N 456.319 -1.35227 -4.43021 0
M  V30 4919 C 457.054 -1.78333 -5.44963 0
M  V30 4920 N 456.55 -2.29246 -6.53772 0
M  V30 4921 N 458.343 -1.69467 -5.35945 0
M  V30 4922 H 450.494 -1.5196 -1.48398 0
M  V30 4923 H 452.757 -0.633078 -0.705632 0
M  V30 4924 H 452.463 -1.8749 -2.97558 0
M  V30 4925 H 452.337 -0.309915 -3.75925 0
M  V30 4926 H 454.724 0.249784 -2.94041 0
M  V30 4927 H 454.805 -1.34412 -2.17639 0
M  V30 4928 H 454.449 -2.43168 -4.45906 0
M  V30 4929 H 454.379 -0.814291 -5.20266 0
M  V30 4930 H 456.87 -0.979739 -3.64979 0
M  V30 4931 H 457.183 -2.60089 -7.27718 0
M  V30 4932 H 455.528 -2.3325 -6.5469 0
M  V30 4933 H 458.719 -1.29477 -4.49837 0
M  V30 4934 H 458.892 -2.03381 -6.15256 0
M  V30 4935 N 452.299 1.55045 -0.282633 0
M  V30 4936 C 453.527 2.04168 0.33512 0
M  V30 4937 C 453.942 1.16071 1.48906 0
M  V30 4938 O 453.299 0.182391 1.81586 0
M  V30 4939 C 453.35 3.52332 0.808957 0
M  V30 4940 O 453.071 4.37078 -0.299038 0
M  V30 4941 C 454.572 4.17375 1.49375 0
M  V30 4942 H 451.792 0.666744 0.0754543 0
M  V30 4943 H 454.336 2.00205 -0.416918 0
M  V30 4944 H 452.491 3.56715 1.51106 0
M  V30 4945 H 452.905 5.24458 0.0665514 0
M  V30 4946 H 454.379 5.22627 1.77664 0
M  V30 4947 H 454.856 3.65999 2.42778 0
M  V30 4948 H 455.462 4.17016 0.835305 0
M  V30 4949 N 453.777 0.010035 1.57597 0
M  V30 4950 C 455.026 -0.671945 1.90178 0
M  V30 4951 C 455.339 -1.74376 0.886131 0
M  V30 4952 O 456.545 -2.48107 1.10252 0
M  V30 4953 C 455.001 -1.24636 3.3763 0
M  V30 4954 C 454.609 -0.208838 4.47513 0
M  V30 4955 C 456.353 -1.90595 3.79307 0
M  V30 4956 C 454.26 -0.793814 5.86048 0
M  V30 4957 H 453.19 -0.25474 0.709665 0
M  V30 4958 H 455.841 0.0722206 1.83358 0
M  V30 4959 H 454.223 -2.04152 3.3932 0
M  V30 4960 H 455.397 0.562463 4.57354 0
M  V30 4961 H 453.712 0.350889 4.14919 0
M  V30 4962 H 456.309 -2.35284 4.80151 0
M  V30 4963 H 456.652 -2.74074 3.13352 0
M  V30 4964 H 457.185 -1.17798 3.79958 0
M  V30 4965 H 453.924 0.00240855 6.555 0
M  V30 4966 H 453.444 -1.53404 5.79851 0
M  V30 4967 H 455.123 -1.2894 6.34022 0
M  V30 4968 N 455.255 -1.55392 -0.262866 0
M  V30 4969 C 456.187 -1.85392 -1.34768 0
M  V30 4970 C 457.2 -0.739069 -1.45057 0
M  V30 4971 O 458.389 -1.01703 -1.46693 0
M  V30 4972 C 455.489 -2.01088 -2.72795 0
M  V30 4973 C 454.662 -3.31828 -2.84972 0
M  V30 4974 C 453.721 -3.37464 -4.03738 0
M  V30 4975 O 452.747 -4.10778 -3.94018 0
M  V30 4976 N 453.949 -2.65599 -5.16176 0
M  V30 4977 H 456.714 -2.79029 -1.09375 0
M  V30 4978 H 454.275 -1.55434 -0.452981 0
M  V30 4979 H 456.267 -2.02217 -3.50557 0
M  V30 4980 H 454.837 -1.1427 -2.90966 0
M  V30 4981 H 454.057 -3.43152 -1.94012 0
M  V30 4982 H 455.345 -4.18032 -2.90045 0
M  V30 4983 H 454.743 -2.05736 -5.26962 0
M  V30 4984 H 453.3 -2.72439 -5.92132 0
M  V30 4985 N 456.733 0.527833 -1.48498 0
M  V30 4986 C 457.961 1.30823 -1.6029 0
M  V30 4987 C 458.376 1.86945 -0.263974 0
M  V30 4988 O 457.733 1.6651 0.747034 0
M  V30 4989 C 457.784 2.45756 -2.65116 0
M  V30 4990 O 457.505 1.91946 -3.93813 0
M  V30 4991 C 459.006 3.37543 -2.87367 0
M  V30 4992 H 456.226 0.397763 -0.540394 0
M  V30 4993 H 458.77 0.636529 -1.94341 0
M  V30 4994 H 456.925 3.08806 -2.33917 0
M  V30 4995 H 457.339 2.67195 -4.51339 0
M  V30 4996 H 458.813 4.14532 -3.6451 0
M  V30 4997 H 459.29 3.92905 -1.9627 0
M  V30 4998 H 459.896 2.80283 -3.19878 0
M  V30 4999 N 458.211 1.37122 0.776871 0
M  V30 5000 C 459.174 1.32301 1.8716 0
M  V30 5001 C 460.174 0.228099 1.59174 0
M  V30 5002 O 461.364 0.483642 1.67352 0
M  V30 5003 C 458.496 1.054 3.24197 0
M  V30 5004 H 459.689 2.29673 1.92848 0
M  V30 5005 H 457.242 1.22077 0.97606 0
M  V30 5006 H 457.977 0.0853872 3.24188 0
M  V30 5007 H 457.762 1.84648 3.45901 0
M  V30 5008 H 459.252 1.04664 4.04271 0
M  V30 5009 N 459.689 -1.00246 1.21608 0
M  V30 5010 C 460.599 -2.12515 0.993709 0
M  V30 5011 C 461.615 -1.73913 -0.0549939 0
M  V30 5012 O 462.791 -2.00943 0.135619 0
M  V30 5013 C 459.856 -3.42083 0.563953 0
M  V30 5014 C 458.917 -3.94843 1.68516 0
M  V30 5015 C 458.15 -5.18226 1.27582 0
M  V30 5016 O 458.373 -5.70201 0.150506 0
M  V30 5017 O 457.307 -5.64497 2.0887 0
M  V30 5018 H 461.133 -2.34152 1.93407 0
M  V30 5019 H 458.718 -1.10891 1.00118 0
M  V30 5020 H 460.6 -4.20073 0.334194 0
M  V30 5021 H 459.275 -3.21828 -0.347665 0
M  V30 5022 H 458.182 -3.18068 1.96935 0
M  V30 5023 H 459.515 -4.19512 2.5743 0
M  V30 5024 N 461.167 -1.02423 -1.1978 0
M  V30 5025 C 462.13 -0.605703 -2.21052 0
M  V30 5026 C 463.13 0.328209 -1.57415 0
M  V30 5027 O 464.32 0.115853 -1.73814 0
M  V30 5028 C 461.452 0.114366 -3.40708 0
M  V30 5029 H 462.645 -1.5017 -2.59594 0
M  V30 5030 H 460.198 -0.814888 -1.33376 0
M  V30 5031 H 460.933 1.02492 -3.07678 0
M  V30 5032 H 460.718 -0.556641 -3.88129 0
M  V30 5033 H 462.208 0.394272 -4.15735 0
M  V30 5034 N 462.645 1.35699 -0.801477 0
M  V30 5035 C 463.575 2.32436 -0.222658 0
M  V30 5036 C 464.556 1.5723 0.649057 0
M  V30 5037 O 465.741 1.85324 0.580387 0
M  V30 5038 C 462.871 3.41469 0.633719 0
M  V30 5039 C 461.825 4.27774 -0.139083 0
M  V30 5040 C 461.151 5.28082 0.838666 0
M  V30 5041 C 462.451 5.04946 -1.33517 0
M  V30 5042 H 464.145 2.81094 -1.03086 0
M  V30 5043 H 461.691 1.35146 -0.497155 0
M  V30 5044 H 463.644 4.08143 1.04868 0
M  V30 5045 H 462.368 2.91408 1.47475 0
M  V30 5046 H 461.027 3.62673 -0.535156 0
M  V30 5047 H 460.675 4.7429 1.67506 0
M  V30 5048 H 460.375 5.86695 0.32594 0
M  V30 5049 H 461.899 5.97628 1.25194 0
M  V30 5050 H 463.313 5.64593 -0.995349 0
M  V30 5051 H 461.71 5.7303 -1.78202 0
M  V30 5052 H 462.78 4.35886 -2.12442 0
M  V30 5053 N 464.123 0.554532 1.47522 0
M  V30 5054 C 465.371 0.0294208 2.02079 0
M  V30 5055 C 465.692 -1.32411 1.43151 0
M  V30 5056 O 464.962 -1.863 0.605728 0
M  V30 5057 H 463.542 0.00788672 0.746958 0
M  V30 5058 H 466.204 0.723934 1.80956 0
M  V30 5059 H 465.3 -0.0606745 3.12041 0
M  V30 5060 N 465.601 -1.54893 0.290851 0
M  V30 5061 C 466.847 -2.0023 -0.321867 0
M  V30 5062 C 467.18 -1.179 -1.54316 0
M  V30 5063 O 466.455 -0.25293 -1.92848 0
M  V30 5064 C 466.738 -3.53456 -0.688515 0
M  V30 5065 C 466.591 -4.46532 0.541209 0
M  V30 5066 C 467.91 -4.13057 -1.51895 0
M  V30 5067 H 465.029 -0.727891 -0.115515 0
M  V30 5068 H 467.671 -1.85722 0.400931 0
M  V30 5069 H 465.821 -3.6595 -1.30433 0
M  V30 5070 H 467.493 -4.4596 1.17973 0
M  V30 5071 H 465.736 -4.17545 1.17636 0
M  V30 5072 H 466.407 -5.51475 0.240675 0
M  V30 5073 H 468.883 -4.03937 -0.99872 0
M  V30 5074 H 467.759 -5.20448 -1.74429 0
M  V30 5075 H 468.02 -3.64284 -2.50498 0
M  V30 5076 N 467.08 -0.0183926 -1.57589 0
M  V30 5077 C 468.491 0.521927 -1.79256 0
M  V30 5078 C 468.842 1.72885 -0.927636 0
M  V30 5079 O 467.967 2.15978 -0.135091 0
M  V30 5080 C 468.562 0.953632 -3.25102 0
M  V30 5081 C 467.121 1.43913 -3.47801 0
M  V30 5082 C 466.268 0.398837 -2.74417 0
M  V30 5083 H 469.219 -0.244485 -1.56805 0
M  V30 5084 H 469.24 1.81863 -3.34224 0
M  V30 5085 H 468.752 0.0750123 -3.88028 0
M  V30 5086 H 466.853 2.33804 -2.90115 0
M  V30 5087 H 466.966 1.45391 -4.56507 0
M  V30 5088 H 465.33 0.864572 -2.39577 0
M  V30 5089 H 466.113 -0.471132 -3.40052 0
M  V30 5090 N 468.558 1.5553 0.254621 0
M  V30 5091 C 469.788 1.80784 1.00004 0
M  V30 5092 C 470.196 0.59071 1.79742 0
M  V30 5093 O 469.539 -0.449988 1.78103 0
M  V30 5094 C 469.601 2.99268 1.99196 0
M  V30 5095 C 469.265 4.35595 1.38224 0
M  V30 5096 C 470.262 5.13884 0.788611 0
M  V30 5097 C 467.947 4.82281 1.40393 0
M  V30 5098 C 469.941 6.37004 0.224783 0
M  V30 5099 C 467.628 6.05351 0.836243 0
M  V30 5100 C 468.626 6.82551 0.24769 0
M  V30 5101 O 468.314 8.03297 -0.311249 0
M  V30 5102 H 468.046 0.60565 0.300274 0
M  V30 5103 H 470.6 2.03411 0.285143 0
M  V30 5104 H 468.83 2.72377 2.74496 0
M  V30 5105 H 470.519 3.11682 2.60018 0
M  V30 5106 H 471.285 4.78938 0.764423 0
M  V30 5107 H 467.164 4.22189 1.85142 0
M  V30 5108 H 470.708 6.97203 -0.235235 0
M  V30 5109 H 466.605 6.39776 0.857733 0
M  V30 5110 H 467.373 8.1825 -0.20237 0
M  V30 5111 N 470.036 -0.519951 1.48776 0
M  V30 5112 C 470.946 -1.65025 1.66745 0
M  V30 5113 C 471.962 -1.6508 0.549954 0
M  V30 5114 O 473.138 -1.83848 0.822295 0
M  V30 5115 C 470.203 -3.0146 1.71238 0
M  V30 5116 C 469.264 -3.12182 2.94688 0
M  V30 5117 C 468.497 -4.42109 2.98958 0
M  V30 5118 O 468.72 -5.29799 2.1135 0
M  V30 5119 O 467.654 -4.57406 3.91233 0
M  V30 5120 H 471.48 -1.52801 2.62461 0
M  V30 5121 H 469.065 -0.694157 1.32294 0
M  V30 5122 H 470.947 -3.82584 1.76657 0
M  V30 5123 H 469.622 -3.13988 0.786975 0
M  V30 5124 H 468.529 -2.30316 2.94797 0
M  V30 5125 H 469.862 -3.04574 3.86646 0
M  V30 5126 N 471.514 -1.37532 -0.769588 0
M  V30 5127 C 472.446 -1.29347 -1.89214 0
M  V30 5128 C 473.459 -0.208842 -1.61455 0
M  V30 5129 O 474.648 -0.465158 -1.72333 0
M  V30 5130 C 471.748 -0.977649 -3.24492 0
M  V30 5131 C 470.921 -2.16817 -3.7988 0
M  V30 5132 C 469.98 -1.82229 -4.93639 0
M  V30 5133 O 469.006 -2.54548 -5.09111 0
M  V30 5134 N 470.208 -0.767696 -5.75401 0
M  V30 5135 H 472.973 -2.26073 -1.96751 0
M  V30 5136 H 470.534 -1.31185 -0.948795 0
M  V30 5137 H 472.526 -0.727065 -3.98115 0
M  V30 5138 H 471.096 -0.0988777 -3.12444 0
M  V30 5139 H 470.316 -2.58038 -2.9801 0
M  V30 5140 H 471.604 -2.96308 -4.13617 0
M  V30 5141 H 471.002 -0.167626 -5.65452 0
M  V30 5142 H 469.559 -0.576973 -6.49241 0
M  V30 5143 N 472.992 0.995999 -1.22138 0
M  V30 5144 C 474.238 1.7386 -1.05567 0
M  V30 5145 C 474.593 1.8808 0.405418 0
M  V30 5146 O 473.886 1.41062 1.29661 0
M  V30 5147 C 474.08 3.14553 -1.6968 0
M  V30 5148 C 473.909 3.14053 -3.21871 0
M  V30 5149 C 472.679 3.20121 -3.90961 0
M  V30 5150 C 474.877 2.98451 -4.18845 0
M  V30 5151 N 472.859 3.09342 -5.30265 0
M  V30 5152 C 474.23 2.95667 -5.4496 0
M  V30 5153 C 476.285 2.8282 -4.09777 0
M  V30 5154 C 474.988 2.78852 -6.63049 0
M  V30 5155 C 477.014 2.67364 -5.27513 0
M  V30 5156 C 476.376 2.65264 -6.52544 0
M  V30 5157 H 472.475 0.645989 -0.440706 0
M  V30 5158 H 475.059 1.1831 -1.54631 0
M  V30 5159 H 473.23 3.68353 -1.2317 0
M  V30 5160 H 474.962 3.77358 -1.4623 0
M  V30 5161 H 471.717 3.27679 -3.4194 0
M  V30 5162 H 472.141 3.0727 -6.03253 0
M  V30 5163 H 476.783 2.83243 -3.139 0
M  V30 5164 H 474.501 2.77175 -7.59078 0
M  V30 5165 H 478.087 2.56256 -5.22326 0
M  V30 5166 H 476.967 2.5345 -7.42114 0
M  V30 5167 N 474.47 1.03057 1.19235 0
M  V30 5168 C 475.417 0.612832 2.22515 0
M  V30 5169 C 476.387 -0.374224 1.61829 0
M  V30 5170 O 477.572 -0.270501 1.88873 0
M  V30 5171 C 474.712 -0.028475 3.45088 0
M  V30 5172 C 473.825 1.00483 4.20151 0
M  V30 5173 C 472.96 0.333102 5.30155 0
M  V30 5174 C 471.999 1.3522 5.96977 0
M  V30 5175 N 471.136 0.70616 6.9854 0
M  V30 5176 H 475.976 1.49812 2.57605 0
M  V30 5177 H 473.513 0.749658 1.26564 0
M  V30 5178 H 475.471 -0.417548 4.15105 0
M  V30 5179 H 474.101 -0.877334 3.10649 0
M  V30 5180 H 473.153 1.51194 3.49062 0
M  V30 5181 H 474.465 1.77929 4.65986 0
M  V30 5182 H 473.619 -0.110725 6.06599 0
M  V30 5183 H 472.358 -0.473547 4.85396 0
M  V30 5184 H 471.363 1.80627 5.19282 0
M  V30 5185 H 472.588 2.16037 6.4382 0
M  V30 5186 H 470.534 -0.0803667 6.55951 0
M  V30 5187 H 470.451 1.41848 7.42573 0
M  V30 5188 H 471.719 0.286391 7.78974 0
M  V30 5189 N 475.948 -1.35272 0.808662 0
M  V30 5190 C 477.194 -1.99003 0.390581 0
M  V30 5191 C 477.527 -1.63999 -1.0401 0
M  V30 5192 O 476.802 -0.904368 -1.72196 0
M  V30 5193 C 477.085 -3.55454 0.576566 0
M  V30 5194 C 476.938 -4.00249 2.05233 0
M  V30 5195 C 478.257 -4.401 0.00354277 0
M  V30 5196 H 475.376 -0.722917 0.143388 0
M  V30 5197 H 478.018 -1.6039 1.01858 0
M  V30 5198 H 476.168 -3.88477 0.0419766 0
M  V30 5199 H 477.84 -3.77626 2.64946 0
M  V30 5200 H 476.083 -3.51082 2.54801 0
M  V30 5201 H 476.754 -5.0911 2.13333 0
M  V30 5202 H 479.23 -4.13548 0.460117 0
M  V30 5203 H 478.106 -5.48656 0.163575 0
M  V30 5204 H 478.367 -4.28444 -1.09032 0
M  V30 5205 N 477.426 -0.562348 -1.47226 0
M  V30 5206 C 478.356 0.170627 -2.32876 0
M  V30 5207 C 479.337 0.903748 -1.44106 0
M  V30 5208 O 480.522 0.883206 -1.72954 0
M  V30 5209 C 477.652 1.19786 -3.25989 0
M  V30 5210 C 476.606 0.580875 -4.2404 0
M  V30 5211 C 475.932 1.71311 -5.06514 0
M  V30 5212 C 477.232 -0.468714 -5.20193 0
M  V30 5213 H 478.926 -0.544441 -2.94408 0
M  V30 5214 H 476.472 -0.263271 -1.41573 0
M  V30 5215 H 478.425 1.71884 -3.84752 0
M  V30 5216 H 477.149 1.94294 -2.62521 0
M  V30 5217 H 475.808 0.0811538 -3.6651 0
M  V30 5218 H 475.456 2.44736 -4.39447 0
M  V30 5219 H 475.156 1.30604 -5.72902 0
M  V30 5220 H 476.68 2.23725 -5.68137 0
M  V30 5221 H 478.094 -0.0336028 -5.7329 0
M  V30 5222 H 476.491 -0.794957 -5.94811 0
M  V30 5223 H 477.561 -1.36269 -4.65359 0
M  V30 5224 N 478.904 1.54736 -0.299062 0
M  V30 5225 C 479.852 2.24897 0.593658 0
M  V30 5226 C 480.846 1.25429 1.13859 0
M  V30 5227 O 482.052 1.43286 1.08945 0
M  V30 5228 H 478.427 0.72207 0.210046 0
M  V30 5229 H 480.398 2.98393 -0.0206421 0
M  V30 5230 C 479.147 3.00159 1.75499 0
M  V30 5231 H 478.47 3.76501 1.34489 0
M  V30 5232 H 479.91 3.52535 2.35574 0
M  V30 5233 C 478.369 2.07015 2.65794 0
M  V30 5234 O 478.899 1.63692 3.66835 0
M  V30 5235 N 477.105 1.73012 2.33485 0
M  V30 5236 H 476.652 2.08439 1.51364 0
M  V30 5237 H 476.61 1.10965 2.94167 0
M  V30 5238 N 480.382 0.0267497 1.57577 0
M  V30 5239 C 481.292 -0.971633 2.13533 0
M  V30 5240 C 482.308 -1.35868 1.08701 0
M  V30 5241 O 483.484 -1.44058 1.40746 0
M  V30 5242 C 480.549 -2.23622 2.64941 0
M  V30 5243 C 479.61 -1.90982 3.8448 0
M  V30 5244 C 478.843 -3.11411 4.33427 0
M  V30 5245 O 479.066 -4.23992 3.81558 0
M  V30 5246 O 478 -2.93848 5.25297 0
M  V30 5247 H 481.826 -0.525853 2.99113 0
M  V30 5248 H 479.411 -0.193712 1.48139 0
M  V30 5249 H 481.293 -2.97864 2.98086 0
M  V30 5250 H 479.968 -2.67386 1.82446 0
M  V30 5251 H 478.875 -1.14132 3.56265 0
M  V30 5252 H 480.208 -1.52036 4.6813 0
M  V30 5253 N 481.861 -1.55662 -0.24637 0
M  V30 5254 C 483.11 -1.7672 -0.972254 0
M  V30 5255 C 483.423 -0.59078 -1.86465 0
M  V30 5256 O 484.629 -0.684391 -2.62732 0
M  V30 5257 C 483.085 -3.12869 -1.7788 0
M  V30 5258 C 482.693 -4.38161 -0.933768 0
M  V30 5259 C 484.437 -3.43265 -2.49738 0
M  V30 5260 C 482.344 -5.6534 -1.73623 0
M  V30 5261 H 481.274 -0.658795 -0.366749 0
M  V30 5262 H 483.925 -1.82092 -0.226902 0
M  V30 5263 H 482.307 -3.01606 -2.56612 0
M  V30 5264 H 483.481 -4.60413 -0.188736 0
M  V30 5265 H 481.796 -4.15102 -0.328488 0
M  V30 5266 H 484.393 -4.35501 -3.10231 0
M  V30 5267 H 484.736 -2.64614 -3.2138 0
M  V30 5268 H 485.269 -3.55746 -1.78016 0
M  V30 5269 H 482.008 -6.46814 -1.06354 0
M  V30 5270 H 481.528 -5.47188 -2.45653 0
M  V30 5271 H 483.207 -6.04616 -2.30323 0
M  V30 5272 N 483.339 0.512053 -1.4905 0
M  V30 5273 C 484.616 1.27337 -1.48474 0
M  V30 5274 C 484.996 2.1009 -0.206301 0
M  V30 5275 O 484.344 2.136 0.811609 0
M  V30 5276 C 484.554 2.13954 -2.75726 0
M  V30 5277 C 485.902 2.73507 -3.24776 0
M  V30 5278 O 486.926 2.24229 -2.76767 0
M  V30 5279 O 485.785 3.63186 -4.08361 0
M  V30 5280 H 482.879 0.575652 -0.593762 0
M  V30 5281 H 485.425 0.527232 -1.61302 0
M  V30 5282 H 484.197 1.52709 -3.60272 0
M  V30 5283 H 483.82 2.95782 -2.65705 0
M  V30 5284 N 484.817 1.37938 0.762283 0
M  V30 5285 C 485.78 1.34279 1.85747 0
M  V30 5286 C 486.78 0.244969 1.58923 0
M  V30 5287 O 487.97 0.501365 1.66829 0
M  V30 5288 C 485.102 1.08833 3.23061 0
M  V30 5289 H 486.295 2.31705 1.90401 0
M  V30 5290 H 483.848 1.23105 0.963057 0
M  V30 5291 H 484.583 0.119767 3.24079 0
M  V30 5292 H 484.368 1.88306 3.43923 0
M  V30 5293 H 485.858 1.08946 4.03138 0
M  V30 5294 N 486.295 -0.989507 1.22664 0
M  V30 5295 C 487.543 -1.72612 1.05117 0
M  V30 5296 C 487.864 -1.90552 -0.414131 0
M  V30 5297 O 487.134 -1.4676 -1.29762 0
M  V30 5298 H 485.714 -0.639555 0.385977 0
M  V30 5299 H 488.376 -1.19158 1.54232 0
M  V30 5300 H 487.472 -2.71926 1.53175 0
M  V30 5301 N 487.773 -1.03688 -1.18687 0
M  V30 5302 C 489.019 -0.739123 -1.88851 0
M  V30 5303 C 489.352 0.731042 -1.79915 0
M  V30 5304 O 488.627 1.53313 -1.19688 0
M  V30 5305 C 488.91 -1.20106 -3.3948 0
M  V30 5306 C 488.763 -2.73304 -3.57246 0
M  V30 5307 C 490.082 -0.788134 -4.32986 0
M  V30 5308 H 487.201 -0.269978 -0.68577 0
M  V30 5309 H 489.843 -1.28822 -1.3966 0
M  V30 5310 H 487.993 -0.733915 -3.81505 0
M  V30 5311 H 489.665 -3.28027 -3.24339 0
M  V30 5312 H 487.908 -3.13313 -3.00029 0
M  V30 5313 H 488.579 -3.00684 -4.62918 0
M  V30 5314 H 491.055 -1.19005 -3.98719 0
M  V30 5315 H 489.931 -1.13915 -5.36949 0
M  V30 5316 H 490.192 0.308988 -4.41019 0
M  V30 5317 N 489.251 1.34841 -0.815825 0
M  V30 5318 C 490.491 2.00321 -0.406297 0
M  V30 5319 C 490.855 1.63293 1.00992 0
M  V30 5320 O 492.056 2.21563 1.52195 0
M  V30 5321 C 490.327 3.52421 -0.594469 0
M  V30 5322 S 491.886 4.37926 -0.276735 0
M  V30 5323 H 488.704 0.694155 -0.153848 0
M  V30 5324 H 491.306 1.64263 -1.06009 0
M  V30 5325 H 490.01 3.76858 -1.625 0
M  V30 5326 H 489.541 3.9333 0.0743157 0
M  V30 5327 H 491.556 4.87743 0.912215 0
M  V30 5328 N 490.729 0.570148 1.46925 0
M  V30 5329 C 491.639 -0.173061 2.33961 0
M  V30 5330 C 492.655 -0.898825 1.48987 0
M  V30 5331 O 493.831 -0.864825 1.81887 0
M  V30 5332 C 490.896 -1.18177 3.25937 0
M  V30 5333 C 489.957 -0.462041 4.26806 0
M  V30 5334 C 489.19 -1.4227 5.14388 0
M  V30 5335 O 489.413 -2.65842 5.04662 0
M  V30 5336 O 488.347 -0.940127 5.94513 0
M  V30 5337 H 492.173 0.541216 2.98839 0
M  V30 5338 H 489.758 0.330647 1.45695 0
M  V30 5339 H 491.64 -1.76372 3.82715 0
M  V30 5340 H 490.315 -1.87774 2.63671 0
M  V30 5341 H 489.222 0.161429 3.73752 0
M  V30 5342 H 490.555 0.192719 4.91823 0
M  V30 5343 N 492.207 -1.54576 0.307264 0
M  V30 5344 C 493.117 -2.27435 -0.57536 0
M  V30 5345 C 494.133 -1.31183 -1.14311 0
M  V30 5346 O 495.309 -1.64175 -1.16656 0
M  V30 5347 C 492.374 -3.00566 -1.72803 0
M  V30 5348 C 491.435 -4.12369 -1.19373 0
M  V30 5349 C 490.668 -4.82003 -2.29147 0
M  V30 5350 O 490.891 -4.51038 -3.49171 0
M  V30 5351 O 489.825 -5.69271 -1.95485 0
M  V30 5352 H 493.651 -3.03696 0.0158558 0
M  V30 5353 H 491.236 -1.49219 0.0735064 0
M  V30 5354 H 493.118 -3.46416 -2.39946 0
M  V30 5355 H 491.793 -2.27195 -2.30574 0
M  V30 5356 H 490.7 -3.70905 -0.487851 0
M  V30 5357 H 492.033 -4.87736 -0.661376 0
M  V30 5358 N 493.685 -0.035106 -1.57561 0
M  V30 5359 C 494.618 0.979673 -2.06101 0
M  V30 5360 C 495.596 1.31378 -0.958046 0
M  V30 5361 O 496.78 1.42942 -1.22881 0
M  V30 5362 C 493.907 2.29809 -2.48808 0
M  V30 5363 C 492.953 2.11817 -3.70184 0
M  V30 5364 S 493.786 1.41143 -5.16565 0
M  V30 5365 C 494.942 2.74341 -5.62572 0
M  V30 5366 H 495.175 0.566506 -2.91853 0
M  V30 5367 H 492.708 0.176744 -1.53385 0
M  V30 5368 H 494.666 3.056 -2.74078 0
M  V30 5369 H 493.327 2.68257 -1.63392 0
M  V30 5370 H 492.52 3.09299 -3.97933 0
M  V30 5371 H 492.122 1.44168 -3.45097 0
M  V30 5372 H 494.414 3.70562 -5.67177 0
M  V30 5373 H 495.357 2.51249 -6.62027 0
M  V30 5374 H 495.765 2.79863 -4.90242 0
M  V30 5375 N 495.163 1.55791 0.238111 0
M  V30 5376 C 496.391 1.82098 0.982233 0
M  V30 5377 C 496.806 0.612025 1.78605 0
M  V30 5378 O 496.163 -0.419381 1.77616 0
M  V30 5379 C 496.214 3.0673 1.91309 0
M  V30 5380 O 495.935 4.2296 1.14179 0
M  V30 5381 C 497.436 3.45903 2.77248 0
M  V30 5382 H 494.656 0.605748 0.288635 0
M  V30 5383 H 497.2 2.02862 0.258341 0
M  V30 5384 H 495.355 2.87991 2.59114 0
M  V30 5385 H 495.769 4.93653 1.7722 0
M  V30 5386 H 497.243 4.36189 3.38295 0
M  V30 5387 H 497.72 2.66891 3.48806 0
M  V30 5388 H 498.326 3.67024 2.14881 0
M  V30 5389 N 496.642 -0.504142 1.49319 0
M  V30 5390 C 497.872 -1.28071 1.62116 0
M  V30 5391 C 498.28 -1.86955 0.290566 0
M  V30 5392 O 497.623 -1.68415 -0.733616 0
M  V30 5393 C 497.685 -2.4521 2.62893 0
M  V30 5394 C 497.349 -2.07218 4.0732 0
M  V30 5395 C 498.346 -1.61375 4.94221 0
M  V30 5396 C 496.031 -2.16949 4.53033 0
M  V30 5397 C 498.025 -1.25763 6.2487 0
M  V30 5398 C 495.712 -1.80949 5.83696 0
M  V30 5399 C 496.71 -1.3543 6.69438 0
M  V30 5400 O 496.398 -0.99915 7.97667 0
M  V30 5401 H 496.13 -0.394763 0.54876 0
M  V30 5402 H 498.684 -0.612118 1.96067 0
M  V30 5403 H 496.914 -3.15134 2.24115 0
M  V30 5404 H 498.603 -3.0724 2.65252 0
M  V30 5405 H 499.369 -1.53306 4.60133 0
M  V30 5406 H 495.248 -2.5133 3.86463 0
M  V30 5407 H 498.792 -0.901631 6.91749 0
M  V30 5408 H 494.689 -1.88667 6.17313 0
M  V30 5409 H 495.457 -1.13089 8.1065 0
M  V30 5410 N 498.12 -1.38341 -0.754957 0
M  V30 5411 C 499.03 -1.3769 -1.89944 0
M  V30 5412 C 500.046 -0.274194 -1.71826 0
M  V30 5413 O 501.222 -0.512391 -1.94773 0
M  V30 5414 C 498.287 -1.19938 -3.25293 0
M  V30 5415 C 497.348 -2.40001 -3.55946 0
M  V30 5416 C 496.581 -2.23087 -4.84838 0
M  V30 5417 O 496.804 -1.22386 -5.57116 0
M  V30 5418 O 495.738 -3.11646 -5.14937 0
M  V30 5419 H 499.564 -2.3412 -1.93446 0
M  V30 5420 H 497.149 -1.19246 -0.900044 0
M  V30 5421 H 499.031 -1.12093 -4.06218 0
M  V30 5422 H 497.706 -0.265919 -3.22606 0
M  V30 5423 H 496.613 -2.53421 -2.75188 0
M  V30 5424 H 497.946 -3.31973 -3.63394 0
M  V30 5425 N 499.598 0.982988 -1.23187 0
M  V30 5426 C 500.508 2.10907 -1.02739 0
M  V30 5427 C 501.524 1.73979 0.0273188 0
M  V30 5428 O 502.7 2.00702 -0.16757 0
M  V30 5429 C 499.765 3.41142 -0.618304 0
M  V30 5430 C 498.826 3.92112 -1.74777 0
M  V30 5431 C 498.059 5.16131 -1.3581 0
M  V30 5432 O 498.282 5.6989 -0.241201 0
M  V30 5433 O 497.216 5.61103 -2.17824 0
M  V30 5434 H 501.042 2.31046 -1.97108 0
M  V30 5435 H 498.627 1.09284 -1.01869 0
M  V30 5436 H 500.509 4.19488 -0.400982 0
M  V30 5437 H 499.184 3.2234 0.296421 0
M  V30 5438 H 498.091 3.14895 -2.0197 0
M  V30 5439 H 499.424 4.15364 -2.64071 0
M  V30 5440 N 501.076 1.04316 1.18135 0
M  V30 5441 C 502.325 0.74319 1.87509 0
M  V30 5442 C 502.638 -0.732136 1.81381 0
M  V30 5443 O 503.844 -1.14572 2.46141 0
M  V30 5444 C 502.3 1.27913 3.36402 0
M  V30 5445 C 501.908 2.78326 3.51053 0
M  V30 5446 C 503.652 1.0558 4.11161 0
M  V30 5447 C 501.559 3.25266 4.93919 0
M  V30 5448 H 500.489 0.274313 0.702331 0
M  V30 5449 H 503.14 1.25931 1.33467 0
M  V30 5450 H 501.522 0.690853 3.89927 0
M  V30 5451 H 502.696 3.42933 3.07788 0
M  V30 5452 H 501.011 2.991 2.89704 0
M  V30 5453 H 503.608 1.38161 5.16542 0
M  V30 5454 H 503.951 -0.00684729 4.16299 0
M  V30 5455 H 504.484 1.60882 3.63816 0
M  V30 5456 H 501.223 4.30922 4.9395 0
M  V30 5457 H 500.743 2.65396 5.3789 0
M  V30 5458 H 502.422 3.19433 5.62647 0
M  V30 5459 N 502.554 -1.34406 0.822964 0
M  V30 5460 C 503.486 -2.28305 0.202375 0
M  V30 5461 C 504.499 -1.5103 -0.60777 0
M  V30 5462 O 505.688 -1.73057 -0.437444 0
M  V30 5463 C 502.788 -3.30836 -0.734911 0
M  V30 5464 C 501.961 -4.37388 0.0324177 0
M  V30 5465 C 501.02 -5.1968 -0.825803 0
M  V30 5466 O 500.046 -5.68556 -0.270771 0
M  V30 5467 N 501.248 -5.39393 -2.14558 0
M  V30 5468 H 504.013 -2.82201 1.00909 0
M  V30 5469 H 501.574 -1.4693 0.67993 0
M  V30 5470 H 503.566 -3.82786 -1.31365 0
M  V30 5471 H 502.136 -2.77334 -1.44238 0
M  V30 5472 H 501.356 -3.86152 0.792469 0
M  V30 5473 H 502.644 -5.05702 0.560633 0
M  V30 5474 H 502.042 -5.01357 -2.62025 0
M  V30 5475 H 500.599 -5.94461 -2.67318 0
M  V30 5476 N 504.032 -0.577932 -1.46621 0
M  V30 5477 C 505.309 0.00495287 -1.95599 0
M  V30 5478 C 505.689 1.46428 -1.5206 0
M  V30 5479 O 505.037 2.1517 -0.769046 0
M  V30 5480 C 505.247 -0.162114 -3.48623 0
M  V30 5481 C 506.595 -0.0274623 -4.24591 0
M  V30 5482 O 507.619 -0.0907067 -3.56084 0
M  V30 5483 O 506.478 0.1122 -5.46385 0
M  V30 5484 H 503.572 0.0525057 -0.825332 0
M  V30 5485 H 506.118 -0.645914 -1.56927 0
M  V30 5486 H 504.89 -1.17679 -3.73185 0
M  V30 5487 H 504.513 0.525407 -3.94113 0
M  V30 5488 N 505.51 1.54411 -0.315457 0
M  V30 5489 C 506.458 2.25514 0.569771 0
M  V30 5490 C 507.452 1.2663 1.12522 0
M  V30 5491 O 508.658 1.44434 1.07419 0
M  V30 5492 H 505.033 0.724257 0.202376 0
M  V30 5493 H 507.004 2.98354 -0.0522895 0
M  V30 5494 C 505.753 3.02004 1.72305 0
M  V30 5495 H 505.076 3.77906 1.30488 0
M  V30 5496 H 506.516 3.55014 2.31821 0
M  V30 5497 C 504.975 2.09822 2.63583 0
M  V30 5498 O 505.505 1.67574 3.65078 0
M  V30 5499 N 503.711 1.75478 2.31637 0
M  V30 5500 H 503.258 2.10032 1.49145 0
M  V30 5501 H 503.216 1.14079 2.92973 0
M  V30 5502 N 506.988 0.0434614 1.5754 0
M  V30 5503 C 508.218 -0.640905 1.96408 0
M  V30 5504 C 508.626 -1.65365 0.919297 0
M  V30 5505 O 507.969 -1.83395 -0.105795 0
M  V30 5506 C 508.031 -1.39141 3.31482 0
M  V30 5507 C 507.695 -0.535375 4.53853 0
M  V30 5508 C 508.692 0.195335 5.19533 0
M  V30 5509 C 506.377 -0.468564 5.0011 0
M  V30 5510 C 508.371 0.981377 6.298 0
M  V30 5511 C 506.058 0.321171 6.10255 0
M  V30 5512 C 507.056 1.04484 6.74961 0
M  V30 5513 O 506.744 1.8216 7.8299 0
M  V30 5514 H 506.476 -0.180584 0.651433 0
M  V30 5515 H 509.03 0.103848 2.05137 0
M  V30 5516 H 507.26 -2.18162 3.19284 0
M  V30 5517 H 508.949 -1.96526 3.55151 0
M  V30 5518 H 509.715 0.15314 4.84758 0
M  V30 5519 H 505.594 -1.02142 4.49542 0
M  V30 5520 H 509.138 1.54674 6.80237 0
M  V30 5521 H 505.035 0.365032 6.44467 0
M  V30 5522 H 505.803 1.74289 7.99728 0
M  V30 5523 N 508.466 -1.55915 -0.229846 0
M  V30 5524 C 509.877 -1.68809 -0.797531 0
M  V30 5525 C 510.228 -0.643995 -1.8533 0
M  V30 5526 O 509.353 0.206492 -2.15413 0
M  V30 5527 C 509.948 -3.06043 -1.45338 0
M  V30 5528 C 508.507 -3.20819 -1.96856 0
M  V30 5529 C 507.654 -2.6472 -0.825736 0
M  V30 5530 H 510.605 -1.58699 -0.00533733 0
M  V30 5531 H 510.626 -3.01438 -2.32196 0
M  V30 5532 H 510.138 -3.82012 -0.684743 0
M  V30 5533 H 508.239 -2.49704 -2.76548 0
M  V30 5534 H 508.352 -4.27937 -2.15423 0
M  V30 5535 H 506.716 -2.22985 -1.23084 0
M  V30 5536 H 507.499 -3.43229 -0.0699019 0
M  V30 5537 N 509.944 0.496216 -1.49584 0
M  V30 5538 C 510.874 1.60576 -1.69521 0
M  V30 5539 C 511.855 1.61169 -0.543933 0
M  V30 5540 O 513.04 1.77834 -0.78031 0
M  V30 5541 C 510.17 2.99038 -1.76616 0
M  V30 5542 C 509.124 3.13312 -2.91581 0
M  V30 5543 C 508.45 4.53172 -2.83794 0
M  V30 5544 C 509.75 2.92886 -4.32452 0
M  V30 5545 H 511.444 1.44146 -2.62416 0
M  V30 5546 H 508.99 0.692024 -1.26282 0
M  V30 5547 H 510.943 3.76564 -1.8915 0
M  V30 5548 H 509.667 3.16568 -0.80324 0
M  V30 5549 H 508.326 2.38213 -2.78658 0
M  V30 5550 H 507.974 4.67585 -1.854 0
M  V30 5551 H 507.674 4.63662 -3.60958 0
M  V30 5552 H 509.198 5.32752 -2.98342 0
M  V30 5553 H 510.612 3.60178 -4.46032 0
M  V30 5554 H 509.009 3.14844 -5.10875 0
M  V30 5555 H 510.079 1.88966 -4.46565 0
M  V30 5556 N 511.423 1.38739 0.74761 0
M  V30 5557 C 512.333 1.38696 1.89211 0
M  V30 5558 C 513.349 0.283303 1.71678 0
M  V30 5559 O 514.525 0.522713 1.94498 0
M  V30 5560 C 511.59 1.21662 3.24653 0
M  V30 5561 C 510.651 2.41886 3.54669 0
M  V30 5562 C 509.884 2.25655 4.83648 0
M  V30 5563 O 510.107 1.25339 5.56459 0
M  V30 5564 O 509.041 3.14372 5.13277 0
M  V30 5565 H 512.867 2.35143 1.92202 0
M  V30 5566 H 510.452 1.19721 0.893708 0
M  V30 5567 H 512.334 1.14246 4.05618 0
M  V30 5568 H 511.009 0.283024 3.2246 0
M  V30 5569 H 509.916 2.54877 2.73841 0
M  V30 5570 H 511.249 3.33895 3.61628 0
M  V30 5571 N 512.901 -0.976442 1.23707 0
M  V30 5572 C 514.148 -1.71827 1.07153 0
M  V30 5573 C 514.476 -1.9053 -0.390982 0
M  V30 5574 O 513.731 -1.45779 -1.30564 0
M  V30 5575 C 514.03 -3.11814 1.74662 0
M  V30 5576 C 513.696 -3.12978 3.24585 0
M  V30 5577 C 512.358 -3.13003 3.6549 0
M  V30 5578 C 514.71 -3.07986 4.20469 0
M  V30 5579 C 512.038 -3.05757 5.00729 0
M  V30 5580 C 514.39 -3.02282 5.55705 0
M  V30 5581 C 513.054 -3.00631 5.95968 0
M  V30 5582 H 512.324 -0.628758 0.392102 0
M  V30 5583 H 514.971 -1.14239 1.53693 0
M  V30 5584 H 513.276 -3.72812 1.20492 0
M  V30 5585 H 514.973 -3.67989 1.59328 0
M  V30 5586 H 511.563 -3.13718 2.92026 0
M  V30 5587 H 515.747 -3.07103 3.89874 0
M  V30 5588 H 511.003 -3.02834 5.31132 0
M  V30 5589 H 515.177 -2.97376 6.29714 0
M  V30 5590 H 512.804 -2.94771 7.00724 0
M  V30 5591 N 514.379 -1.04941 -1.1758 0
M  V30 5592 C 515.342 -0.652456 -2.19717 0
M  V30 5593 C 516.342 0.294745 -1.58076 0
M  V30 5594 O 517.532 0.0789579 -1.74021 0
M  V30 5595 C 514.664 0.0420712 -3.40874 0
M  V30 5596 H 515.857 -1.55642 -2.5635 0
M  V30 5597 H 513.41 -0.842995 -1.31618 0
M  V30 5598 H 514.145 0.95943 -3.09783 0
M  V30 5599 H 513.93 -0.638844 -3.86861 0
M  V30 5600 H 515.42 0.306 -4.16477 0
M  V30 5601 N 515.857 1.33968 -0.830081 0
M  V30 5602 C 516.787 2.31911 -0.271911 0
M  V30 5603 C 517.768 1.58571 0.61556 0
M  V30 5604 O 518.953 1.86514 0.540946 0
M  V30 5605 C 516.083 3.42737 0.561146 0
M  V30 5606 C 515.037 4.27383 -0.229789 0
M  V30 5607 C 514.363 5.29742 0.726463 0
M  V30 5608 C 515.663 5.02 -1.44197 0
M  V30 5609 H 517.357 2.78844 -1.09025 0
M  V30 5610 H 514.903 1.34061 -0.52571 0
M  V30 5611 H 516.856 4.10276 0.961867 0
M  V30 5612 H 515.58 2.94471 1.41261 0
M  V30 5613 H 514.239 3.61456 -0.611964 0
M  V30 5614 H 513.887 4.77736 1.57408 0
M  V30 5615 H 513.587 5.87255 0.20142 0
M  V30 5616 H 515.111 6.00149 1.12489 0
M  V30 5617 H 516.525 5.62355 -1.11488 0
M  V30 5618 H 514.922 5.69122 -1.90317 0
M  V30 5619 H 515.992 4.31281 -2.2164 0
M  V30 5620 N 517.335 0.585699 1.46312 0
M  V30 5621 C 518.751 0.247607 1.57668 0
M  V30 5622 C 518.951 -1.25007 1.58037 0
M  V30 5623 O 518.007 -2.03196 1.49893 0
M  V30 5624 C 519.32 0.899456 2.86933 0
M  V30 5625 C 520.868 0.873326 3.00569 0
M  V30 5626 C 521.343 1.50477 4.32574 0
M  V30 5627 N 522.834 1.46925 4.3928 0
M  V30 5628 C 523.569 1.92719 5.40044 0
M  V30 5629 N 523.065 2.46499 6.47464 0
M  V30 5630 N 524.858 1.83617 5.31264 0
M  V30 5631 H 517.009 1.55841 1.44317 0
M  V30 5632 H 519.272 0.651564 0.688599 0
M  V30 5633 H 518.978 1.95313 2.92482 0
M  V30 5634 H 518.852 0.409476 3.74971 0
M  V30 5635 H 521.239 -0.171736 2.946 0
M  V30 5636 H 521.32 1.40136 2.13999 0
M  V30 5637 H 520.964 2.54905 4.39302 0
M  V30 5638 H 520.894 0.951944 5.17924 0
M  V30 5639 H 523.385 1.07616 3.62253 0
M  V30 5640 H 523.698 2.79291 7.20567 0
M  V30 5641 H 522.043 2.50526 6.48276 0
M  V30 5642 H 525.234 1.41358 4.46246 0
M  V30 5643 H 525.407 2.19622 6.09648 0
M  V30 5644 N 518.813 -1.54241 0.323641 0
M  V30 5645 C 520.09 -1.92741 -0.333181 0
M  V30 5646 C 520.47 -1.25326 -1.69872 0
M  V30 5647 O 519.818 -0.396991 -2.25025 0
M  V30 5648 C 520.028 -3.46399 -0.425322 0
M  V30 5649 C 521.376 -4.19029 -0.68557 0
M  V30 5650 O 522.4 -3.52555 -0.50824 0
M  V30 5651 O 521.259 -5.36751 -1.02767 0
M  V30 5652 H 518.353 -0.804811 -0.190286 0
M  V30 5653 H 520.899 -1.65542 0.373361 0
M  V30 5654 H 519.671 -3.87643 0.533737 0
M  V30 5655 H 519.294 -3.79704 -1.17944 0
M  V30 5656 N 520.291 -0.0518155 -1.57515 0
M  V30 5657 C 521.223 0.951542 -2.08515 0
M  V30 5658 C 522.236 1.27436 -1.01311 0
M  V30 5659 O 523.425 1.23504 -1.28876 0
M  V30 5660 C 520.525 2.27291 -2.5138 0
M  V30 5661 C 519.698 2.13191 -3.81927 0
M  V30 5662 C 518.757 3.28458 -4.11098 0
M  V30 5663 O 517.783 3.04334 -4.81009 0
M  V30 5664 N 518.985 4.52954 -3.63061 0
M  V30 5665 H 521.75 0.516242 -2.9522 0
M  V30 5666 H 519.311 0.13441 -1.61341 0
M  V30 5667 H 521.303 3.03272 -2.67971 0
M  V30 5668 H 519.873 2.62386 -1.69919 0
M  V30 5669 H 519.093 1.21798 -3.74912 0
M  V30 5670 H 520.381 2.00999 -4.67415 0
M  V30 5671 H 519.779 4.75444 -3.06545 0
M  V30 5672 H 518.336 5.26026 -3.84889 0
M  V30 5673 N 521.769 1.56035 0.221574 0
M  V30 5674 C 523.046 1.69837 0.970301 0
M  V30 5675 C 523.426 0.599065 2.02421 0
M  V30 5676 O 522.774 -0.393929 2.25079 0
M  V30 5677 C 522.984 3.11148 1.58076 0
M  V30 5678 C 524.332 3.70555 2.07302 0
M  V30 5679 O 525.356 3.14109 1.6797 0
M  V30 5680 O 524.215 4.69562 2.79596 0
M  V30 5681 H 521.309 0.691727 0.453257 0
M  V30 5682 H 523.855 1.68353 0.213358 0
M  V30 5683 H 522.627 3.82617 0.819759 0
M  V30 5684 H 522.25 3.16749 2.40324 0
M  V30 5685 N 523.247 -0.488276 1.49845 0
M  V30 5686 C 524.194 -1.58836 1.67451 0
M  V30 5687 C 525.164 -1.57886 0.515857 0
M  V30 5688 O 526.349 -1.75679 0.744403 0
M  V30 5689 C 523.489 -2.96915 1.75885 0
M  V30 5690 C 522.602 -3.07784 3.03138 0
M  V30 5691 C 521.737 -4.36673 3.02473 0
M  V30 5692 C 520.776 -4.41222 4.24252 0
M  V30 5693 N 519.913 -5.61557 4.21424 0
M  V30 5694 H 524.753 -1.43131 2.61376 0
M  V30 5695 H 522.29 -0.696186 1.29583 0
M  V30 5696 H 524.248 -3.76965 1.78755 0
M  V30 5697 H 522.878 -3.11295 0.85414 0
M  V30 5698 H 521.93 -2.20717 3.09819 0
M  V30 5699 H 523.242 -3.07005 3.93128 0
M  V30 5700 H 522.396 -5.25055 3.03977 0
M  V30 5701 H 521.135 -4.40037 2.10283 0
M  V30 5702 H 520.14 -3.5124 4.22978 0
M  V30 5703 H 521.365 -4.39564 5.17649 0
M  V30 5704 H 519.311 -5.65738 3.32078 0
M  V30 5705 H 519.228 -5.62447 5.05163 0
M  V30 5706 H 520.496 -6.52111 4.2705 0
M  V30 5707 N 524.725 -1.39134 -0.740242 0
M  V30 5708 C 525.955 -1.39132 -1.52728 0
M  V30 5709 C 526.363 0.0173133 -1.89192 0
M  V30 5710 O 525.706 0.997715 -1.54244 0
M  V30 5711 C 525.768 -2.1952 -2.84695 0
M  V30 5712 C 525.432 -3.68203 -2.70695 0
M  V30 5713 C 526.429 -4.61401 -2.39593 0
M  V30 5714 C 524.114 -4.11724 -2.8773 0
M  V30 5715 C 526.108 -5.96102 -2.25701 0
M  V30 5716 C 523.795 -5.46503 -2.73456 0
M  V30 5717 C 524.793 -6.38506 -2.42486 0
M  V30 5718 O 524.481 -7.70803 -2.28295 0
M  V30 5719 H 524.213 -0.477263 -0.478744 0
M  V30 5720 H 526.767 -1.83504 -0.922799 0
M  V30 5721 H 524.997 -1.69888 -3.47383 0
M  V30 5722 H 526.686 -2.1176 -3.46284 0
M  V30 5723 H 527.452 -4.29079 -2.26088 0
M  V30 5724 H 523.331 -3.4045 -3.10829 0
M  V30 5725 H 526.875 -6.6788 -2.0145 0
M  V30 5726 H 522.772 -5.78417 -2.86538 0
M  V30 5727 H 523.54 -7.8147 -2.43405 0
M  V30 5728 N 526.204 0.969867 -1.24223 0
M  V30 5729 C 527.62 1.23809 -1.00716 0
M  V30 5730 C 527.82 1.99469 0.285358 0
M  V30 5731 O 526.876 2.31764 1.00207 0
M  V30 5732 C 528.189 2.02734 -2.2208 0
M  V30 5733 C 529.737 2.15834 -2.26681 0
M  V30 5734 C 530.212 2.98154 -3.47661 0
M  V30 5735 N 531.703 3.05737 -3.47964 0
M  V30 5736 C 532.438 3.69785 -4.38231 0
M  V30 5737 N 531.934 4.35569 -5.3875 0
M  V30 5738 N 533.727 3.66775 -4.25949 0
M  V30 5739 H 525.878 0.463294 -2.07286 0
M  V30 5740 H 528.141 0.267348 -0.909521 0
M  V30 5741 H 527.847 1.54524 -3.15935 0
M  V30 5742 H 527.721 3.0347 -2.24021 0
M  V30 5743 H 530.108 2.63248 -1.33359 0
M  V30 5744 H 530.189 1.14453 -2.28767 0
M  V30 5745 H 529.833 2.51435 -4.41297 0
M  V30 5746 H 529.763 3.99729 -3.42818 0
M  V30 5747 H 532.254 2.58941 -2.75242 0
M  V30 5748 H 532.567 4.82251 -6.03866 0
M  V30 5749 H 530.912 4.34244 -5.42639 0
M  V30 5750 H 534.103 3.14558 -3.46657 0
M  V30 5751 H 534.276 4.16407 -4.96497 0
M  V30 5752 N 527.682 1.05563 1.17022 0
M  V30 5753 C 528.912 0.787307 1.91011 0
M  V30 5754 C 529.32 -0.661256 1.77268 0
M  V30 5755 O 528.663 -1.46379 1.10991 0
M  V30 5756 C 528.725 1.09313 3.42478 0
M  V30 5757 C 528.389 2.53863 3.80004 0
M  V30 5758 C 529.386 3.52081 3.82538 0
M  V30 5759 C 527.071 2.88969 4.10855 0
M  V30 5760 C 529.065 4.83449 4.15399 0
M  V30 5761 C 526.752 4.2054 4.43384 0
M  V30 5762 C 527.75 5.17589 4.45635 0
M  V30 5763 O 527.438 6.46799 4.77395 0
M  V30 5764 H 527.17 0.285463 0.61277 0
M  V30 5765 H 529.724 1.41051 1.49311 0
M  V30 5766 H 527.954 0.412833 3.8449 0
M  V30 5767 H 529.643 0.810224 3.97731 0
M  V30 5768 H 530.409 3.26299 3.58823 0
M  V30 5769 H 526.288 2.1409 4.08272 0
M  V30 5770 H 529.832 5.59194 4.1707 0
M  V30 5771 H 525.729 4.46083 4.66563 0
M  V30 5772 H 526.497 6.51677 4.95237 0
M  V30 5773 N 529.16 -1.33526 0.837174 0
M  V30 5774 C 530.576 -1.50727 0.524743 0
M  V30 5775 C 530.776 -1.77792 -0.948279 0
M  V30 5776 O 529.832 -1.83719 -1.73216 0
M  V30 5777 C 531.145 -2.66299 1.39661 0
M  V30 5778 C 532.693 -2.80183 1.39521 0
M  V30 5779 C 533.168 -3.98815 2.25189 0
M  V30 5780 N 534.659 -4.06047 2.2289 0
M  V30 5781 C 535.394 -4.97032 2.85915 0
M  V30 5782 N 534.89 -5.93143 3.57985 0
M  V30 5783 N 536.683 -4.90015 2.75394 0
M  V30 5784 H 528.834 -1.1422 1.79074 0
M  V30 5785 H 531.097 -0.561399 0.763894 0
M  V30 5786 H 530.803 -2.52974 2.4433 0
M  V30 5787 H 530.677 -3.61663 1.07145 0
M  V30 5788 H 533.064 -2.92942 0.356253 0
M  V30 5789 H 533.145 -1.85586 1.76044 0
M  V30 5790 H 532.789 -3.86817 3.29143 0
M  V30 5791 H 532.719 -4.92654 1.86009 0
M  V30 5792 H 535.21 -3.37262 1.70478 0
M  V30 5793 H 535.523 -6.59227 4.03286 0
M  V30 5794 H 533.868 -5.93223 3.62093 0
M  V30 5795 H 537.059 -4.13894 2.18654 0
M  V30 5796 H 537.232 -5.60724 3.24796 0
M  V30 5797 N 530.638 -0.59345 -1.46 0
M  V30 5798 C 531.868 -0.0889642 -2.06408 0
M  V30 5799 C 532.276 1.22597 -1.44106 0
M  V30 5800 O 531.619 1.75448 -0.544398 0
M  V30 5801 C 531.681 0.139902 -3.59228 0
M  V30 5802 C 531.345 -1.09107 -4.43784 0
M  V30 5803 C 532.342 -2.00577 -4.79651 0
M  V30 5804 C 530.027 -1.31593 -4.84756 0
M  V30 5805 C 532.021 -3.12873 -5.55328 0
M  V30 5806 C 529.708 -2.44192 -5.60191 0
M  V30 5807 C 530.706 -3.34661 -5.95392 0
M  V30 5808 O 530.394 -4.45302 -6.69299 0
M  V30 5809 H 530.126 -0.0594613 -0.67338 0
M  V30 5810 H 532.68 -0.817 -1.88452 0
M  V30 5811 H 530.91 0.922672 -3.75531 0
M  V30 5812 H 532.599 0.594228 -4.01527 0
M  V30 5813 H 533.365 -1.84425 -4.48567 0
M  V30 5814 H 529.244 -0.620801 -4.56801 0
M  V30 5815 H 532.788 -3.83511 -5.82722 0
M  V30 5816 H 528.685 -2.60303 -5.90688 0
M  V30 5817 H 529.453 -4.43805 -6.87735 0
M  V30 5818 N 532.116 1.54067 -0.331816 0
M  V30 5819 C 533.527 1.86059 0.15454 0
M  V30 5820 C 533.878 1.25331 1.50952 0
M  V30 5821 O 533.003 0.562441 2.08963 0
M  V30 5822 C 533.598 3.37581 0.287192 0
M  V30 5823 C 532.157 3.69493 0.717773 0
M  V30 5824 C 531.304 2.76863 -0.155569 0
M  V30 5825 H 534.255 1.48797 -0.55182 0
M  V30 5826 H 534.276 3.63744 1.11671 0
M  V30 5827 H 533.788 3.81751 -0.699131 0
M  V30 5828 H 531.889 3.3086 1.71354 0
M  V30 5829 H 532.002 4.76315 0.5158 0
M  V30 5830 H 530.366 2.51995 0.370213 0
M  V30 5831 H 531.149 3.23861 -1.13881 0
M  V30 5832 N 533.594 0.0601682 1.57485 0
M  V30 5833 C 534.541 -0.91112 2.12055 0
M  V30 5834 C 535.511 -1.30298 1.03013 0
M  V30 5835 O 536.696 -1.39087 1.30612 0
M  V30 5836 C 533.836 -2.1775 2.67729 0
M  V30 5837 C 532.949 -1.83933 3.90887 0
M  V30 5838 C 532.084 -3.05096 4.34845 0
M  V30 5839 C 531.123 -2.67241 5.5068 0
M  V30 5840 N 530.26 -3.81127 5.8965 0
M  V30 5841 H 535.1 -0.43888 2.9475 0
M  V30 5842 H 532.637 -0.204995 1.45665 0
M  V30 5843 H 534.595 -2.91866 2.98111 0
M  V30 5844 H 533.225 -2.62535 1.87816 0
M  V30 5845 H 532.277 -0.999287 3.6704 0
M  V30 5846 H 533.589 -1.52074 4.75052 0
M  V30 5847 H 532.743 -3.87502 4.66827 0
M  V30 5848 H 531.482 -3.40139 3.49509 0
M  V30 5849 H 530.487 -1.83254 5.18361 0
M  V30 5850 H 531.712 -2.3338 6.37738 0
M  V30 5851 H 529.658 -4.15954 5.07266 0
M  V30 5852 H 529.575 -3.52997 6.68528 0
M  V30 5853 H 530.843 -4.64145 6.2625 0
M  V30 5854 N 535.072 -1.5615 -0.213296 0
M  V30 5855 C 536.32 -1.79191 -0.934612 0
M  V30 5856 C 536.641 -0.630112 -1.84539 0
M  V30 5857 O 535.911 0.35257 -1.92701 0
M  V30 5858 H 534.491 -0.660937 -0.348097 0
M  V30 5859 H 537.153 -1.93618 -0.22317 0
M  V30 5860 H 536.249 -2.71656 -1.53654 0
M  V30 5861 N 536.55 0.480323 -1.50102 0
M  V30 5862 C 537.46 1.60547 -1.71061 0
M  V30 5863 C 538.476 1.63564 -0.593529 0
M  V30 5864 O 539.652 1.81604 -0.870751 0
M  V30 5865 C 536.717 2.96814 -1.79171 0
M  V30 5866 C 535.778 3.04259 -3.02861 0
M  V30 5867 C 535.011 4.34027 -3.10574 0
M  V30 5868 O 535.234 5.24009 -2.25323 0
M  V30 5869 O 534.168 4.46873 -4.03223 0
M  V30 5870 H 537.994 1.45788 -2.6642 0
M  V30 5871 H 535.579 0.658838 -1.34088 0
M  V30 5872 H 537.461 3.77765 -1.86738 0
M  V30 5873 H 536.136 3.11791 -0.869947 0
M  V30 5874 H 535.043 2.22419 -3.008 0
M  V30 5875 H 536.376 2.94216 -3.94586 0
M  V30 5876 N 538.028 1.39524 0.732853 0
M  V30 5877 C 539.253 1.40329 1.52717 0
M  V30 5878 C 539.678 0.000286574 1.881 0
M  V30 5879 O 539.036 -0.987262 1.52062 0
M  V30 5880 C 539.084 2.28464 2.78992 0
M  V30 5881 O 538.188 1.716 3.75003 0
M  V30 5882 H 537.529 0.47778 0.461109 0
M  V30 5883 H 540.059 1.83546 0.903996 0
M  V30 5884 H 540.069 2.43051 3.27705 0
M  V30 5885 H 538.744 3.30425 2.52572 0
M  V30 5886 H 537.321 1.66267 3.33781 0
M  V30 5887 N 539.506 -0.963266 1.24736 0
M  V30 5888 C 540.736 -1.73913 1.11524 0
M  V30 5889 C 541.144 -1.86218 -0.334612 0
M  V30 5890 O 540.487 -1.3531 -1.24245 0
M  V30 5891 C 540.549 -3.17501 1.68622 0
M  V30 5892 C 540.213 -3.28655 3.17546 0
M  V30 5893 C 541.21 -3.13637 4.14642 0
M  V30 5894 C 538.895 -3.52753 3.5759 0
M  V30 5895 C 540.889 -3.2255 5.49764 0
M  V30 5896 C 538.576 -3.61303 4.92852 0
M  V30 5897 C 539.574 -3.46214 5.88748 0
M  V30 5898 O 539.262 -3.5443 7.2155 0
M  V30 5899 H 538.994 -0.552057 0.390139 0
M  V30 5900 H 541.548 -1.2177 1.65412 0
M  V30 5901 H 539.778 -3.70969 1.09172 0
M  V30 5902 H 541.467 -3.76914 1.50635 0
M  V30 5903 H 542.233 -2.94899 3.85045 0
M  V30 5904 H 538.112 -3.63561 2.83451 0
M  V30 5905 H 541.656 -3.1069 6.24594 0
M  V30 5906 H 537.553 -3.79556 5.22118 0
M  V30 5907 H 538.321 -3.71116 7.29531 0
M  V30 5908 N 540.985 -1.06182 -1.16461 0
M  V30 5909 C 541.895 -0.682671 -2.24448 0
M  V30 5910 C 542.911 0.30078 -1.71381 0
M  V30 5911 O 544.087 0.150376 -2.00838 0
M  V30 5912 C 541.152 -0.0737202 -3.46622 0
M  V30 5913 C 540.213 -1.10889 -4.14731 0
M  V30 5914 C 539.446 -0.528908 -5.31073 0
M  V30 5915 O 539.669 0.65868 -5.66584 0
M  V30 5916 O 538.603 -1.26805 -5.88391 0
M  V30 5917 H 542.429 -1.58291 -2.59187 0
M  V30 5918 H 540.014 -0.834013 -1.23954 0
M  V30 5919 H 541.896 0.264192 -4.20571 0
M  V30 5920 H 540.571 0.800015 -3.13658 0
M  V30 5921 H 539.478 -1.49896 -3.42756 0
M  V30 5922 H 540.811 -1.95412 -4.51747 0
M  V30 5923 N 542.463 1.3308 -0.844243 0
M  V30 5924 C 543.74 1.92178 -0.364261 0
M  V30 5925 C 544.12 1.76961 1.15101 0
M  V30 5926 O 543.468 1.16128 1.9679 0
M  V30 5927 C 543.678 3.393 -0.817106 0
M  V30 5928 C 545.026 4.16444 -0.828236 0
M  V30 5929 O 546.05 3.47975 -0.761062 0
M  V30 5930 O 544.909 5.38685 -0.920926 0
M  V30 5931 H 542.003 0.820411 -0.10419 0
M  V30 5932 H 544.549 1.41918 -0.930453 0
M  V30 5933 H 543.321 3.44272 -1.85991 0
M  V30 5934 H 542.944 3.96947 -0.227785 0
M  V30 5935 N 543.941 0.601185 1.45683 0
M  V30 5936 C 544.871 -0.108824 2.33246 0
M  V30 5937 C 545.852 -0.865223 1.46451 0
M  V30 5938 O 547.037 -0.83704 1.75235 0
M  V30 5939 C 544.167 -1.11101 3.2905 0
M  V30 5940 C 543.121 -0.468244 4.25431 0
M  V30 5941 C 542.447 -1.57822 5.10878 0
M  V30 5942 C 543.747 0.606469 5.18767 0
M  V30 5943 H 545.441 0.622306 2.92861 0
M  V30 5944 H 542.987 0.300714 1.40825 0
M  V30 5945 H 544.94 -1.61622 3.89174 0
M  V30 5946 H 543.664 -1.87265 2.67581 0
M  V30 5947 H 542.323 0.0160484 3.66596 0
M  V30 5948 H 541.971 -2.32998 4.45781 0
M  V30 5949 H 541.671 -1.15369 5.76163 0
M  V30 5950 H 543.195 -2.08583 5.73869 0
M  V30 5951 H 544.609 0.185589 5.73 0
M  V30 5952 H 543.006 0.952381 5.92494 0
M  V30 5953 H 544.076 1.48559 4.61582 0
M  V30 5954 N 545.419 -1.53889 0.339982 0
M  V30 5955 C 546.665 -2.01152 -0.258003 0
M  V30 5956 C 546.998 -1.22749 -1.50487 0
M  V30 5957 O 546.273 -0.314156 -1.91946 0
M  V30 5958 C 546.556 -3.55468 -0.575717 0
M  V30 5959 C 546.409 -4.44584 0.682996 0
M  V30 5960 C 547.728 -4.1768 -1.38677 0
M  V30 5961 H 544.847 -0.731198 -0.0922992 0
M  V30 5962 H 547.489 -1.84352 0.459814 0
M  V30 5963 H 545.639 -3.69914 -1.18725 0
M  V30 5964 H 547.311 -4.41981 1.32102 0
M  V30 5965 H 545.554 -4.13592 1.3086 0
M  V30 5966 H 546.225 -5.5043 0.416001 0
M  V30 5967 H 548.701 -4.0691 -0.869705 0
M  V30 5968 H 547.577 -5.25734 -1.57783 0
M  V30 5969 H 547.838 -3.72069 -2.38782 0
M  V30 5970 N 546.897 -0.0685191 -1.57451 0
M  V30 5971 C 547.829 0.929372 -2.09512 0
M  V30 5972 C 548.842 1.26354 -1.02657 0
M  V30 5973 O 550.031 1.2213 -1.30179 0
M  V30 5974 C 547.131 2.24612 -2.53777 0
M  V30 5975 C 546.304 2.09128 -3.84167 0
M  V30 5976 C 545.363 3.24079 -4.14559 0
M  V30 5977 O 544.389 2.99215 -4.8421 0
M  V30 5978 N 545.591 4.49077 -3.67845 0
M  V30 5979 H 548.356 0.484901 -2.95751 0
M  V30 5980 H 545.917 0.11729 -1.61475 0
M  V30 5981 H 547.909 3.00412 -2.71172 0
M  V30 5982 H 546.479 2.60569 -1.72692 0
M  V30 5983 H 545.699 1.17815 -3.76182 0
M  V30 5984 H 546.987 1.9603 -4.69521 0
M  V30 5985 H 546.385 4.72165 -3.11571 0
M  V30 5986 H 544.942 5.21915 -3.90446 0
M  V30 5987 N 548.375 1.56261 0.205012 0
M  V30 5988 C 549.791 1.49623 0.555433 0
M  V30 5989 C 549.991 0.766719 1.86343 0
M  V30 5990 O 549.047 0.313158 2.50551 0
M  V30 5991 C 550.36 2.94253 0.619347 0
M  V30 5992 C 551.908 3.04868 0.708855 0
M  V30 5993 C 552.383 4.50888 0.803969 0
M  V30 5994 N 553.874 4.54999 0.867758 0
M  V30 5995 C 554.609 5.65284 0.96135 0
M  V30 5996 N 554.105 6.85282 1.01786 0
M  V30 5997 N 555.898 5.53174 0.997771 0
M  V30 5998 H 548.049 2.0211 -0.653094 0
M  V30 5999 H 550.312 0.919333 -0.231366 0
M  V30 6000 H 550.018 3.50643 -0.272458 0
M  V30 6001 H 549.892 3.47063 1.47741 0
M  V30 6002 H 552.279 2.48532 1.5911 0
M  V30 6003 H 552.36 2.55199 -0.175205 0
M  V30 6004 H 552.004 5.07846 -0.0738798 0
M  V30 6005 H 551.934 4.98279 1.70369 0
M  V30 6006 H 554.425 3.68588 0.833735 0
M  V30 6007 H 554.738 7.65081 1.08951 0
M  V30 6008 H 553.083 6.8796 0.986706 0
M  V30 6009 H 556.274 4.5835 0.950392 0
M  V30 6010 H 556.447 6.39151 1.06725 0
M  V30 6011 N 549.853 -0.472356 1.50355 0
M  V30 6012 C 550.783 -1.57859 1.72055 0
M  V30 6013 C 551.764 -1.60283 0.569505 0
M  V30 6014 O 552.949 -1.7657 0.808503 0
M  V30 6015 C 550.079 -2.96191 1.81351 0
M  V30 6016 C 549.033 -3.08633 2.96529 0
M  V30 6017 C 548.359 -4.486 2.90968 0
M  V30 6018 C 549.659 -2.85969 4.37057 0
M  V30 6019 H 551.353 -1.39953 2.64676 0
M  V30 6020 H 548.899 -0.671846 1.27367 0
M  V30 6021 H 550.852 -3.73507 1.95117 0
M  V30 6022 H 549.576 -3.15251 0.853502 0
M  V30 6023 H 548.235 -2.33749 2.82413 0
M  V30 6024 H 547.883 -4.64577 1.92815 0
M  V30 6025 H 547.583 -4.57861 3.68289 0
M  V30 6026 H 549.107 -5.27938 3.0678 0
M  V30 6027 H 550.521 -3.53036 4.51706 0
M  V30 6028 H 548.918 -3.06677 5.15819 0
M  V30 6029 H 549.988 -1.81838 4.49514 0
M  V30 6030 N 551.331 -1.39911 -0.725443 0
M  V30 6031 C 552.241 -1.41688 -1.8698 0
M  V30 6032 C 553.257 -0.310579 -1.71206 0
M  V30 6033 O 554.433 -0.55359 -1.93642 0
M  V30 6034 C 551.498 -1.26811 -3.22676 0
M  V30 6035 C 550.559 -2.47497 -3.50776 0
M  V30 6036 C 549.792 -2.3332 -4.79997 0
M  V30 6037 O 550.015 -1.34175 -5.54394 0
M  V30 6038 O 548.949 -3.22498 -5.08211 0
M  V30 6039 H 552.775 -2.38171 -1.88436 0
M  V30 6040 H 550.36 -1.21128 -0.874548 0
M  V30 6041 H 552.242 -1.20684 -4.03749 0
M  V30 6042 H 550.917 -0.334289 -3.21969 0
M  V30 6043 H 549.824 -2.59201 -2.69751 0
M  V30 6044 H 551.157 -3.39606 -3.5627 0
M  V30 6045 N 552.809 0.956637 -1.25245 0
M  V30 6046 C 554.22 1.51569 -1.09012 0
M  V30 6047 C 554.571 1.93322 0.334813 0
M  V30 6048 O 553.696 1.78421 1.22454 0
M  V30 6049 C 554.291 2.75444 -1.97271 0
M  V30 6050 C 552.85 3.27669 -1.8523 0
M  V30 6051 C 551.997 2.00517 -1.91542 0
M  V30 6052 H 554.948 0.773746 -1.3856 0
M  V30 6053 H 554.969 3.4919 -1.51151 0
M  V30 6054 H 554.481 2.45024 -3.00973 0
M  V30 6055 H 552.582 3.62914 -0.844045 0
M  V30 6056 H 552.695 3.9582 -2.69932 0
M  V30 6057 H 551.059 2.15727 -1.35404 0
M  V30 6058 H 551.842 1.72448 -2.96844 0
M  V30 6059 N 554.287 1.06798 1.15896 0
M  V30 6060 C 555.533 0.788934 1.86825 0
M  V30 6061 C 555.866 -0.683084 1.8179 0
M  V30 6062 O 555.141 -1.50086 1.23711 0
M  V30 6063 C 555.424 1.29065 3.36176 0
M  V30 6064 C 555.277 2.8268 3.49874 0
M  V30 6065 C 556.596 0.902655 4.30744 0
M  V30 6066 H 553.715 0.288066 0.678371 0
M  V30 6067 H 556.357 1.32479 1.36195 0
M  V30 6068 H 554.507 0.834806 3.79425 0
M  V30 6069 H 556.179 3.36511 3.15528 0
M  V30 6070 H 554.422 3.21157 2.91617 0
M  V30 6071 H 555.093 3.12852 4.54783 0
M  V30 6072 H 557.569 1.29535 3.95424 0
M  V30 6073 H 556.445 1.28111 5.3374 0
M  V30 6074 H 556.706 -0.191951 4.41683 0
M  V30 6075 N 555.766 -1.3263 0.851289 0
M  V30 6076 C 557.015 -1.96633 0.449267 0
M  V30 6077 C 557.328 -1.68131 -0.999562 0
M  V30 6078 O 558.534 -2.25845 -1.50685 0
M  V30 6079 C 556.99 -3.51946 0.752446 0
M  V30 6080 C 556.598 -3.89311 2.21678 0
M  V30 6081 C 558.342 -4.22437 0.417983 0
M  V30 6082 C 556.249 -5.37655 2.46336 0
M  V30 6083 H 555.179 -0.735888 0.164269 0
M  V30 6084 H 557.83 -1.51073 1.0416 0
M  V30 6085 H 556.212 -3.95899 0.0895858 0
M  V30 6086 H 557.386 -3.56378 2.92115 0
M  V30 6087 H 555.701 -3.31836 2.51543 0
M  V30 6088 H 558.298 -5.31549 0.579674 0
M  V30 6089 H 558.641 -4.11349 -0.640115 0
M  V30 6090 H 559.174 -3.84057 1.03659 0
M  V30 6091 H 555.913 -5.5376 3.50757 0
M  V30 6092 H 555.433 -5.72005 1.80473 0
M  V30 6093 H 557.112 -6.04695 2.30115 0
M  V30 6094 N 557.244 -0.608902 -1.45362 0
M  V30 6095 C 558.177 0.158059 -2.27652 0
M  V30 6096 C 559.155 0.872397 -1.37215 0
M  V30 6097 O 560.339 0.881002 -1.66645 0
M  V30 6098 C 557.466 1.22896 -3.15617 0
M  V30 6099 C 556.512 0.617607 -4.22005 0
M  V30 6100 S 557.345 -0.575518 -5.32398 0
M  V30 6101 C 558.501 0.495938 -6.23932 0
M  V30 6102 H 558.734 -0.540095 -2.92353 0
M  V30 6103 H 556.267 -0.396456 -1.49223 0
M  V30 6104 H 558.225 1.84195 -3.66855 0
M  V30 6105 H 556.886 1.89919 -2.50179 0
M  V30 6106 H 556.079 1.42341 -4.83482 0
M  V30 6107 H 555.681 0.0797273 -3.73915 0
M  V30 6108 H 557.973 1.37465 -6.63408 0
M  V30 6109 H 558.916 -0.0827108 -7.08052 0
M  V30 6110 H 559.324 0.811856 -5.58631 0
M  V30 6111 N 558.722 1.53707 -0.348139 0
M  V30 6112 C 559.632 2.28881 0.514857 0
M  V30 6113 C 560.648 1.34168 1.10793 0
M  V30 6114 O 561.824 1.6721 1.12262 0
M  V30 6115 C 558.889 3.05042 1.64774 0
M  V30 6116 C 557.95 4.15389 1.08398 0
M  V30 6117 C 557.183 4.87909 2.16287 0
M  V30 6118 O 557.406 4.60137 3.3709 0
M  V30 6119 O 556.34 5.74254 1.80323 0
M  V30 6120 H 560.166 3.03547 -0.0963699 0
M  V30 6121 H 557.751 1.48972 -0.113043 0
M  V30 6122 H 559.633 3.52656 2.30677 0
M  V30 6123 H 558.308 2.33228 2.24469 0
M  V30 6124 H 557.215 3.72068 0.389341 0
M  V30 6125 H 558.548 4.89318 0.531829 0
M  V30 6126 N 560.2 0.0768682 1.57412 0
M  V30 6127 C 561.13 -0.886026 2.16037 0
M  V30 6128 C 562.111 -1.30691 1.08876 0
M  V30 6129 O 563.296 -1.37705 1.36934 0
M  V30 6130 C 560.426 -2.1518 2.72608 0
M  V30 6131 C 559.38 -1.87015 3.8498 0
M  V30 6132 C 558.706 -3.20266 4.28175 0
M  V30 6133 C 560.006 -1.17143 5.08994 0
M  V30 6134 H 561.7 -0.397642 2.96748 0
M  V30 6135 H 559.246 -0.189823 1.42743 0
M  V30 6136 H 561.199 -2.82962 3.12266 0
M  V30 6137 H 559.923 -2.66269 1.89125 0
M  V30 6138 H 558.582 -1.21636 3.45833 0
M  V30 6139 H 558.23 -3.69207 3.41607 0
M  V30 6140 H 557.93 -3.0221 5.03927 0
M  V30 6141 H 559.454 -3.89237 4.70454 0
M  V30 6142 H 560.868 -1.75003 5.45937 0
M  V30 6143 H 559.265 -1.09328 5.90057 0
M  V30 6144 H 560.335 -0.151295 4.84664 0
M  V30 6145 N 561.678 -1.56367 -0.196722 0
M  V30 6146 C 562.588 -1.97617 -1.2643 0
M  V30 6147 C 563.604 -0.883598 -1.49895 0
M  V30 6148 O 564.78 -1.18921 -1.62541 0
M  V30 6149 C 561.845 -2.30595 -2.58895 0
M  V30 6150 C 560.906 -3.53551 -2.43516 0
M  V30 6151 C 560.139 -3.84946 -3.69665 0
M  V30 6152 O 560.362 -3.17655 -4.73763 0
M  V30 6153 O 559.296 -4.78379 -3.65291 0
M  V30 6154 H 563.122 -2.88648 -0.944233 0
M  V30 6155 H 560.707 -1.43901 -0.401592 0
M  V30 6156 H 562.589 -2.52889 -3.37083 0
M  V30 6157 H 561.264 -1.42732 -2.90533 0
M  V30 6158 H 560.171 -3.36507 -1.63445 0
M  V30 6159 H 561.504 -4.41875 -2.16812 0
M  V30 6160 N 563.156 0.464375 -1.50603 0
M  V30 6161 C 564.572 0.798684 -1.38178 0
M  V30 6162 C 564.772 1.96568 -0.44308 0
M  V30 6163 O 563.828 2.52252 0.111814 0
M  V30 6164 C 565.141 1.10444 -2.79683 0
M  V30 6165 C 566.689 1.2105 -2.88645 0
M  V30 6166 C 567.164 1.54934 -4.30998 0
M  V30 6167 N 568.655 1.61913 -4.3398 0
M  V30 6168 C 569.39 1.8965 -5.41129 0
M  V30 6169 N 568.886 2.15361 -6.58477 0
M  V30 6170 N 570.679 1.91207 -5.28579 0
M  V30 6171 H 562.83 -0.304603 -2.10204 0
M  V30 6172 H 565.093 -0.0737804 -0.945125 0
M  V30 6173 H 564.799 0.319934 -3.50242 0
M  V30 6174 H 564.673 2.03896 -3.17342 0
M  V30 6175 H 567.06 1.98567 -2.18301 0
M  V30 6176 H 567.141 0.255613 -2.5452 0
M  V30 6177 H 566.785 0.779549 -5.01882 0
M  V30 6178 H 566.715 2.51584 -4.62615 0
M  V30 6179 H 569.206 1.44055 -3.49366 0
M  V30 6180 H 569.519 2.35818 -7.35941 0
M  V30 6181 H 567.864 2.1274 -6.6164 0
M  V30 6182 H 571.055 1.70622 -4.35897 0
M  V30 6183 H 571.228 2.12488 -6.12171 0
M  V30 6184 N 564.634 1.40294 0.718013 0
M  V30 6185 C 565.566 1.36281 1.84283 0
M  V30 6186 C 566.579 0.268621 1.60569 0
M  V30 6187 O 567.768 0.528798 1.70487 0
M  V30 6188 C 564.868 1.09741 3.2064 0
M  V30 6189 C 564.041 2.30767 3.71571 0
M  V30 6190 C 563.1 2.00424 4.86535 0
M  V30 6191 O 562.126 2.73268 4.99313 0
M  V30 6192 N 563.328 0.980724 5.72156 0
M  V30 6193 H 566.093 2.3322 1.88225 0
M  V30 6194 H 563.654 1.34616 0.899453 0
M  V30 6195 H 565.646 0.874322 3.95143 0
M  V30 6196 H 564.216 0.214771 3.11861 0
M  V30 6197 H 563.436 2.68921 2.88228 0
M  V30 6198 H 564.724 3.11455 4.02335 0
M  V30 6199 H 564.122 0.377375 5.6444 0
M  V30 6200 H 562.679 0.817538 6.46653 0
M  V30 6201 N 566.112 -0.949982 1.2575 0
M  V30 6202 C 567.022 -2.08109 1.08295 0
M  V30 6203 C 568.038 -1.7399 0.0188181 0
M  V30 6204 O 569.214 -2.00187 0.220724 0
M  V30 6205 C 566.279 -3.39383 0.708534 0
M  V30 6206 C 565.34 -3.8734 1.85111 0
M  V30 6207 C 564.573 -5.12349 1.49447 0
M  V30 6208 O 564.796 -5.6905 0.392212 0
M  V30 6209 O 563.73 -5.5513 2.32624 0
M  V30 6210 H 567.556 -2.25738 2.03165 0
M  V30 6211 H 565.141 -1.06545 1.04731 0
M  V30 6212 H 567.023 -4.18277 0.512061 0
M  V30 6213 H 565.698 -3.23013 -0.210854 0
M  V30 6214 H 564.605 -3.09429 2.10248 0
M  V30 6215 H 565.938 -4.08216 2.74991 0
M  V30 6216 N 567.59 -1.07411 -1.15328 0
M  V30 6217 C 568.538 -0.689316 -2.22151 0
M  V30 6218 C 569.532 0.300156 -1.6672 0
M  V30 6219 O 570.738 0.163804 -1.79253 0
M  V30 6220 H 567.113 -0.204834 -0.723566 0
M  V30 6221 H 569.084 -1.59988 -2.51886 0
M  V30 6222 C 567.833 -0.103848 -3.47545 0
M  V30 6223 H 567.156 -0.856367 -3.90521 0
M  V30 6224 H 568.596 0.127725 -4.23808 0
M  V30 6225 C 567.055 1.15563 -3.1646 0
M  V30 6226 O 567.585 2.242 -3.33312 0
M  V30 6227 N 565.791 1.06203 -2.70498 0
M  V30 6228 H 565.338 0.177933 -2.56985 0
M  V30 6229 H 565.296 1.90553 -2.50074 0
M  V30 6230 N 569.068 1.32177 -0.85831 0
M  V30 6231 C 570.314 1.97417 -0.46417 0
M  V30 6232 C 570.647 1.67746 0.978514 0
M  V30 6233 O 569.922 0.967654 1.68721 0
M  V30 6234 C 570.205 3.53069 -0.708094 0
M  V30 6235 C 570.058 3.92357 -2.19946 0
M  V30 6236 C 571.377 4.39783 -0.166881 0
M  V30 6237 H 568.496 0.717097 -0.17012 0
M  V30 6238 H 571.138 1.56499 -1.07741 0
M  V30 6239 H 569.288 3.88054 -0.186128 0
M  V30 6240 H 570.96 3.67533 -2.78779 0
M  V30 6241 H 569.203 3.41384 -2.67656 0
M  V30 6242 H 569.874 5.00841 -2.32082 0
M  V30 6243 H 572.35 4.11556 -0.613285 0
M  V30 6244 H 571.226 5.47671 -0.367093 0
M  V30 6245 H 571.487 4.32196 0.930559 0
M  V30 6246 N 570.547 0.616602 1.45037 0
M  V30 6247 C 571.477 -0.0840787 2.33349 0
M  V30 6248 C 572.458 -0.849641 1.4736 0
M  V30 6249 O 573.643 -0.818407 1.76113 0
M  V30 6250 C 570.773 -1.07604 3.3021 0
M  V30 6251 C 569.727 -0.423096 4.25904 0
M  V30 6252 C 569.053 -1.52394 5.12523 0
M  V30 6253 C 570.353 0.661457 5.18095 0
M  V30 6254 H 572.047 0.653333 2.92185 0
M  V30 6255 H 569.593 0.315634 1.40498 0
M  V30 6256 H 571.546 -1.57485 3.90866 0
M  V30 6257 H 570.27 -1.84416 2.69552 0
M  V30 6258 H 568.929 0.05493 3.66559 0
M  V30 6259 H 568.577 -2.28257 4.48227 0
M  V30 6260 H 568.277 -1.09251 5.77354 0
M  V30 6261 H 569.801 -2.02485 5.76049 0
M  V30 6262 H 571.215 0.246353 5.7277 0
M  V30 6263 H 569.612 1.01517 5.91451 0
M  V30 6264 H 570.682 1.53446 4.59981 0
M  V30 6265 N 572.025 -1.5352 0.356285 0
M  V30 6266 C 573.271 -2.01414 -0.236653 0
M  V30 6267 C 573.604 -1.24339 -1.49176 0
M  V30 6268 O 572.879 -0.334496 -1.91602 0
M  V30 6269 C 573.162 -3.56059 -0.537982 0
M  V30 6270 C 573.015 -4.43835 0.730112 0
M  V30 6271 C 574.334 -4.19127 -1.34239 0
M  V30 6272 H 571.453 -0.732135 -0.0845386 0
M  V30 6273 H 574.095 -1.83854 0.479341 0
M  V30 6274 H 572.245 -3.71153 -1.14795 0
M  V30 6275 H 573.917 -4.40555 1.36782 0
M  V30 6276 H 572.16 -4.1218 1.3524 0
M  V30 6277 H 572.831 -5.49958 0.474358 0
M  V30 6278 H 575.307 -4.07809 -0.826498 0
M  V30 6279 H 574.183 -5.27378 -1.52198 0
M  V30 6280 H 574.444 -3.74581 -2.34822 0
M  V30 6281 N 573.503 -0.0852151 -1.57369 0
M  V30 6282 C 574.752 0.580443 -1.93168 0
M  V30 6283 C 575.065 1.6995 -0.968319 0
M  V30 6284 O 576.271 2.42564 -1.21963 0
M  V30 6285 C 574.727 1.08386 -3.43192 0
M  V30 6286 C 574.335 -0.00491388 -4.48 0
M  V30 6287 C 576.079 1.72281 -3.87968 0
M  V30 6288 C 573.986 0.513299 -5.89168 0
M  V30 6289 H 572.916 0.22059 -0.72101 0
M  V30 6290 H 575.567 -0.159621 -1.82804 0
M  V30 6291 H 573.949 1.8773 -3.48674 0
M  V30 6292 H 575.123 -0.780032 -4.5415 0
M  V30 6293 H 573.438 -0.548453 -4.12772 0
M  V30 6294 H 576.035 2.12108 -4.9083 0
M  V30 6295 H 576.378 2.58811 -3.26071 0
M  V30 6296 H 576.911 0.995359 -3.85146 0
M  V30 6297 H 573.65 -0.315153 -6.54742 0
M  V30 6298 H 573.17 1.25564 -5.8651 0
M  V30 6299 H 574.849 0.985433 -6.39451 0
M  V30 6300 N 574.981 1.5647 0.188427 0
M  V30 6301 C 576.221 1.82803 0.914469 0
M  V30 6302 C 576.585 0.663681 1.80165 0
M  V30 6303 O 577.786 0.807059 2.56398 0
M  V30 6304 C 576.057 3.14187 1.70357 0
M  V30 6305 S 577.616 3.61947 2.48072 0
M  V30 6306 H 574.434 0.641497 0.306599 0
M  V30 6307 H 577.036 1.94694 0.177361 0
M  V30 6308 H 575.74 3.96937 1.04255 0
M  V30 6309 H 575.271 3.05192 2.48237 0
M  V30 6310 H 577.286 3.27913 3.72407 0
M  V30 6311 N 576.459 -0.456382 1.50847 0
M  V30 6312 C 577.409 -1.55045 1.67168 0
M  V30 6313 C 578.393 -1.52061 0.525958 0
M  V30 6314 O 579.585 -1.58836 0.781036 0
M  V30 6315 C 576.714 -2.93386 1.78268 0
M  V30 6316 C 575.8 -3.01198 2.98564 0
M  V30 6317 N 576.191 -2.78792 4.22029 0
M  V30 6318 C 574.489 -3.32346 2.97426 0
M  V30 6319 C 575.19 -2.91953 5.03128 0
M  V30 6320 N 574.166 -3.22797 4.37382 0
M  V30 6321 H 577.968 -1.36444 2.60308 0
M  V30 6322 H 575.482 -0.663375 1.48233 0
M  V30 6323 H 577.479 -3.72071 1.88067 0
M  V30 6324 H 576.139 -3.13022 0.862965 0
M  V30 6325 H 577.15 -2.54087 4.51287 0
M  V30 6326 H 573.827 -3.57877 2.15012 0
M  V30 6327 H 575.217 -2.78745 6.11351 0
M  V30 6328 N 577.937 -1.40673 -0.710563 0
M  V30 6329 C 578.869 -1.37256 -1.83558 0
M  V30 6330 C 579.882 -0.277133 -1.60424 0
M  V30 6331 O 581.071 -0.537831 -1.70205 0
M  V30 6332 C 578.171 -1.1144 -3.20054 0
M  V30 6333 C 577.344 -2.32734 -3.70342 0
M  V30 6334 C 576.403 -2.03002 -4.85465 0
M  V30 6335 O 575.429 -2.75912 -4.97857 0
M  V30 6336 N 576.631 -1.01105 -5.71627 0
M  V30 6337 H 579.396 -2.34215 -1.86985 0
M  V30 6338 H 576.957 -1.35091 -0.892301 0
M  V30 6339 H 578.949 -0.895265 -3.94673 0
M  V30 6340 H 577.519 -0.231307 -3.11743 0
M  V30 6341 H 576.739 -2.70446 -2.86798 0
M  V30 6342 H 578.027 -3.13584 -4.00678 0
M  V30 6343 H 577.425 -0.407303 -5.64232 0
M  V30 6344 H 575.982 -0.85182 -6.4621 0
M  V30 6345 N 579.415 0.9433 -1.26252 0
M  V30 6346 C 580.378 2.02326 -1.07689 0
M  V30 6347 C 581.378 1.60779 -0.0259174 0
M  V30 6348 O 582.568 1.72108 -0.269134 0
M  V30 6349 C 579.7 3.34886 -0.63752 0
M  V30 6350 H 580.893 2.20225 -2.0357 0
M  V30 6351 H 578.446 1.12197 -1.08819 0
M  V30 6352 H 579.181 3.22684 0.323377 0
M  V30 6353 H 578.966 3.66393 -1.39637 0
M  V30 6354 H 580.456 4.14231 -0.529418 0
M  V30 6355 N 580.893 1.08022 1.14757 0
M  V30 6356 C 582.139 0.808705 1.85978 0
M  V30 6357 C 582.472 -0.663764 1.82504 0
M  V30 6358 O 581.747 -1.48765 1.25296 0
M  V30 6359 C 582.03 1.32623 3.34788 0
M  V30 6360 C 581.883 2.86375 3.46856 0
M  V30 6361 C 583.202 0.948291 4.29762 0
M  V30 6362 H 580.321 0.295244 0.675278 0
M  V30 6363 H 582.963 1.33917 1.34783 0
M  V30 6364 H 581.113 0.875002 3.78518 0
M  V30 6365 H 582.785 3.39839 3.11941 0
M  V30 6366 H 581.028 3.24232 2.88194 0
M  V30 6367 H 581.699 3.17658 4.51439 0
M  V30 6368 H 584.175 1.33722 3.94028 0
M  V30 6369 H 583.051 1.33765 5.32352 0
M  V30 6370 H 583.312 -0.145094 4.41862 0
M  V30 6371 N 582.371 -1.3172 0.865308 0
M  V30 6372 C 583.304 -2.26687 0.262376 0
M  V30 6373 C 584.282 -1.50894 -0.605787 0
M  V30 6374 O 585.466 -1.79982 -0.56024 0
M  V30 6375 C 582.593 -3.3281 -0.628915 0
M  V30 6376 C 581.639 -4.26172 0.167278 0
M  V30 6377 S 582.472 -5.12797 1.54272 0
M  V30 6378 C 583.628 -6.22438 0.657427 0
M  V30 6379 H 583.861 -2.77478 1.0674 0
M  V30 6380 H 581.394 -1.39414 0.663555 0
M  V30 6381 H 583.352 -3.94426 -1.13747 0
M  V30 6382 H 582.013 -2.80782 -1.40785 0
M  V30 6383 H 581.206 -5.01392 -0.51203 0
M  V30 6384 H 580.808 -3.69029 0.607777 0
M  V30 6385 H 583.1 -6.77368 -0.133925 0
M  V30 6386 H 584.043 -6.9451 1.38061 0
M  V30 6387 H 584.451 -5.64043 0.227044 0
M  V30 6388 N 583.85 -0.624285 -1.44708 0
M  V30 6389 C 585.266 -0.289322 -1.56956 0
M  V30 6390 C 585.466 1.20773 -1.61295 0
M  V30 6391 O 584.522 1.9915 -1.55227 0
M  V30 6392 C 585.835 -0.975215 -2.84447 0
M  V30 6393 C 587.383 -0.952709 -2.98148 0
M  V30 6394 C 587.858 -1.61893 -4.28433 0
M  V30 6395 N 589.349 -1.5852 -4.35231 0
M  V30 6396 C 590.084 -2.06969 -5.34744 0
M  V30 6397 N 589.58 -2.63579 -6.40701 0
M  V30 6398 N 591.373 -1.97638 -5.26209 0
M  V30 6399 H 583.524 -1.59612 -1.40135 0
M  V30 6400 H 585.787 -0.669592 -0.671081 0
M  V30 6401 H 585.493 -2.02999 -2.87201 0
M  V30 6402 H 585.367 -0.508749 -3.73753 0
M  V30 6403 H 587.754 0.093568 -2.94952 0
M  V30 6404 H 587.835 -1.4576 -2.10209 0
M  V30 6405 H 587.479 -2.66463 -4.32389 0
M  V30 6406 H 587.409 -1.08893 -5.15218 0
M  V30 6407 H 589.899 -1.17183 -3.59272 0
M  V30 6408 H 590.213 -2.98298 -7.12908 0
M  V30 6409 H 588.558 -2.67626 -6.41406 0
M  V30 6410 H 591.749 -1.5314 -4.42341 0
M  V30 6411 H 591.922 -2.35708 -6.03611 0
M  V30 6412 N 585.328 1.53329 -0.364422 0
M  V30 6413 C 586.568 2.0315 0.22572 0
M  V30 6414 C 586.932 1.24589 1.46087 0
M  V30 6415 O 588.133 1.64411 2.12656 0
M  V30 6416 C 586.404 3.53718 0.511663 0
M  V30 6417 S 587.963 4.25412 1.07564 0
M  V30 6418 H 584.781 0.70795 0.0657843 0
M  V30 6419 H 587.383 1.88811 -0.507019 0
M  V30 6420 H 586.087 4.08497 -0.394784 0
M  V30 6421 H 585.618 3.72217 1.27351 0
M  V30 6422 H 587.633 4.36486 2.35997 0
M  V30 6423 N 586.806 0.0935595 1.57322 0
M  V30 6424 C 587.736 -0.863062 2.16964 0
M  V30 6425 C 588.717 -1.29528 1.10256 0
M  V30 6426 O 589.902 -1.36245 1.38387 0
M  V30 6427 C 587.032 -2.12276 2.74875 0
M  V30 6428 C 585.986 -1.82921 3.86942 0
M  V30 6429 C 585.312 -3.15707 4.31548 0
M  V30 6430 C 586.612 -1.11737 5.10208 0
M  V30 6431 H 588.306 -0.366145 2.97153 0
M  V30 6432 H 585.852 -0.174673 1.42937 0
M  V30 6433 H 587.805 -2.79634 3.1525 0
M  V30 6434 H 586.529 -2.64248 1.91938 0
M  V30 6435 H 585.188 -1.17961 3.47103 0
M  V30 6436 H 584.836 -3.65563 3.45504 0
M  V30 6437 H 584.536 -2.96849 5.07104 0
M  V30 6438 H 586.06 -3.84226 4.74555 0
M  V30 6439 H 587.474 -1.69203 5.47762 0
M  V30 6440 H 585.871 -1.03064 5.91183 0
M  V30 6441 H 586.941 -0.0998818 4.84797 0
M  V30 6442 N 588.284 -1.56567 -0.180126 0
M  V30 6443 C 589.214 -1.98753 -1.22553 0
M  V30 6444 C 590.195 -0.86175 -1.46656 0
M  V30 6445 O 591.38 -1.12719 -1.58139 0
M  V30 6446 C 588.51 -2.33988 -2.56645 0
M  V30 6447 C 587.464 -3.49445 -2.47128 0
M  V30 6448 C 586.79 -3.70397 -3.8563 0
M  V30 6449 C 588.09 -4.83171 -1.98352 0
M  V30 6450 H 589.784 -2.86332 -0.874896 0
M  V30 6451 H 587.33 -1.37757 -0.419414 0
M  V30 6452 H 589.283 -2.62097 -3.29974 0
M  V30 6453 H 588.007 -1.43309 -2.93479 0
M  V30 6454 H 586.666 -3.2145 -1.76254 0
M  V30 6455 H 586.314 -2.77023 -4.19842 0
M  V30 6456 H 586.014 -4.48077 -3.80132 0
M  V30 6457 H 587.538 -4.00897 -4.60558 0
M  V30 6458 H 588.952 -5.10213 -2.61449 0
M  V30 6459 H 587.349 -5.64425 -2.03823 0
M  V30 6460 H 588.419 -4.75753 -0.937402 0
M  V30 6461 N 589.762 0.448376 -1.51087 0
M  V30 6462 C 590.725 1.52588 -1.71025 0
M  V30 6463 C 591.725 1.49958 -0.580442 0
M  V30 6464 O 592.915 1.52176 -0.847833 0
M  V30 6465 C 590.047 2.92163 -1.75652 0
M  V30 6466 H 591.24 1.36218 -2.67179 0
M  V30 6467 H 588.793 0.676313 -1.4091 0
M  V30 6468 H 589.528 3.13951 -0.812724 0
M  V30 6469 H 589.313 2.95478 -2.57751 0
M  V30 6470 H 590.803 3.70349 -1.92953 0
M  V30 6471 N 591.24 1.41047 0.703093 0
M  V30 6472 C 592.47 1.43133 1.48985 0
M  V30 6473 C 592.878 0.0328537 1.89171 0
M  V30 6474 O 592.221 -0.956469 1.56835 0
M  V30 6475 C 592.283 2.26991 2.78775 0
M  V30 6476 C 591.947 3.7525 2.60837 0
M  V30 6477 C 592.944 4.67591 2.27276 0
M  V30 6478 C 590.629 4.19208 2.76712 0
M  V30 6479 C 592.623 6.01877 2.09817 0
M  V30 6480 C 590.31 5.53561 2.5887 0
M  V30 6481 C 591.308 6.4471 2.25472 0
M  V30 6482 O 590.996 7.76584 2.07778 0
M  V30 6483 H 590.728 0.489788 0.465922 0
M  V30 6484 H 593.282 1.85886 0.873822 0
M  V30 6485 H 591.512 1.79038 3.42757 0
M  V30 6486 H 593.201 2.20867 3.40547 0
M  V30 6487 H 593.967 4.34923 2.14633 0
M  V30 6488 H 589.846 3.48572 3.01693 0
M  V30 6489 H 593.39 6.72986 1.83671 0
M  V30 6490 H 589.287 5.85811 2.71102 0
M  V30 6491 H 590.055 7.87649 2.22601 0
M  V30 6492 N 592.718 -0.936591 1.26751 0
M  V30 6493 C 593.965 -1.68331 1.12566 0
M  V30 6494 C 594.293 -1.91677 -0.330168 0
M  V30 6495 O 593.548 -1.49859 -1.2586 0
M  V30 6496 C 593.847 -3.06099 1.84494 0
M  V30 6497 C 593.513 -3.02493 3.34378 0
M  V30 6498 C 592.175 -3.01217 3.75262 0
M  V30 6499 C 594.527 -2.94453 4.30055 0
M  V30 6500 C 591.855 -2.89672 5.10203 0
M  V30 6501 C 594.207 -2.84449 5.65041 0
M  V30 6502 C 592.871 -2.81518 6.0523 0
M  V30 6503 H 592.141 -0.615965 0.411907 0
M  V30 6504 H 594.788 -1.09292 1.5725 0
M  V30 6505 H 593.093 -3.6879 1.32292 0
M  V30 6506 H 594.79 -3.62733 1.70955 0
M  V30 6507 H 591.38 -3.04269 3.01858 0
M  V30 6508 H 595.564 -2.94544 3.99447 0
M  V30 6509 H 590.82 -2.85783 5.40498 0
M  V30 6510 H 594.994 -2.77192 6.38856 0
M  V30 6511 H 592.621 -2.72329 7.09747 0
M  V30 6512 N 594.196 -1.08629 -1.14182 0
M  V30 6513 C 595.126 -0.740003 -2.21464 0
M  V30 6514 C 596.107 0.278591 -1.67803 0
M  V30 6515 O 597.292 0.148461 -1.93632 0
M  V30 6516 C 594.422 -0.150952 -3.46972 0
M  V30 6517 C 593.376 -1.09815 -4.13672 0
M  V30 6518 C 592.702 -0.3712 -5.3341 0
M  V30 6519 C 594.002 -2.43722 -4.61949 0
M  V30 6520 H 595.696 -1.63697 -2.50686 0
M  V30 6521 H 593.242 -0.788526 -1.20492 0
M  V30 6522 H 595.195 0.103325 -4.21273 0
M  V30 6523 H 593.919 0.781164 -3.1712 0
M  V30 6524 H 592.578 -1.33756 -3.41328 0
M  V30 6525 H 592.226 0.564792 -4.99819 0
M  V30 6526 H 591.926 -1.00267 -5.78982 0
M  V30 6527 H 593.45 -0.12503 -6.10472 0
M  V30 6528 H 594.864 -2.24034 -5.27714 0
M  V30 6529 H 593.261 -3.02582 -5.18232 0
M  V30 6530 H 594.331 -3.05082 -3.76899 0
M  V30 6531 N 595.674 1.31259 -0.872281 0
M  V30 6532 C 596.951 1.91362 -0.404943 0
M  V30 6533 C 597.331 1.79362 1.11321 0
M  V30 6534 O 596.679 1.20277 1.94283 0
M  V30 6535 C 596.889 3.3749 -0.888893 0
M  V30 6536 C 598.237 4.14593 -0.916384 0
M  V30 6537 O 599.261 3.46282 -0.834701 0
M  V30 6538 O 598.12 5.3661 -1.03498 0
M  V30 6539 H 595.214 0.818016 -0.121569 0
M  V30 6540 H 597.76 1.39912 -0.960346 0
M  V30 6541 H 596.532 3.40249 -1.93251 0
M  V30 6542 H 596.155 3.96375 -0.311932 0
M  V30 6543 N 597.152 0.631951 1.44375 0
M  V30 6544 C 598.099 -0.0724807 2.30686 0
M  V30 6545 C 599.069 -0.835975 1.43529 0
M  V30 6546 O 600.254 -0.816849 1.7243 0
M  V30 6547 C 597.394 -1.04753 3.28817 0
M  V30 6548 C 596.507 -0.282367 4.31076 0
M  V30 6549 C 595.642 -1.2493 5.163 0
M  V30 6550 C 594.681 -0.473349 6.10267 0
M  V30 6551 N 593.818 -1.39079 6.88187 0
M  V30 6552 H 598.658 0.669477 2.90383 0
M  V30 6553 H 596.195 0.341927 1.43071 0
M  V30 6554 H 598.153 -1.62623 3.842 0
M  V30 6555 H 596.783 -1.75661 2.70819 0
M  V30 6556 H 595.835 0.412268 3.78159 0
M  V30 6557 H 597.147 0.321955 4.9776 0
M  V30 6558 H 596.301 -1.89931 5.76204 0
M  V30 6559 H 595.04 -1.88755 4.49692 0
M  V30 6560 H 594.045 0.190142 5.49471 0
M  V30 6561 H 595.27 0.16019 6.78911 0
M  V30 6562 H 593.216 -2.01623 6.24247 0
M  V30 6563 H 593.133 -0.840513 7.51313 0
M  V30 6564 H 594.401 -2.02961 7.52613 0
M  V30 6565 N 598.631 -1.53133 0.372548 0
M  V30 6566 C 599.594 -2.24569 -0.458389 0
M  V30 6567 C 600.594 -1.25603 -1.00402 0
M  V30 6568 O 601.784 -1.49827 -0.888672 0
M  V30 6569 C 598.916 -2.98783 -1.6414 0
M  V30 6570 H 600.109 -2.99436 0.166799 0
M  V30 6571 H 597.662 -1.55805 0.124357 0
M  V30 6572 H 598.397 -2.28176 -2.30448 0
M  V30 6573 H 598.182 -3.71404 -1.25704 0
M  V30 6574 H 599.672 -3.53068 -2.23008 0
M  V30 6575 N 600.109 -0.101901 -1.5727 0
M  V30 6576 C 601.072 0.840129 -2.13247 0
M  V30 6577 C 602.072 1.20625 -1.06331 0
M  V30 6578 O 603.262 1.13456 -1.32186 0
M  V30 6579 C 600.394 2.13372 -2.65867 0
M  V30 6580 H 601.587 0.353945 -2.97804 0
M  V30 6581 H 599.14 0.147167 -1.55606 0
M  V30 6582 H 599.875 2.66461 -1.84849 0
M  V30 6583 H 599.66 1.88085 -3.44044 0
M  V30 6584 H 601.15 2.80748 -3.09145 0
M  V30 6585 N 601.587 1.56661 0.17182 0
M  V30 6586 C 602.497 1.99604 1.2327 0
M  V30 6587 C 603.513 0.907333 1.4847 0
M  V30 6588 O 604.689 1.21492 1.60629 0
M  V30 6589 C 601.754 2.34685 2.55194 0
M  V30 6590 C 600.815 3.57381 2.3786 0
M  V30 6591 C 600.048 3.90779 3.63494 0
M  V30 6592 O 600.271 3.25152 4.6865 0
M  V30 6593 O 599.205 4.84129 3.57634 0
M  V30 6594 H 603.031 2.90114 0.898192 0
M  V30 6595 H 600.616 1.44522 0.378647 0
M  V30 6596 H 602.498 2.5822 3.33017 0
M  V30 6597 H 601.173 1.47336 2.88225 0
M  V30 6598 H 600.08 3.39064 1.5807 0
M  V30 6599 H 601.413 4.45268 2.09754 0
M  V30 6600 N 603.065 -0.440357 1.51323 0
M  V30 6601 C 603.997 -1.55254 1.68609 0
M  V30 6602 C 605.01 -1.52614 0.566812 0
M  V30 6603 O 606.199 -1.57445 0.841032 0
M  V30 6604 C 603.299 -2.94169 1.68279 0
M  V30 6605 C 602.472 -3.21346 2.96742 0
M  V30 6606 C 601.531 -4.3997 2.8864 0
M  V30 6607 O 600.557 -4.38771 3.62586 0
M  V30 6608 N 601.759 -5.43367 2.04285 0
M  V30 6609 H 604.524 -1.40831 2.6455 0
M  V30 6610 H 602.085 -0.629251 1.49171 0
M  V30 6611 H 604.077 -3.71543 1.60431 0
M  V30 6612 H 602.647 -3.02205 0.799441 0
M  V30 6613 H 601.867 -2.32299 3.18482 0
M  V30 6614 H 603.155 -3.3633 3.81785 0
M  V30 6615 H 602.553 -5.47176 1.43578 0
M  V30 6616 H 601.11 -6.19605 2.02318 0
M  V30 6617 N 604.543 -1.41418 -0.695603 0
M  V30 6618 C 605.473 -1.46035 -1.82197 0
M  V30 6619 C 606.454 -0.319025 -1.67082 0
M  V30 6620 O 607.639 -0.530462 -1.86815 0
M  V30 6621 C 604.769 -1.34179 -3.20333 0
M  V30 6622 C 603.723 -2.46123 -3.50154 0
M  V30 6623 C 603.049 -2.19332 -4.87645 0
M  V30 6624 C 604.349 -3.88463 -3.49133 0
M  V30 6625 H 606.043 -2.40303 -1.78591 0
M  V30 6626 H 603.589 -1.15663 -0.857797 0
M  V30 6627 H 605.542 -1.36021 -3.98844 0
M  V30 6628 H 604.266 -0.363952 -3.24566 0
M  V30 6629 H 602.925 -2.43563 -2.73994 0
M  V30 6630 H 602.573 -1.19891 -4.88503 0
M  V30 6631 H 602.273 -2.94344 -5.08562 0
M  V30 6632 H 603.797 -2.22889 -5.68465 0
M  V30 6633 H 605.211 -3.92738 -4.17648 0
M  V30 6634 H 603.608 -4.63158 -3.81582 0
M  V30 6635 H 604.678 -4.16617 -2.48109 0
M  V30 6636 N 606.021 0.929856 -1.27246 0
M  V30 6637 C 607.432 1.49223 -1.12203 0
M  V30 6638 C 607.783 1.93989 0.293731 0
M  V30 6639 O 606.908 1.80978 1.18642 0
M  V30 6640 C 607.503 2.71198 -2.0307 0
M  V30 6641 C 606.062 3.23666 -1.92139 0
M  V30 6642 C 605.209 1.96409 -1.95752 0
M  V30 6643 H 608.16 0.744181 -1.4017 0
M  V30 6644 H 608.181 3.45905 -1.58524 0
M  V30 6645 H 607.693 2.38585 -3.06102 0
M  V30 6646 H 605.794 3.61042 -0.920834 0
M  V30 6647 H 605.907 3.90006 -2.78267 0
M  V30 6648 H 604.271 2.12806 -1.39949 0
M  V30 6649 H 605.054 1.66113 -3.00436 0
M  V30 6650 N 607.499 1.09233 1.13605 0
M  V30 6651 C 608.729 0.847677 1.88409 0
M  V30 6652 C 609.137 -0.604524 1.79282 0
M  V30 6653 O 608.48 -1.42773 1.15592 0
M  V30 6654 C 608.542 1.20153 3.38827 0
M  V30 6655 C 608.206 2.65824 3.71735 0
M  V30 6656 C 609.203 3.64072 3.71143 0
M  V30 6657 C 606.888 3.01894 4.01454 0
M  V30 6658 C 608.882 4.96419 3.99808 0
M  V30 6659 C 606.569 4.34433 4.29781 0
M  V30 6660 C 607.567 5.31505 4.28942 0
M  V30 6661 O 607.255 6.61659 4.56576 0
M  V30 6662 H 606.987 0.304813 0.603378 0
M  V30 6663 H 609.541 1.4573 1.44748 0
M  V30 6664 H 607.771 0.534946 3.82982 0
M  V30 6665 H 609.46 0.936349 3.94952 0
M  V30 6666 H 610.226 3.37549 3.4826 0
M  V30 6667 H 606.105 2.26971 4.01255 0
M  V30 6668 H 609.649 5.7218 3.99069 0
M  V30 6669 H 605.546 4.607 4.52135 0
M  V30 6670 H 606.314 6.67102 4.74254 0
M  V30 6671 N 608.977 -1.30795 0.87923 0
M  V30 6672 C 609.907 -2.30742 0.357796 0
M  V30 6673 C 610.888 -1.60747 -0.556283 0
M  V30 6674 O 612.073 -1.88393 -0.47135 0
M  V30 6675 C 609.203 -3.44583 -0.433555 0
M  V30 6676 C 608.157 -4.26235 0.388251 0
M  V30 6677 C 607.483 -5.32073 -0.529352 0
M  V30 6678 C 608.783 -4.96303 1.62729 0
M  V30 6679 H 610.477 -2.74605 1.19299 0
M  V30 6680 H 608.023 -1.32017 0.575104 0
M  V30 6681 H 609.976 -4.13563 -0.808934 0
M  V30 6682 H 608.7 -2.99511 -1.30234 0
M  V30 6683 H 607.359 -3.58936 0.745695 0
M  V30 6684 H 607.007 -4.83249 -1.39569 0
M  V30 6685 H 606.707 -5.87598 0.0166741 0
M  V30 6686 H 608.231 -6.0391 -0.901373 0
M  V30 6687 H 609.645 -5.5783 1.32283 0
M  V30 6688 H 608.042 -5.61666 2.11309 0
M  V30 6689 H 609.112 -4.22758 2.37494 0
M  V30 6690 N 610.455 -0.639598 -1.44038 0
M  V30 6691 C 611.402 0.0602458 -2.30721 0
M  V30 6692 C 612.372 0.828352 -1.43971 0
M  V30 6693 O 613.557 0.807693 -1.72861 0
M  V30 6694 C 610.697 1.03008 -3.29368 0
M  V30 6695 C 609.81 0.259502 -4.3122 0
M  V30 6696 C 608.945 1.22191 -5.16955 0
M  V30 6697 C 607.984 0.440978 -6.10509 0
M  V30 6698 N 607.121 1.35428 -6.88915 0
M  V30 6699 H 611.961 -0.684867 -2.90023 0
M  V30 6700 H 609.498 -0.349509 -1.42888 0
M  V30 6701 H 611.456 1.60583 -3.85057 0
M  V30 6702 H 610.086 1.74222 -2.71747 0
M  V30 6703 H 609.138 -0.432317 -3.77935 0
M  V30 6704 H 610.45 -0.348347 -4.97582 0
M  V30 6705 H 609.604 1.86873 -5.77203 0
M  V30 6706 H 608.343 1.86367 -4.50687 0
M  V30 6707 H 607.348 -0.219279 -5.49363 0
M  V30 6708 H 608.573 -0.196192 -6.78817 0
M  V30 6709 H 606.519 1.9831 -6.25307 0
M  V30 6710 H 606.436 0.800657 -7.51748 0
M  V30 6711 H 607.704 1.98967 -7.53679 0
M  V30 6712 N 611.933 1.52934 -0.380664 0
M  V30 6713 C 613.173 2.03378 0.204161 0
M  V30 6714 C 613.537 1.26132 1.44758 0
M  V30 6715 O 614.738 1.66657 2.109 0
M  V30 6716 C 613.009 3.54241 0.474118 0
M  V30 6717 S 614.568 4.26529 1.03046 0
M  V30 6718 H 611.386 0.708608 0.0582719 0
M  V30 6719 H 613.988 1.88263 -0.527017 0
M  V30 6720 H 612.692 4.08055 -0.438088 0
M  V30 6721 H 612.223 3.73547 1.23396 0
M  V30 6722 H 614.238 4.38964 2.31354 0
M  V30 6723 N 613.412 0.11024 1.57214 0
M  V30 6724 C 614.823 -0.416527 1.81994 0
M  V30 6725 C 615.174 -1.67183 1.02686 0
M  V30 6726 O 614.299 -2.14823 0.260782 0
M  V30 6727 C 614.894 -0.762466 3.30109 0
M  V30 6728 C 613.453 -1.23391 3.556 0
M  V30 6729 C 612.6 -0.238166 2.76275 0
M  V30 6730 H 615.551 0.335491 1.55113 0
M  V30 6731 H 615.572 -1.62068 3.44259 0
M  V30 6732 H 615.084 0.151346 3.87805 0
M  V30 6733 H 613.185 -2.16492 3.03253 0
M  V30 6734 H 613.298 -1.18528 4.64207 0
M  V30 6735 H 611.662 -0.723421 2.4421 0
M  V30 6736 H 612.445 0.668591 3.36727 0
M  V30 6737 N 614.89 -1.56749 -0.16351 0
M  V30 6738 C 615.82 -2.00042 -1.20438 0
M  V30 6739 C 616.801 -0.877256 -1.45733 0
M  V30 6740 O 617.986 -1.1439 -1.56935 0
M  V30 6741 C 615.116 -2.36697 -2.54149 0
M  V30 6742 C 614.07 -3.52046 -2.43408 0
M  V30 6743 C 613.396 -3.74466 -3.81679 0
M  V30 6744 C 614.696 -4.85247 -1.93216 0
M  V30 6745 H 616.39 -2.87244 -0.844477 0
M  V30 6746 H 613.936 -1.38194 -0.40478 0
M  V30 6747 H 615.889 -2.65582 -3.27176 0
M  V30 6748 H 614.613 -1.46414 -2.91943 0
M  V30 6749 H 613.272 -3.23301 -1.72834 0
M  V30 6750 H 612.92 -2.81461 -4.1688 0
M  V30 6751 H 612.62 -4.52084 -3.75359 0
M  V30 6752 H 614.144 -4.0576 -4.5628 0
M  V30 6753 H 615.558 -5.12957 -2.56023 0
M  V30 6754 H 613.955 -5.66556 -1.97825 0
M  V30 6755 H 615.025 -4.7672 -0.88689 0
M  V30 6756 N 616.368 0.432326 -1.51554 0
M  V30 6757 C 617.318 1.52366 -1.69614 0
M  V30 6758 C 618.302 1.51205 -0.550083 0
M  V30 6759 O 619.494 1.57573 -0.806206 0
M  V30 6760 C 616.623 2.90513 -1.82913 0
M  V30 6761 C 615.709 2.9641 -3.03318 0
M  V30 6762 N 616.1 2.72043 -4.26411 0
M  V30 6763 C 614.398 3.27572 -3.02675 0
M  V30 6764 C 615.099 2.83912 -5.07709 0
M  V30 6765 N 614.075 3.15798 -4.42462 0
M  V30 6766 H 617.877 1.32285 -2.62446 0
M  V30 6767 H 615.391 0.639708 -1.4927 0
M  V30 6768 H 617.388 3.69032 -1.93962 0
M  V30 6769 H 616.048 3.1161 -0.912655 0
M  V30 6770 H 617.059 2.46876 -4.55272 0
M  V30 6771 H 613.736 3.54411 -2.20678 0
M  V30 6772 H 615.126 2.68984 -6.15709 0
M  V30 6773 N 617.846 1.41785 0.688094 0
M  V30 6774 C 619.074 1.44915 1.47673 0
M  V30 6775 C 619.489 0.0565786 1.88715 0
M  V30 6776 O 618.846 -0.92579 1.57275 0
M  V30 6777 C 618.897 2.36452 2.73446 0
M  V30 6778 O 618.618 3.7029 2.34131 0
M  V30 6779 C 620.119 2.48463 3.67125 0
M  V30 6780 H 617.339 0.493324 0.454832 0
M  V30 6781 H 619.883 1.86153 0.846594 0
M  V30 6782 H 618.038 1.98502 3.3268 0
M  V30 6783 H 618.452 4.19183 3.15255 0
M  V30 6784 H 619.926 3.16662 4.52138 0
M  V30 6785 H 620.403 1.51826 4.12123 0
M  V30 6786 H 621.009 2.8708 3.13792 0
M  V30 6787 N 619.324 -0.923095 1.27737 0
M  V30 6788 C 620.57 -1.67375 1.14514 0
M  V30 6789 C 620.903 -1.91751 -0.307424 0
M  V30 6790 O 620.178 -1.51119 -1.22447 0
M  V30 6791 C 620.461 -3.03745 1.9342 0
M  V30 6792 C 620.314 -2.86581 3.46686 0
M  V30 6793 C 621.633 -4.04144 1.74228 0
M  V30 6794 H 618.752 -0.607427 0.417374 0
M  V30 6795 H 621.394 -1.07089 1.56946 0
M  V30 6796 H 619.544 -3.55204 1.5736 0
M  V30 6797 H 621.216 -2.42203 3.92601 0
M  V30 6798 H 619.459 -2.21829 3.72793 0
M  V30 6799 H 620.13 -3.83381 3.97143 0
M  V30 6800 H 622.606 -3.61712 2.05678 0
M  V30 6801 H 621.482 -4.97543 2.31824 0
M  V30 6802 H 621.743 -4.36661 0.691373 0
M  V30 6803 N 620.802 -1.09834 -1.13024 0
M  V30 6804 C 621.732 -0.763451 -2.20666 0
M  V30 6805 C 622.713 0.260778 -1.68089 0
M  V30 6806 O 623.898 0.127915 -1.93778 0
M  V30 6807 C 621.028 -0.187744 -3.46792 0
M  V30 6808 C 619.982 -1.14196 -4.12484 0
M  V30 6809 C 619.308 -0.427755 -5.32986 0
M  V30 6810 C 620.608 -2.48607 -4.59338 0
M  V30 6811 H 622.302 -1.66347 -2.48936 0
M  V30 6812 H 619.848 -0.801261 -1.19649 0
M  V30 6813 H 621.801 0.0586375 -4.21359 0
M  V30 6814 H 620.525 0.747485 -3.17931 0
M  V30 6815 H 619.184 -1.37369 -3.3989 0
M  V30 6816 H 618.832 0.511747 -5.0039 0
M  V30 6817 H 618.532 -1.06403 -5.77886 0
M  V30 6818 H 620.056 -0.189772 -6.10305 0
M  V30 6819 H 621.47 -2.29618 -5.25308 0
M  V30 6820 H 619.867 -3.08062 -5.14993 0
M  V30 6821 H 620.937 -3.09062 -3.73642 0
M  V30 6822 N 622.28 1.30327 -0.886154 0
M  V30 6823 C 623.227 2.28099 -0.352069 0
M  V30 6824 C 624.197 1.56433 0.558397 0
M  V30 6825 O 625.382 1.84492 0.486561 0
M  V30 6826 C 622.522 3.42456 0.426346 0
M  V30 6827 C 621.635 4.28938 -0.513472 0
M  V30 6828 C 620.77 5.30458 0.280657 0
M  V30 6829 C 619.809 6.0859 -0.654556 0
M  V30 6830 N 618.946 7.02022 0.104322 0
M  V30 6831 H 623.786 2.73166 -1.19097 0
M  V30 6832 H 621.323 1.34367 -0.598662 0
M  V30 6833 H 623.281 4.07518 0.893587 0
M  V30 6834 H 621.911 2.98455 1.22981 0
M  V30 6835 H 620.963 3.64173 -1.09921 0
M  V30 6836 H 622.275 4.83399 -1.2299 0
M  V30 6837 H 621.429 6.01273 0.8097 0
M  V30 6838 H 620.168 4.76693 1.03029 0
M  V30 6839 H 619.173 5.36651 -1.19522 0
M  V30 6840 H 620.398 6.64443 -1.4033 0
M  V30 6841 H 618.344 6.50645 0.836472 0
M  V30 6842 H 618.261 7.53979 -0.552453 0
M  V30 6843 H 619.529 7.77077 0.614069 0
M  V30 6844 N 623.758 0.647228 1.43697 0
M  V30 6845 C 624.688 -0.0345631 2.33474 0
M  V30 6846 C 625.669 -0.818193 1.4913 0
M  V30 6847 O 626.854 -0.780867 1.77809 0
M  V30 6848 C 623.984 -1.00576 3.32418 0
M  V30 6849 C 622.938 -0.33266 4.26705 0
M  V30 6850 C 622.264 -1.41489 5.1564 0
M  V30 6851 C 623.564 0.771204 5.16575 0
M  V30 6852 H 625.258 0.715163 2.90733 0
M  V30 6853 H 622.804 0.345364 1.39797 0
M  V30 6854 H 624.757 -1.49159 3.94119 0
M  V30 6855 H 623.481 -1.78657 2.73403 0
M  V30 6856 H 622.14 0.13267 3.6636 0
M  V30 6857 H 621.788 -2.18698 4.52968 0
M  V30 6858 H 621.488 -0.969799 5.79542 0
M  V30 6859 H 623.012 -1.9022 5.80214 0
M  V30 6860 H 624.426 0.36779 5.72119 0
M  V30 6861 H 622.823 1.1404 5.89165 0
M  V30 6862 H 623.893 1.63169 4.56622 0
M  V30 6863 N 625.236 -1.5273 0.388769 0
M  V30 6864 C 626.464 -2.05992 -0.193677 0
M  V30 6865 C 626.879 -1.26053 -1.40557 0
M  V30 6866 O 626.236 -0.307049 -1.79898 0
M  V30 6867 C 626.287 -3.57068 -0.564321 0
M  V30 6868 O 626.008 -4.3398 0.599422 0
M  V30 6869 C 627.509 -4.26674 -1.20269 0
M  V30 6870 H 624.729 -0.670358 -0.0293445 0
M  V30 6871 H 627.273 -1.96857 0.553844 0
M  V30 6872 H 625.428 -3.66277 -1.26174 0
M  V30 6873 H 625.842 -5.2367 0.294895 0
M  V30 6874 H 627.316 -5.33625 -1.4124 0
M  V30 6875 H 627.793 -3.81854 -2.16989 0
M  V30 6876 H 628.399 -4.2178 -0.546047 0
M  V30 6877 N 626.714 -0.118576 -1.57153 0
M  V30 6878 C 628.125 0.40687 -1.82213 0
M  V30 6879 C 628.476 1.66636 -1.03571 0
M  V30 6880 O 627.601 2.14682 -0.272171 0
M  V30 6881 C 628.196 0.744949 -3.30509 0
M  V30 6882 C 626.755 1.21503 -3.5625 0
M  V30 6883 C 625.902 0.223511 -2.76398 0
M  V30 6884 H 628.853 -0.343712 -1.54933 0
M  V30 6885 H 628.874 1.6024 -3.45114 0
M  V30 6886 H 628.386 -0.171911 -3.87719 0
M  V30 6887 H 626.487 2.1488 -3.04396 0
M  V30 6888 H 626.6 1.16065 -4.64829 0
M  V30 6889 H 624.964 0.71046 -2.44591 0
M  V30 6890 H 625.747 -0.686439 -3.36367 0
M  V30 6891 N 628.193 1.56834 0.155195 0
M  V30 6892 C 629.439 1.83169 0.870467 0
M  V30 6893 C 629.772 0.698929 1.81187 0
M  V30 6894 O 629.047 -0.298035 1.92203 0
M  V30 6895 C 629.33 3.19965 1.65211 0
M  V30 6896 C 629.183 4.43792 0.732744 0
M  V30 6897 C 630.502 3.53885 2.61636 0
M  V30 6898 H 627.621 0.666288 0.315006 0
M  V30 6899 H 630.263 1.89513 0.135988 0
M  V30 6900 H 628.413 3.14687 2.27825 0
M  V30 6901 H 630.085 4.61148 0.118236 0
M  V30 6902 H 628.328 4.3378 0.0417906 0
M  V30 6903 H 628.999 5.36095 1.31552 0
M  V30 6904 H 631.475 3.5972 2.09143 0
M  V30 6905 H 630.351 4.50648 3.13381 0
M  V30 6906 H 630.612 2.79418 3.42605 0
M  V30 6907 N 629.671 -0.424282 1.51781 0
M  V30 6908 C 630.634 -1.49848 1.73431 0
M  V30 6909 C 631.634 -1.49016 0.604225 0
M  V30 6910 O 632.824 -1.50808 0.871935 0
M  V30 6911 C 629.956 -2.89332 1.80277 0
M  V30 6912 H 631.149 -1.3195 2.69312 0
M  V30 6913 H 628.702 -0.653809 1.41968 0
M  V30 6914 H 629.437 -3.12618 0.862568 0
M  V30 6915 H 629.222 -2.9134 2.62419 0
M  V30 6916 H 630.712 -3.67233 1.98821 0
M  V30 6917 N 631.149 -1.42148 -0.680565 0
M  V30 6918 C 632.379 -1.45485 -1.46689 0
M  V30 6919 C 632.787 -0.0629451 -1.89095 0
M  V30 6920 O 632.13 0.931397 -1.58337 0
M  V30 6921 C 632.192 -2.31397 -2.75129 0
M  V30 6922 C 631.856 -3.79353 -2.54834 0
M  V30 6923 C 632.853 -4.71148 -2.19808 0
M  V30 6924 C 630.538 -4.23557 -2.70008 0
M  V30 6925 C 632.532 -6.05139 -2.00215 0
M  V30 6926 C 630.219 -5.57609 -2.50031 0
M  V30 6927 C 631.217 -6.48216 -2.15187 0
M  V30 6928 O 630.905 -7.79792 -1.95397 0
M  V30 6929 H 630.637 -0.497139 -0.458071 0
M  V30 6930 H 633.191 -1.87252 -0.844139 0
M  V30 6931 H 631.421 -1.84468 -3.39865 0
M  V30 6932 H 633.11 -2.26257 -3.36991 0
M  V30 6933 H 633.876 -4.38282 -2.07686 0
M  V30 6934 H 629.755 -3.53327 -2.96109 0
M  V30 6935 H 633.299 -6.75823 -1.72941 0
M  V30 6936 H 629.196 -5.9005 -2.61748 0
M  V30 6937 H 629.964 -7.91091 -2.10042 0
M  V30 6938 N 632.627 0.916307 -1.28225 0
M  V30 6939 C 633.875 1.6619 -1.15002 0
M  V30 6940 C 634.196 1.92642 0.302329 0
M  V30 6941 O 633.466 1.54076 1.20985 0
M  V30 6942 H 632.046 0.615964 -0.422608 0
M  V30 6943 H 634.708 1.09963 -1.60917 0
M  V30 6944 H 633.804 2.62533 -1.68769 0
M  V30 6945 N 634.105 1.10431 1.1244 0
M  V30 6946 C 635.345 0.856518 1.85589 0
M  V30 6947 C 635.709 -0.606905 1.82156 0
M  V30 6948 O 636.91 -0.97105 2.50647 0
M  V30 6949 C 635.181 1.38977 3.29272 0
M  V30 6950 S 636.74 1.27739 4.19795 0
M  V30 6951 H 633.558 0.309509 0.640098 0
M  V30 6952 H 636.16 1.40975 1.35449 0
M  V30 6953 H 634.864 2.44887 3.2933 0
M  V30 6954 H 634.395 0.833112 3.84477 0
M  V30 6955 H 636.41 0.235051 4.95643 0
M  V30 6956 N 635.583 -1.29855 0.893053 0
M  V30 6957 C 636.53 -2.27909 0.364161 0
M  V30 6958 C 637.5 -1.56726 -0.550093 0
M  V30 6959 O 638.685 -1.84747 -0.47677 0
M  V30 6960 C 635.825 -3.42678 -0.408178 0
M  V30 6961 C 634.938 -4.28659 0.536212 0
M  V30 6962 C 634.073 -5.30599 -0.252521 0
M  V30 6963 C 633.112 -6.08234 0.686822 0
M  V30 6964 N 632.249 -7.02068 -0.0670902 0
M  V30 6965 H 637.089 -2.72531 1.20544 0
M  V30 6966 H 634.626 -1.34047 0.605779 0
M  V30 6967 H 636.584 -4.07986 -0.871962 0
M  V30 6968 H 635.214 -2.99103 -1.21397 0
M  V30 6969 H 634.266 -3.63584 1.1185 0
M  V30 6970 H 635.578 -4.8274 1.25552 0
M  V30 6971 H 634.732 -6.01694 -0.777801 0
M  V30 6972 H 633.471 -4.77233 -1.005 0
M  V30 6973 H 632.476 -5.3601 1.22366 0
M  V30 6974 H 633.701 -6.63689 1.43852 0
M  V30 6975 H 631.647 -6.5108 -0.801955 0
M  V30 6976 H 631.564 -7.53675 0.59243 0
M  V30 6977 H 632.832 -7.77392 -0.572851 0
M  V30 6978 N 637.061 -0.65484 -1.43351 0
M  V30 6979 C 638.307 -0.169142 -2.02093 0
M  V30 6980 C 638.64 1.21431 -1.51553 0
M  V30 6981 O 637.915 1.81105 -0.709317 0
M  V30 6982 C 638.198 -0.181775 -3.59641 0
M  V30 6983 C 638.051 -1.59926 -4.20409 0
M  V30 6984 C 639.37 0.480945 -4.37464 0
M  V30 6985 H 636.489 -0.0629371 -0.734308 0
M  V30 6986 H 639.131 -0.835833 -1.70628 0
M  V30 6987 H 637.281 0.385918 -3.86578 0
M  V30 6988 H 638.953 -2.21766 -4.04497 0
M  V30 6989 H 637.196 -2.14605 -3.76998 0
M  V30 6990 H 637.867 -1.55994 -5.295 0
M  V30 6991 H 640.343 -0.00208273 -4.161 0
M  V30 6992 H 639.219 0.441384 -5.47122 0
M  V30 6993 H 639.48 1.55533 -4.13838 0
M  V30 6994 N 638.539 1.52521 -0.396863 0
M  V30 6995 C 639.449 2.30403 0.44178 0
M  V30 6996 C 640.465 1.37625 1.06468 0
M  V30 6997 O 641.641 1.70697 1.06886 0
M  V30 6998 C 638.706 3.1013 1.54986 0
M  V30 6999 C 637.767 4.18628 0.951279 0
M  V30 7000 C 637 4.94543 2.00655 0
M  V30 7001 O 637.223 4.70629 3.22281 0
M  V30 7002 O 636.157 5.797 1.61962 0
M  V30 7003 H 639.983 3.03087 -0.192892 0
M  V30 7004 H 637.568 1.48537 -0.16038 0
M  V30 7005 H 639.45 3.59816 2.19341 0
M  V30 7006 H 638.125 2.40251 2.16935 0
M  V30 7007 H 637.032 3.73119 0.270773 0
M  V30 7008 H 638.365 4.90763 0.375887 0
M  V30 7009 N 640.017 0.126909 1.57088 0
M  V30 7010 C 641.242 -0.53997 2.00248 0
M  V30 7011 C 641.667 -1.58927 1.00618 0
M  V30 7012 O 641.025 -1.81288 -0.0210131 0
M  V30 7013 C 641.073 -1.13565 3.4225 0
M  V30 7014 O 640.177 -2.25103 3.45547 0
M  V30 7015 H 639.518 -0.13412 0.650314 0
M  V30 7016 H 642.048 0.217718 2.03438 0
M  V30 7017 H 642.058 -1.46925 3.80627 0
M  V30 7018 H 640.733 -0.367122 4.14277 0
M  V30 7019 H 639.31 -1.93123 3.18995 0
M  V30 7020 N 641.495 -1.56914 -0.146875 0
M  V30 7021 C 642.744 -1.82546 -0.857898 0
M  V30 7022 C 643.057 -0.708169 -1.8233 0
M  V30 7023 O 644.263 -0.850093 -2.57848 0
M  V30 7024 C 642.719 -3.23548 -1.57623 0
M  V30 7025 C 642.327 -4.43212 -0.653224 0
M  V30 7026 C 644.071 -3.58453 -2.27402 0
M  V30 7027 C 641.978 -5.75237 -1.37318 0
M  V30 7028 H 640.908 -0.680786 -0.32411 0
M  V30 7029 H 643.559 -1.83166 -0.110639 0
M  V30 7030 H 641.941 -3.17315 -2.36912 0
M  V30 7031 H 643.115 -4.60682 0.104452 0
M  V30 7032 H 641.43 -4.16351 -0.0638336 0
M  V30 7033 H 644.027 -4.54349 -2.81907 0
M  V30 7034 H 644.37 -2.84516 -3.03901 0
M  V30 7035 H 644.903 -3.66347 -1.55032 0
M  V30 7036 H 641.642 -6.52269 -0.650041 0
M  V30 7037 H 641.162 -5.61703 -2.10357 0
M  V30 7038 H 642.841 -6.18039 -1.91406 0
M  V30 7039 N 642.974 0.416227 -1.52004 0
M  V30 7040 C 644.221 1.16383 -1.65714 0
M  V30 7041 C 644.549 1.9068 -0.383594 0
M  V30 7042 O 643.804 1.85174 0.633185 0
M  V30 7043 C 644.103 2.18923 -2.82502 0
M  V30 7044 C 643.769 1.61485 -4.20991 0
M  V30 7045 C 642.431 1.45545 -4.58661 0
M  V30 7046 C 644.783 1.19468 -5.07323 0
M  V30 7047 C 642.111 0.860937 -5.80349 0
M  V30 7048 C 644.463 0.614386 -6.29609 0
M  V30 7049 C 643.127 0.442056 -6.66035 0
M  V30 7050 H 642.397 0.425875 -0.606392 0
M  V30 7051 H 645.044 0.45199 -1.8609 0
M  V30 7052 H 643.349 2.96225 -2.56433 0
M  V30 7053 H 645.046 2.76628 -2.90307 0
M  V30 7054 H 641.636 1.74873 -3.91302 0
M  V30 7055 H 645.82 1.30596 -4.78809 0
M  V30 7056 H 641.076 0.715372 -6.072 0
M  V30 7057 H 645.25 0.280393 -6.95835 0
M  V30 7058 H 642.877 -0.0207218 -7.60197 0
M  V30 7059 N 644.452 1.42507 0.673017 0
M  V30 7060 C 645.382 1.48916 1.79851 0
M  V30 7061 C 646.363 0.345566 1.66553 0
M  V30 7062 O 647.548 0.560116 1.85947 0
M  V30 7063 C 644.678 1.39258 3.18158 0
M  V30 7064 C 643.632 2.51662 3.46194 0
M  V30 7065 C 642.958 2.27062 4.84094 0
M  V30 7066 C 644.258 3.93968 3.42909 0
M  V30 7067 H 645.952 2.43114 1.74745 0
M  V30 7068 H 643.498 1.17013 0.839288 0
M  V30 7069 H 645.451 1.42349 3.96629 0
M  V30 7070 H 644.175 0.415542 3.23946 0
M  V30 7071 H 642.834 2.47891 2.70084 0
M  V30 7072 H 642.482 1.27648 4.86534 0
M  V30 7073 H 642.182 3.02398 5.03815 0
M  V30 7074 H 643.706 2.31905 5.64847 0
M  V30 7075 H 645.12 3.99332 4.11347 0
M  V30 7076 H 643.517 4.6917 3.74165 0
M  V30 7077 H 644.587 4.20512 2.41449 0
M  V30 7078 N 645.93 -0.909495 1.28709 0
M  V30 7079 C 646.878 -2.03381 1.12866 0
M  V30 7080 C 647.872 -1.69335 0.0468074 0
M  V30 7081 O 649.078 -1.78819 0.205891 0
M  V30 7082 H 645.453 -0.666452 0.348348 0
M  V30 7083 H 647.424 -2.13885 2.08077 0
M  V30 7084 C 646.173 -3.38092 0.811742 0
M  V30 7085 H 645.496 -3.64786 1.63619 0
M  V30 7086 H 646.936 -4.17477 0.740869 0
M  V30 7087 C 645.395 -3.33395 -0.484679 0
M  V30 7088 O 645.925 -3.72089 -1.5137 0
M  V30 7089 N 644.131 -2.86491 -0.486961 0
M  V30 7090 H 643.678 -2.55199 0.350877 0
M  V30 7091 H 643.636 -2.83731 -1.3544 0
M  V30 7092 N 647.408 -1.11026 -1.11852 0
M  V30 7093 C 648.654 -0.857729 -1.83768 0
M  V30 7094 C 648.987 0.615143 -1.842 0
M  V30 7095 O 648.262 1.45391 -1.29196 0
M  V30 7096 C 648.545 -1.41453 -3.31154 0
M  V30 7097 C 648.398 -2.95471 -3.39142 0
M  V30 7098 C 649.717 -1.0619 -4.27097 0
M  V30 7099 H 646.836 -0.313044 -0.667212 0
M  V30 7100 H 649.478 -1.37443 -1.31185 0
M  V30 7101 H 647.628 -0.975052 -3.76065 0
M  V30 7102 H 649.3 -3.4799 -3.02821 0
M  V30 7103 H 647.543 -3.31759 -2.79497 0
M  V30 7104 H 648.214 -3.29515 -4.42859 0
M  V30 7105 H 650.69 -1.44122 -3.90344 0
M  V30 7106 H 649.566 -1.47832 -5.28618 0
M  V30 7107 H 649.827 0.0278912 -4.42091 0
M  V30 7108 N 648.886 1.2938 -0.899927 0
M  V30 7109 C 649.849 2.25983 -0.382677 0
M  V30 7110 C 650.849 1.53366 0.483259 0
M  V30 7111 O 652.039 1.71798 0.28828 0
M  V30 7112 C 649.171 3.37878 0.452915 0
M  V30 7113 H 650.364 2.73252 -1.23586 0
M  V30 7114 H 647.917 1.40825 -0.678088 0
M  V30 7115 H 648.652 2.95949 1.32608 0
M  V30 7116 H 648.437 3.91742 -0.167562 0
M  V30 7117 H 649.927 4.09746 0.806107 0
M  V30 7118 N 650.364 0.662433 1.43002 0
M  V30 7119 C 651.327 -0.0142016 2.29196 0
M  V30 7120 C 652.327 -0.741394 1.42688 0
M  V30 7121 O 653.517 -0.581257 1.64216 0
M  V30 7122 C 650.649 -1.03084 3.24941 0
M  V30 7123 H 651.842 0.7443 2.90517 0
M  V30 7124 H 649.395 0.424133 1.50435 0
M  V30 7125 H 650.13 -1.81826 2.68533 0
M  V30 7126 H 649.915 -0.512946 3.8873 0
M  V30 7127 H 651.405 -1.50308 3.89612 0
M  V30 7128 N 651.842 -1.52309 0.404946 0
M  V30 7129 C 653.088 -2.02065 -0.172455 0
M  V30 7130 C 653.421 -1.29022 -1.45145 0
M  V30 7131 O 652.696 -0.395284 -1.90441 0
M  V30 7132 C 652.979 -3.5759 -0.424433 0
M  V30 7133 C 652.832 -4.41287 0.870945 0
M  V30 7134 C 654.151 -4.23186 -1.20837 0
M  V30 7135 H 651.27 -0.734454 -0.0612035 0
M  V30 7136 H 653.912 -1.82236 0.53759 0
M  V30 7137 H 652.062 -3.74617 -1.02929 0
M  V30 7138 H 653.734 -4.3598 1.50729 0
M  V30 7139 H 651.977 -4.07669 1.48284 0
M  V30 7140 H 652.648 -5.48171 0.649083 0
M  V30 7141 H 655.124 -4.10232 -0.696338 0
M  V30 7142 H 654 -5.31953 -1.35343 0
M  V30 7143 H 654.261 -3.81862 -2.22786 0
M  V30 7144 N 653.32 -0.135238 -1.57019 0
M  V30 7145 C 654.268 0.826099 -2.17436 0
M  V30 7146 C 655.262 1.26378 -1.12805 0
M  V30 7147 O 656.468 1.23363 -1.31079 0
M  V30 7148 H 652.843 0.284568 -0.696078 0
M  V30 7149 H 654.814 0.292212 -2.96966 0
M  V30 7150 C 653.563 2.05991 -2.80112 0
M  V30 7151 H 652.886 1.73209 -3.60331 0
M  V30 7152 H 654.326 2.71225 -3.25903 0
M  V30 7153 C 652.785 2.86027 -1.78017 0
M  V30 7154 O 653.315 3.81971 -1.24344 0
M  V30 7155 N 651.521 2.50332 -1.47588 0
M  V30 7156 H 651.068 1.72377 -1.91426 0
M  V30 7157 H 651.026 3.04177 -0.795228 0
M  V30 7158 N 654.798 1.5699 0.138552 0
M  V30 7159 C 656.026 1.87976 0.864437 0
M  V30 7160 C 656.441 0.724372 1.74351 0
M  V30 7161 O 655.798 -0.305575 1.79924 0
M  V30 7162 C 655.849 3.18276 1.71414 0
M  V30 7163 O 655.57 4.29365 0.870487 0
M  V30 7164 C 657.071 3.62834 2.54688 0
M  V30 7165 H 654.291 0.622878 0.249528 0
M  V30 7166 H 656.835 2.04094 0.128805 0
M  V30 7167 H 654.99 3.03886 2.40274 0
M  V30 7168 H 655.404 5.03924 1.45466 0
M  V30 7169 H 656.878 4.5682 3.0987 0
M  V30 7170 H 657.355 2.88533 3.31127 0
M  V30 7171 H 657.961 3.79946 1.91105 0
M  V30 7172 N 656.276 -0.40816 1.52223 0
M  V30 7173 C 657.226 -1.49648 1.72016 0
M  V30 7174 C 658.21 -1.50311 0.574069 0
M  V30 7175 O 659.402 -1.56271 0.831173 0
M  V30 7176 C 656.531 -2.87566 1.87512 0
M  V30 7177 C 655.617 -2.91547 3.07995 0
M  V30 7178 N 656.008 -2.65225 4.30685 0
M  V30 7179 C 654.306 -3.22715 3.07849 0
M  V30 7180 C 655.007 -2.75799 5.12162 0
M  V30 7181 N 653.983 -3.08719 4.4743 0
M  V30 7182 H 657.785 -1.28093 2.64517 0
M  V30 7183 H 655.299 -0.61588 1.50269 0
M  V30 7184 H 657.296 -3.65899 1.99809 0
M  V30 7185 H 655.956 -3.10118 0.962114 0
M  V30 7186 H 656.967 -2.39601 4.59142 0
M  V30 7187 H 653.644 -3.50856 2.26289 0
M  V30 7188 H 655.034 -2.59155 6.1991 0
M  V30 7189 N 657.755 -1.42862 -0.66545 0
M  V30 7190 C 659.171 -1.25993 -0.979687 0
M  V30 7191 C 659.371 -0.170831 -2.00775 0
M  V30 7192 O 658.427 0.454827 -2.4837 0
M  V30 7193 C 659.74 -2.62005 -1.47559 0
M  V30 7194 C 661.288 -2.69437 -1.59288 0
M  V30 7195 C 661.763 -4.05838 -2.12272 0
M  V30 7196 N 663.254 -4.0784 -2.19592 0
M  V30 7197 C 663.989 -5.10205 -2.61684 0
M  V30 7198 N 663.485 -6.22949 -3.03161 0
M  V30 7199 N 665.278 -4.9756 -2.61516 0
M  V30 7200 H 657.429 -2.12395 0.0150493 0
M  V30 7201 H 659.692 -0.946355 -0.0558187 0
M  V30 7202 H 659.398 -3.42605 -0.794654 0
M  V30 7203 H 659.272 -2.86566 -2.45275 0
M  V30 7204 H 661.659 -1.89178 -2.26486 0
M  V30 7205 H 661.74 -2.48655 -0.600374 0
M  V30 7206 H 661.384 -4.86559 -1.4568 0
M  V30 7207 H 661.314 -4.23977 -3.12331 0
M  V30 7208 H 663.805 -3.26452 -1.90361 0
M  V30 7209 H 664.118 -6.96899 -3.33993 0
M  V30 7210 H 662.463 -6.2644 -3.00995 0
M  V30 7211 H 665.654 -4.08551 -2.28481 0
M  V30 7212 H 665.827 -5.77468 -2.93999 0
M  V30 7213 N 659.233 0.902656 -1.29189 0
M  V30 7214 C 660.51 1.63296 -1.07674 0
M  V30 7215 C 660.89 2.07649 0.380137 0
M  V30 7216 O 660.238 1.82997 1.36837 0
M  V30 7217 C 660.448 2.81603 -2.06158 0
M  V30 7218 C 661.796 3.52359 -2.36914 0
M  V30 7219 O 662.82 2.91767 -2.04329 0
M  V30 7220 O 661.679 4.61586 -2.92576 0
M  V30 7221 H 658.773 0.716889 -0.41231 0
M  V30 7222 H 661.319 0.950984 -1.4055 0
M  V30 7223 H 660.091 2.46004 -3.04299 0
M  V30 7224 H 659.714 3.57508 -1.73993 0
M  V30 7225 N 660.711 1.11618 1.11262 0
M  V30 7226 C 662.127 0.850468 1.35053 0
M  V30 7227 C 662.327 -0.523868 1.94571 0
M  V30 7228 O 661.383 -1.2743 2.17986 0
M  V30 7229 C 662.696 1.96005 2.28041 0
M  V30 7230 C 664.244 1.98993 2.416 0
M  V30 7231 C 664.719 3.0916 3.37911 0
M  V30 7232 N 666.21 3.08547 3.45475 0
M  V30 7233 C 666.945 3.9043 4.19943 0
M  V30 7234 N 666.441 4.8228 4.97371 0
M  V30 7235 N 668.234 3.786 4.15474 0
M  V30 7236 H 660.385 2.00184 0.709932 0
M  V30 7237 H 662.648 0.870635 0.375099 0
M  V30 7238 H 662.354 2.9499 1.91503 0
M  V30 7239 H 662.228 1.85782 3.28275 0
M  V30 7240 H 664.615 1.00633 2.77411 0
M  V30 7241 H 664.696 2.13292 1.4121 0
M  V30 7242 H 664.34 4.07748 3.02827 0
M  V30 7243 H 664.27 2.92102 4.3816 0
M  V30 7244 H 666.761 2.42 2.90249 0
M  V30 7245 H 667.074 5.41289 5.51567 0
M  V30 7246 H 665.419 4.863 4.96525 0
M  V30 7247 H 668.61 3.06185 3.54074 0
M  V30 7248 H 668.783 4.42647 4.73253 0
M  V30 7249 N 662.189 -1.289 0.906776 0
M  V30 7250 C 663.6 -1.77336 0.58384 0
M  V30 7251 C 663.951 -1.74304 -0.900697 0
M  V30 7252 O 663.076 -1.33335 -1.70443 0
M  V30 7253 C 663.671 -3.22019 1.05304 0
M  V30 7254 C 662.23 -3.68205 0.781148 0
M  V30 7255 C 661.377 -2.48837 1.22373 0
M  V30 7256 H 664.328 -1.15462 1.08877 0
M  V30 7257 H 664.349 -3.78481 0.391414 0
M  V30 7258 H 663.861 -3.24194 2.13353 0
M  V30 7259 H 661.962 -3.71497 -0.28643 0
M  V30 7260 H 662.075 -4.58675 1.384 0
M  V30 7261 H 660.439 -2.46461 0.642594 0
M  V30 7262 H 661.222 -2.53736 2.31242 0
M  V30 7263 N 663.667 -0.670007 -1.42649 0
M  V30 7264 C 664.599 0.0501746 -2.29145 0
M  V30 7265 C 665.612 0.770331 -1.43422 0
M  V30 7266 O 666.801 0.625288 -1.6719 0
M  V30 7267 C 663.901 1.09463 -3.20735 0
M  V30 7268 C 663.074 0.44926 -4.35087 0
M  V30 7269 C 662.133 1.39285 -5.07431 0
M  V30 7270 O 661.159 0.894997 -5.6212 0
M  V30 7271 N 662.361 2.72631 -5.12496 0
M  V30 7272 H 665.126 -0.692312 -2.91594 0
M  V30 7273 H 662.687 -0.514056 -1.53522 0
M  V30 7274 H 664.679 1.72705 -3.65999 0
M  V30 7275 H 663.249 1.73891 -2.59771 0
M  V30 7276 H 662.469 -0.362573 -3.92529 0
M  V30 7277 H 663.757 -0.000544776 -5.088 0
M  V30 7278 H 663.155 3.15623 -4.69467 0
M  V30 7279 H 661.712 3.31132 -5.61422 0
M  V30 7280 N 665.145 1.52092 -0.413018 0
M  V30 7281 C 666.093 2.28681 0.425199 0
M  V30 7282 C 667.087 1.3353 1.04241 0
M  V30 7283 O 668.293 1.50973 0.980166 0
M  V30 7284 H 664.668 0.735661 0.155906 0
M  V30 7285 H 666.639 2.97418 -0.241926 0
M  V30 7286 C 665.388 3.1235 1.5275 0
M  V30 7287 H 664.711 3.85439 1.06191 0
M  V30 7288 H 666.151 3.69038 2.08774 0
M  V30 7289 C 664.61 2.26161 2.49706 0
M  V30 7290 O 665.14 1.90452 3.53682 0
M  V30 7291 N 663.346 1.89854 2.20008 0
M  V30 7292 H 662.893 2.19092 1.35486 0
M  V30 7293 H 662.851 1.3248 2.85125 0
M  V30 7294 N 666.623 0.143563 1.56945 0
M  V30 7295 C 667.869 -0.50916 1.96304 0
M  V30 7296 C 668.202 -1.64741 1.0283 0
M  V30 7297 O 667.477 -1.94374 0.0700361 0
M  V30 7298 C 667.76 -1.0186 3.45393 0
M  V30 7299 C 667.613 0.117923 4.49645 0
M  V30 7300 C 668.932 -1.90151 3.96901 0
M  V30 7301 H 666.051 -0.183608 0.713763 0
M  V30 7302 H 668.693 0.224095 1.88674 0
M  V30 7303 H 666.843 -1.64345 3.52027 0
M  V30 7304 H 668.515 0.754145 4.55094 0
M  V30 7305 H 666.758 0.777568 4.26774 0
M  V30 7306 H 667.429 -0.280187 5.51288 0
M  V30 7307 H 669.905 -1.375 3.92725 0
M  V30 7308 H 668.781 -2.22707 5.0169 0
M  V30 7309 H 669.042 -2.83718 3.39052 0
M  V30 7310 N 668.101 -1.57061 -0.130224 0
M  V30 7311 C 669.378 -1.75205 -0.869631 0
M  V30 7312 C 669.758 -0.716063 -1.98584 0
M  V30 7313 O 669.106 0.262032 -2.26993 0
M  V30 7314 C 669.316 -3.19835 -1.39666 0
M  V30 7315 C 670.664 -3.82011 -1.85345 0
M  V30 7316 O 671.688 -3.23368 -1.49371 0
M  V30 7317 O 670.547 -4.85064 -2.51744 0
M  V30 7318 H 667.641 -0.716977 -0.412157 0
M  V30 7319 H 670.187 -1.69311 -0.11484 0
M  V30 7320 H 668.959 -3.86745 -0.595288 0
M  V30 7321 H 668.582 -3.30222 -2.21448 0
M  V30 7322 N 669.579 0.400081 -1.52437 0
M  V30 7323 C 670.828 1.14332 -1.66166 0
M  V30 7324 C 671.141 1.91419 -0.402253 0
M  V30 7325 O 672.347 2.6824 -0.419487 0
M  V30 7326 C 670.803 2.08137 -2.9361 0
M  V30 7327 C 670.411 1.36524 -4.26691 0
M  V30 7328 C 672.155 2.82664 -3.16703 0
M  V30 7329 C 670.062 2.29031 -5.45251 0
M  V30 7330 H 668.992 0.430499 -0.61902 0
M  V30 7331 H 671.643 0.407017 -1.78929 0
M  V30 7332 H 670.025 2.85358 -2.74567 0
M  V30 7333 H 671.199 0.646061 -4.56249 0
M  V30 7334 H 669.514 0.74002 -4.09771 0
M  V30 7335 H 672.111 3.52037 -4.0246 0
M  V30 7336 H 672.454 3.46122 -2.31312 0
M  V30 7337 H 672.987 2.12541 -3.36261 0
M  V30 7338 H 669.726 1.70206 -6.33017 0
M  V30 7339 H 669.246 2.98896 -5.2002 0
M  V30 7340 H 670.925 2.89359 -5.78689 0
M  V30 7341 N 671.057 1.43213 0.657864 0
M  V30 7342 C 672.282 1.48227 1.45064 0
M  V30 7343 C 672.707 0.0999939 1.87834 0
M  V30 7344 O 672.065 -0.905269 1.57081 0
M  V30 7345 C 672.113 2.42931 2.6649 0
M  V30 7346 O 671.217 1.91237 3.6538 0
M  V30 7347 H 670.558 0.501551 0.435135 0
M  V30 7348 H 673.088 1.8808 0.805431 0
M  V30 7349 H 673.098 2.6008 3.1436 0
M  V30 7350 H 671.773 3.43348 2.34701 0
M  V30 7351 H 670.35 1.83726 3.24498 0
M  V30 7352 N 672.536 -0.895792 1.29666 0
M  V30 7353 C 673.952 -1.17726 1.07763 0
M  V30 7354 C 674.152 -2.00794 -0.168576 0
M  V30 7355 O 673.208 -2.37213 -0.865244 0
M  V30 7356 C 674.521 -1.89441 2.33522 0
M  V30 7357 C 676.069 -2.02251 2.3888 0
M  V30 7358 C 676.544 -2.77378 3.64452 0
M  V30 7359 N 678.035 -2.8493 3.65198 0
M  V30 7360 C 678.77 -3.43606 4.59045 0
M  V30 7361 N 678.266 -4.03417 5.63228 0
M  V30 7362 N 680.059 -3.41317 4.46608 0
M  V30 7363 H 672.21 -0.341652 2.09634 0
M  V30 7364 H 674.473 -0.213865 0.923561 0
M  V30 7365 H 674.179 -1.35842 3.24407 0
M  V30 7366 H 674.053 -2.89893 2.41334 0
M  V30 7367 H 676.44 -2.55025 1.4848 0
M  V30 7368 H 676.521 -1.0092 2.3505 0
M  V30 7369 H 676.165 -2.25279 4.55205 0
M  V30 7370 H 676.095 -3.79062 3.65541 0
M  V30 7371 H 678.586 -2.42453 2.89871 0
M  V30 7372 H 678.899 -4.46224 6.30955 0
M  V30 7373 H 677.244 -4.01868 5.67033 0
M  V30 7374 H 680.435 -2.93812 3.64407 0
M  V30 7375 H 680.608 -3.86751 5.1993 0
M  V30 7376 N 674.014 -1.12206 -1.10668 0
M  V30 7377 C 675.425 -0.890657 -1.64086 0
M  V30 7378 C 675.776 0.575502 -1.8757 0
M  V30 7379 O 674.901 1.4394 -1.61587 0
M  V30 7380 C 675.496 -1.61029 -2.98085 0
M  V30 7381 C 674.055 -1.4251 -3.48379 0
M  V30 7382 C 673.202 -1.64778 -2.23033 0
M  V30 7383 H 676.153 -1.27718 -0.94201 0
M  V30 7384 H 676.174 -1.05993 -3.65439 0
M  V30 7385 H 675.686 -2.67735 -2.80962 0
M  V30 7386 H 673.787 -0.380497 -3.70652 0
M  V30 7387 H 673.9 -2.17959 -4.26651 0
M  V30 7388 H 672.264 -1.07171 -2.31055 0
M  V30 7389 H 673.047 -2.72776 -2.08443 0
M  V30 7390 N 675.492 1.28418 -0.913599 0
M  V30 7391 C 676.903 1.77024 -0.593237 0
M  V30 7392 C 677.254 1.74779 0.891441 0
M  V30 7393 O 676.379 1.34237 1.69733 0
M  V30 7394 C 676.974 3.21456 -1.07011 0
M  V30 7395 C 675.533 3.67786 -0.800664 0
M  V30 7396 C 674.68 2.48185 -1.23691 0
M  V30 7397 H 677.631 1.14883 -1.09487 0
M  V30 7398 H 677.652 3.78269 -0.411481 0
M  V30 7399 H 677.164 3.23058 -2.1507 0
M  V30 7400 H 675.265 3.71644 0.266725 0
M  V30 7401 H 675.378 4.57934 -1.4083 0
M  V30 7402 H 673.742 2.46116 -0.655655 0
M  V30 7403 H 674.525 2.52506 -2.32585 0
M  V30 7404 N 676.97 0.677563 1.42291 0
M  V30 7405 C 677.88 0.000962654 2.346 0
M  V30 7406 C 678.896 -0.785833 1.55244 0
M  V30 7407 O 680.072 -0.727523 1.87801 0
M  V30 7408 C 677.137 -0.936746 3.33805 0
M  V30 7409 C 676.198 -0.144173 4.29058 0
M  V30 7410 C 675.431 -1.03722 5.23524 0
M  V30 7411 O 675.654 -2.27675 5.22992 0
M  V30 7412 O 674.588 -0.496542 5.99848 0
M  V30 7413 H 678.414 0.761397 2.94001 0
M  V30 7414 H 675.999 0.43781 1.42841 0
M  V30 7415 H 677.881 -1.47497 3.94744 0
M  V30 7416 H 676.556 -1.67698 2.76874 0
M  V30 7417 H 675.463 0.438224 3.71524 0
M  V30 7418 H 676.796 0.55701 4.89038 0
M  V30 7419 N 678.448 -1.51871 0.421078 0
M  V30 7420 C 679.358 -2.31077 -0.405069 0
M  V30 7421 C 680.374 -1.39301 -1.04265 0
M  V30 7422 O 681.55 -1.72376 -1.04157 0
M  V30 7423 C 678.615 -3.12556 -1.50032 0
M  V30 7424 C 677.676 -4.20088 -0.884559 0
M  V30 7425 C 676.909 -4.97673 -1.92762 0
M  V30 7426 O 677.132 -4.75696 -3.14753 0
M  V30 7427 O 676.066 -5.82203 -1.52719 0
M  V30 7428 H 679.892 -3.02742 0.241086 0
M  V30 7429 H 677.477 -1.48263 0.183991 0
M  V30 7430 H 679.359 -3.6326 -2.13589 0
M  V30 7431 H 678.034 -2.43672 -2.13086 0
M  V30 7432 H 676.941 -3.73502 -0.211379 0
M  V30 7433 H 678.274 -4.91298 -0.297763 0
M  V30 7434 N 679.926 -0.151884 -1.56866 0
M  V30 7435 C 680.889 0.771861 -2.15812 0
M  V30 7436 C 681.889 1.17181 -1.10115 0
M  V30 7437 O 683.079 1.09194 -1.35729 0
M  V30 7438 C 680.211 2.04806 -2.7252 0
M  V30 7439 H 681.404 0.259021 -2.98779 0
M  V30 7440 H 678.957 0.097588 -1.55995 0
M  V30 7441 H 679.692 2.60445 -1.93233 0
M  V30 7442 H 679.477 1.77044 -3.49854 0
M  V30 7443 H 680.967 2.70771 -3.1792 0
M  V30 7444 N 681.404 1.57128 0.121893 0
M  V30 7445 C 682.334 2.03165 1.15092 0
M  V30 7446 C 683.315 0.915587 1.43356 0
M  V30 7447 O 684.5 1.1851 1.53847 0
M  V30 7448 C 681.63 2.43352 2.47784 0
M  V30 7449 C 680.584 3.58376 2.33989 0
M  V30 7450 C 679.91 3.84454 3.71617 0
M  V30 7451 C 681.21 4.90199 1.80283 0
M  V30 7452 H 682.904 2.89382 0.768023 0
M  V30 7453 H 680.45 1.39218 0.367998 0
M  V30 7454 H 682.403 2.74163 3.20019 0
M  V30 7455 H 681.127 1.54103 2.87958 0
M  V30 7456 H 679.786 3.2777 1.64202 0
M  V30 7457 H 679.434 2.92414 4.09271 0
M  V30 7458 H 679.134 4.61877 3.6324 0
M  V30 7459 H 680.658 4.17714 4.45362 0
M  V30 7460 H 682.072 5.19565 2.42333 0
M  V30 7461 H 680.469 5.71601 1.82735 0
M  V30 7462 H 681.539 4.78904 0.760184 0
M  V30 7463 N 682.882 -0.391992 1.52647 0
M  V30 7464 C 684.128 -1.139 1.67793 0
M  V30 7465 C 684.461 -1.89711 0.41514 0
M  V30 7466 O 683.736 -1.85431 -0.586979 0
M  V30 7467 C 684.019 -2.11966 2.91105 0
M  V30 7468 C 683.872 -1.39939 4.27478 0
M  V30 7469 C 685.191 -3.1243 3.09961 0
M  V30 7470 H 682.31 -0.412707 0.610608 0
M  V30 7471 H 684.952 -0.422725 1.85238 0
M  V30 7472 H 683.102 -2.73048 2.76364 0
M  V30 7473 H 684.774 -0.818439 4.53982 0
M  V30 7474 H 683.017 -0.701246 4.28095 0
M  V30 7475 H 683.688 -2.1158 5.09841 0
M  V30 7476 H 686.164 -2.61435 3.23714 0
M  V30 7477 H 685.04 -3.78294 3.97725 0
M  V30 7478 H 685.301 -3.81127 2.24042 0
M  V30 7479 N 684.36 -1.4356 -0.65026 0
M  V30 7480 C 685.588 -1.48779 -1.43779 0
M  V30 7481 C 686.003 -0.106593 -1.88499 0
M  V30 7482 O 685.36 0.883766 -1.59674 0
M  V30 7483 C 685.411 -2.43618 -2.67081 0
M  V30 7484 O 685.132 -3.76367 -2.24231 0
M  V30 7485 C 686.633 -2.5811 -3.60409 0
M  V30 7486 H 683.853 -0.50521 -0.441593 0
M  V30 7487 H 686.397 -1.88332 -0.796941 0
M  V30 7488 H 684.552 -2.07253 -3.273 0
M  V30 7489 H 684.966 -4.27394 -3.0403 0
M  V30 7490 H 686.44 -3.28539 -4.43583 0
M  V30 7491 H 686.917 -1.627 -4.07953 0
M  V30 7492 H 687.523 -2.95298 -3.0607 0
M  V30 7493 N 685.838 0.888903 -1.30139 0
M  V30 7494 C 687.084 1.6428 -1.18912 0
M  V30 7495 C 687.417 1.92499 0.256477 0
M  V30 7496 O 686.692 1.54312 1.18397 0
M  V30 7497 C 686.975 2.9851 -2.01405 0
M  V30 7498 C 686.828 2.77288 -3.54163 0
M  V30 7499 C 688.147 3.99383 -1.84882 0
M  V30 7500 H 685.266 0.596148 -0.433333 0
M  V30 7501 H 687.908 1.0289 -1.5973 0
M  V30 7502 H 686.058 3.50907 -1.66722 0
M  V30 7503 H 687.73 2.31709 -3.98884 0
M  V30 7504 H 685.973 2.11867 -3.78543 0
M  V30 7505 H 686.644 3.72717 -4.07168 0
M  V30 7506 H 689.12 3.56132 -2.15196 0
M  V30 7507 H 687.996 4.91222 -2.44934 0
M  V30 7508 H 688.257 4.34674 -0.806902 0
M  V30 7509 N 687.317 1.12792 1.10072 0
M  V30 7510 C 688.728 0.899346 1.63611 0
M  V30 7511 C 689.079 -0.565547 1.87872 0
M  V30 7512 O 688.204 -1.43081 1.62348 0
M  V30 7513 C 688.799 1.62608 2.97227 0
M  V30 7514 C 687.358 1.44356 3.47618 0
M  V30 7515 C 686.505 1.65958 2.22156 0
M  V30 7516 H 689.456 1.28216 0.935223 0
M  V30 7517 H 689.477 1.0793 3.64872 0
M  V30 7518 H 688.989 2.69221 2.79538 0
M  V30 7519 H 687.09 0.400148 3.70445 0
M  V30 7520 H 687.203 2.20218 4.25489 0
M  V30 7521 H 685.567 1.08395 2.30484 0
M  V30 7522 H 686.35 2.73877 2.06993 0
M  V30 7523 N 688.795 -1.27931 0.920396 0
M  V30 7524 C 689.758 -2.25345 0.41858 0
M  V30 7525 C 690.758 -1.54116 -0.458798 0
M  V30 7526 O 691.948 -1.72235 -0.260912 0
M  V30 7527 C 689.08 -3.38556 -0.399104 0
M  V30 7528 H 690.273 -2.71251 1.27918 0
M  V30 7529 H 687.826 -1.39728 0.700406 0
M  V30 7530 H 688.561 -2.98021 -1.27882 0
M  V30 7531 H 688.346 -3.91426 0.229863 0
M  V30 7532 H 689.836 -4.10976 -0.740817 0
M  V30 7533 N 690.273 -0.685099 -1.4193 0
M  V30 7534 C 691.223 0.00977295 -2.27998 0
M  V30 7535 C 692.207 0.763315 -1.41641 0
M  V30 7536 O 693.399 0.640532 -1.65004 0
M  V30 7537 C 690.528 0.952972 -3.29808 0
M  V30 7538 C 689.614 0.196231 -4.23646 0
M  V30 7539 N 690.005 -0.804401 -4.99363 0
M  V30 7540 C 688.303 0.433213 -4.43891 0
M  V30 7541 C 689.004 -1.25646 -5.67968 0
M  V30 7542 N 687.98 -0.5844 -5.4045 0
M  V30 7543 H 691.782 -0.757586 -2.83968 0
M  V30 7544 H 689.296 -0.515037 -1.54017 0
M  V30 7545 H 691.293 1.46585 -3.9028 0
M  V30 7546 H 689.953 1.72004 -2.75399 0
M  V30 7547 H 690.964 -1.18429 -5.04177 0
M  V30 7548 H 687.641 1.17899 -4.00507 0
M  V30 7549 H 689.031 -2.08622 -6.38691 0
M  V30 7550 N 691.751 1.51645 -0.429126 0
M  V30 7551 C 692.683 2.25279 0.422124 0
M  V30 7552 C 693.696 1.28986 0.993299 0
M  V30 7553 O 694.885 1.54797 0.888836 0
M  V30 7554 C 691.985 2.98666 1.60162 0
M  V30 7555 C 691.158 4.2199 1.15078 0
M  V30 7556 C 690.217 4.78028 2.19946 0
M  V30 7557 O 689.243 5.40084 1.79716 0
M  V30 7558 N 690.445 4.61342 3.5234 0
M  V30 7559 H 693.21 2.98971 -0.208931 0
M  V30 7560 H 690.771 1.59838 -0.257568 0
M  V30 7561 H 692.763 3.33044 2.29922 0
M  V30 7562 H 691.333 2.28036 2.13818 0
M  V30 7563 H 690.553 3.932 0.280552 0
M  V30 7564 H 691.841 5.02037 0.826831 0
M  V30 7565 H 691.239 4.11894 3.87763 0
M  V30 7566 H 689.796 5.00104 4.18019 0
M  V30 7567 O 693.268 0.301146 1.58667 0
M  V30 7568 H 693.959 -0.263453 1.919 0
M  V30 END ATOM
M  V30 BEGIN BOND
M  V30 END BOND
M  V30 END CTAB
M  END
$$$$
