drugbank_target|P33151 Cadherin-5 (DB00480; DB05685)
 OpenBabel12092120313D

  0  0  0     0  0            999 V3000
M  V30 BEGIN CTAB
M  V30 COUNTS 12197 12330 0 0 0
M  V30 BEGIN ATOM
M  V30 1 H -0.908 1.98254 -0.117106 0
M  V30 2 N 0 1.576 0 0
M  V30 3 C 0.933 2.03868 1.02534 0
M  V30 4 C 1.911 0.928543 1.3348 0
M  V30 5 O 3.095 1.19667 1.45644 0
M  V30 6 C 0.222 2.43627 2.35294 0
M  V30 7 C -0.732 3.65373 2.2001 0
M  V30 8 S 0.101 5.13292 1.52614 0
M  V30 9 C 1.257 5.56322 2.86805 0
M  V30 10 H 1.49 2.90518 0.631377 0
M  V30 11 H -0.977 1.52953 0.210867 0
M  V30 12 H 0.981 2.67203 3.11629 0
M  V30 13 H -0.358 1.57376 2.7183 0
M  V30 14 H -1.165 3.90944 3.18086 0
M  V30 15 H -1.563 3.418 1.51819 0
M  V30 16 H 0.729 5.58782 3.83104 0
M  V30 17 H 1.672 6.56266 2.65933 0
M  V30 18 H 2.08 4.83886 2.90714 0
M  V30 19 N 1.4781 -0.272755 1.55222 0
M  V30 20 C 2.4101 -1.35946 1.8453 0
M  V30 21 C 3.4231 -1.45525 0.729818 0
M  V30 22 O 4.6121 -1.47337 1.00767 0
M  V30 23 C 1.7121 -2.74069 1.99347 0
M  V30 24 C 0.8851 -2.87079 3.30007 0
M  V30 25 C -0.0559 -4.05879 3.34886 0
M  V30 26 O -1.0299 -3.96626 4.08261 0
M  V30 27 N 0.1721 -5.17857 2.62307 0
M  V30 28 H 2.9371 -1.11149 2.78327 0
M  V30 29 H 0.4981 -0.462869 1.55142 0
M  V30 30 H 2.4901 -3.51838 1.99981 0
M  V30 31 H 1.0601 -2.91688 1.12415 0
M  V30 32 H 0.2801 -1.96193 3.41909 0
M  V30 33 H 1.5681 -2.92701 4.16177 0
M  V30 34 H 0.9661 -5.28261 2.02377 0
M  V30 35 H -0.4769 -5.93855 2.68663 0
M  V30 36 N 2.9562 -1.48159 -0.537278 0
M  V30 37 C 4.3722 -1.34118 -0.865129 0
M  V30 38 C 4.5722 -0.346678 -1.98495 0
M  V30 39 O 3.6282 0.234715 -2.51407 0
M  V30 40 C 4.9412 -2.73963 -1.23954 0
M  V30 41 C 6.4892 -2.82397 -1.34984 0
M  V30 42 C 6.9642 -4.22928 -1.75772 0
M  V30 43 N 8.4552 -4.25566 -1.82887 0
M  V30 44 C 9.1902 -5.31235 -2.15817 0
M  V30 45 N 8.6862 -6.47189 -2.47222 0
M  V30 46 N 10.4792 -5.18624 -2.16761 0
M  V30 47 H 2.6302 -2.1144 0.201715 0
M  V30 48 H 4.8932 -0.947598 0.0275949 0
M  V30 49 H 4.5992 -3.48264 -0.490381 0
M  V30 50 H 4.4732 -3.0702 -2.19132 0
M  V30 51 H 6.8602 -2.08356 -2.08978 0
M  V30 52 H 6.9412 -2.5297 -0.379448 0
M  V30 53 H 6.5852 -4.97482 -1.02341 0
M  V30 54 H 6.5152 -4.49794 -2.73848 0
M  V30 55 H 9.0062 -3.41924 -1.60924 0
M  V30 56 H 9.3192 -7.23564 -2.71433 0
M  V30 57 H 7.6642 -6.50476 -2.44757 0
M  V30 58 H 10.8552 -4.27056 -1.91679 0
M  V30 59 H 11.0282 -6.01078 -2.42093 0
M  V30 60 N 4.4343 0.785586 -1.36625 0
M  V30 61 C 5.3643 1.91259 -1.33949 0
M  V30 62 C 6.3453 1.68795 -0.210325 0
M  V30 63 O 7.5303 1.89854 -0.408561 0
M  V30 64 C 4.6603 3.28339 -1.13186 0
M  V30 65 C 3.6143 3.65335 -2.22967 0
M  V30 66 C 2.9403 5.00806 -1.87342 0
M  V30 67 C 4.2403 3.7352 -3.65075 0
M  V30 68 H 5.9343 1.93755 -2.28253 0
M  V30 69 H 3.4803 0.930788 -1.09874 0
M  V30 70 H 5.4333 4.06804 -1.09948 0
M  V30 71 H 4.1573 3.2624 -0.153332 0
M  V30 72 H 2.8163 2.89169 -2.25337 0
M  V30 73 H 2.4643 4.95233 -0.880545 0
M  V30 74 H 2.1643 5.26529 -2.60846 0
M  V30 75 H 3.6883 5.81687 -1.85667 0
M  V30 76 H 5.1023 4.42168 -3.64911 0
M  V30 77 H 3.4993 4.10731 -4.37516 0
M  V30 78 H 4.5693 2.74527 -3.99703 0
M  V30 79 N 5.9124 1.20967 1.01018 0
M  V30 80 C 6.8454 0.907578 2.09376 0
M  V30 81 C 7.8234 -0.142868 1.61971 0
M  V30 82 O 9.0074 -0.0150391 1.88494 0
M  V30 83 C 6.1344 0.361791 3.36762 0
M  V30 84 C 5.1804 1.39423 4.03068 0
M  V30 85 S 6.0134 2.96159 4.4615 0
M  V30 86 C 7.1694 2.43173 5.7673 0
M  V30 87 H 7.4024 1.82519 2.34678 0
M  V30 88 H 4.9354 1.03884 1.14225 0
M  V30 89 H 6.8934 0.0534523 4.10465 0
M  V30 90 H 5.5544 -0.53443 3.0952 0
M  V30 91 H 4.7474 0.961853 4.94737 0
M  V30 92 H 4.3494 1.65038 3.35617 0
M  V30 93 H 6.6414 1.83335 6.52223 0
M  V30 94 H 7.5844 3.33264 6.24773 0
M  V30 95 H 7.9924 1.85069 5.33301 0
M  V30 96 N 7.3905 -1.2043 1.01659 0
M  V30 97 C 8.3235 -2.21924 0.531521 0
M  V30 98 C 9.3015 -1.57054 -0.421032 0
M  V30 99 O 10.4855 -1.85389 -0.341035 0
M  V30 100 C 7.6125 -3.37942 -0.226496 0
M  V30 101 C 6.6585 -4.21115 0.67561 0
M  V30 102 S 7.4915 -4.90674 2.14475 0
M  V30 103 C 8.6475 -6.10113 1.3969 0
M  V30 104 H 8.8805 -2.62725 1.3915 0
M  V30 105 H 6.4135 -1.30481 0.825479 0
M  V30 106 H 8.3715 -4.05196 -0.657738 0
M  V30 107 H 7.0325 -2.956 -1.06205 0
M  V30 108 H 6.2255 -5.03918 0.091108 0
M  V30 109 H 5.8275 -3.59115 1.04463 0
M  V30 110 H 8.1195 -6.7411 0.676897 0
M  V30 111 H 9.0625 -6.73022 2.20107 0
M  V30 112 H 9.4705 -5.57283 0.899786 0
M  V30 113 N 8.8686 -0.792821 -1.36206 0
M  V30 114 C 9.7986 -0.207853 -2.32573 0
M  V30 115 C 10.7796 0.659055 -1.56813 0
M  V30 116 O 11.9646 0.592176 -1.84951 0
M  V30 117 C 9.0946 0.655449 -3.41059 0
M  V30 118 C 8.0486 -0.111842 -4.27854 0
M  V30 119 C 7.3746 0.872274 -5.27537 0
M  V30 120 C 8.6746 -1.30299 -5.05786 0
M  V30 121 H 10.3686 -1.01294 -2.81744 0
M  V30 122 H 7.9146 -0.48854 -1.3546 0
M  V30 123 H 9.8676 1.07464 -4.07467 0
M  V30 124 H 8.5916 1.49328 -2.90463 0
M  V30 125 H 7.2506 -0.512053 -3.63006 0
M  V30 126 H 6.8986 1.70523 -4.73214 0
M  V30 127 H 6.5986 0.363291 -5.86476 0
M  V30 128 H 8.1226 1.28996 -5.96818 0
M  V30 129 H 9.5366 -0.959379 -5.65216 0
M  V30 130 H 7.9336 -1.7455 -5.74154 0
M  V30 131 H 9.0036 -2.09663 -4.37229 0
M  V30 132 N 10.3467 1.47872 -0.545128 0
M  V30 133 C 11.2767 2.32661 0.197793 0
M  V30 134 C 12.2577 1.43041 0.920504 0
M  V30 135 O 13.4427 1.71912 0.90333 0
M  V30 136 C 10.5727 3.24569 1.23582 0
M  V30 137 C 9.5267 4.23333 0.630323 0
M  V30 138 C 8.8527 5.0448 1.77211 0
M  V30 139 C 10.1527 5.20704 -0.407974 0
M  V30 140 H 11.8467 2.95024 -0.510045 0
M  V30 141 H 9.3927 1.4187 -0.246731 0
M  V30 142 H 11.3457 3.8272 1.76362 0
M  V30 143 H 10.0697 2.60236 1.97344 0
M  V30 144 H 8.7287 3.6639 0.123922 0
M  V30 145 H 8.3767 4.36561 2.49847 0
M  V30 146 H 8.0767 5.71339 1.37281 0
M  V30 147 H 9.6007 5.65487 2.3034 0
M  V30 148 H 11.0147 5.7329 0.033305 0
M  V30 149 H 9.4117 5.95699 -0.725486 0
M  V30 150 H 10.4817 4.66917 -1.30828 0
M  V30 151 N 11.8248 0.280983 1.55075 0
M  V30 152 C 12.7878 -0.590896 2.21452 0
M  V30 153 C 13.7878 -1.07682 1.19421 0
M  V30 154 O 14.9778 -0.97605 1.44288 0
M  V30 155 C 12.1098 -1.81587 2.88511 0
M  V30 156 H 13.3028 -0.0112554 2.99898 0
M  V30 157 H 10.8558 0.0316438 1.56268 0
M  V30 158 H 11.5908 -2.43587 2.14093 0
M  V30 159 H 11.3758 -1.4753 3.63287 0
M  V30 160 H 12.8658 -2.43575 3.39206 0
M  V30 161 N 13.3029 -1.57598 0.00835791 0
M  V30 162 C 14.5309 -1.95214 -0.68549 0
M  V30 163 C 14.9459 -0.883706 -1.66841 0
M  V30 164 O 14.3029 0.136565 -1.81988 0
M  V30 165 C 14.3539 -3.32865 -1.41007 0
M  V30 166 O 14.0749 -4.35609 -0.466552 0
M  V30 167 C 15.5759 -3.84991 -2.19765 0
M  V30 168 H 12.7959 -0.643422 -0.190392 0
M  V30 169 H 15.3399 -2.04406 0.0619607 0
M  V30 170 H 13.4949 -3.24956 -2.10908 0
M  V30 171 H 13.9089 -5.15288 -0.978699 0
M  V30 172 H 15.3829 -4.8371 -2.65948 0
M  V30 173 H 15.8599 -3.18137 -3.02796 0
M  V30 174 H 16.4659 -3.96103 -1.54864 0
M  V30 175 N 14.781 0.264519 -1.55364 0
M  V30 176 C 16.006 1.01726 -1.80739 0
M  V30 177 C 16.431 1.78836 -0.583044 0
M  V30 178 O 15.789 1.75167 0.467566 0
M  V30 179 C 15.837 1.94482 -3.03659 0
M  V30 180 O 14.941 3.03386 -2.7934 0
M  V30 181 H 14.282 0.290395 -0.597132 0
M  V30 182 H 16.812 0.290854 -2.02522 0
M  V30 183 H 16.822 2.36278 -3.32621 0
M  V30 184 H 15.497 1.37772 -3.92418 0
M  V30 185 H 14.074 2.65844 -2.61498 0
M  V30 186 N 16.2591 1.48442 0.529413 0
M  V30 187 C 17.5071 1.56179 1.28267 0
M  V30 188 C 17.8281 0.237721 1.93546 0
M  V30 189 O 17.0981 -0.740779 1.81354 0
M  V30 190 H 15.6781 0.575367 0.476405 0
M  V30 191 H 18.3401 1.84909 0.61602 0
M  V30 192 H 17.4361 2.34312 2.06165 0
M  V30 193 N 17.7372 -0.778329 1.37039 0
M  V30 194 C 18.7002 -1.87301 1.32102 0
M  V30 195 C 19.7002 -1.59198 0.226405 0
M  V30 196 O 20.8902 -1.67403 0.481861 0
M  V30 197 C 18.0222 -3.24309 1.05055 0
M  V30 198 H 19.2152 -1.93093 2.29467 0
M  V30 199 H 16.7682 -0.977358 1.21973 0
M  V30 200 H 17.5032 -3.24196 0.0819373 0
M  V30 201 H 17.2882 -3.46098 1.84279 0
M  V30 202 H 18.7782 -4.04382 1.04234 0
M  V30 203 N 19.2153 -1.21501 -1.00376 0
M  V30 204 C 20.4553 -1.04444 -1.75701 0
M  V30 205 C 20.8193 0.414644 -1.87469 0
M  V30 206 O 22.0203 0.705763 -2.59369 0
M  V30 207 C 20.2913 -1.72389 -3.13077 0
M  V30 208 S 21.8503 -1.70604 -4.04277 0
M  V30 209 H 18.6683 -0.374249 -0.604532 0
M  V30 210 H 21.2703 -1.54267 -1.20091 0
M  V30 211 H 19.9743 -2.77734 -3.02146 0
M  V30 212 H 19.5053 -1.22751 -3.73759 0
M  V30 213 H 21.5203 -0.748012 -4.9053 0
M  V30 214 N 20.6934 1.19889 -1.02296 0
M  V30 215 C 21.6234 2.25141 -0.619174 0
M  V30 216 C 22.6044 1.66051 0.368915 0
M  V30 217 O 23.7894 1.92546 0.252941 0
M  V30 218 C 20.9194 3.4728 0.0368783 0
M  V30 219 C 19.8734 4.19005 -0.872865 0
M  V30 220 C 19.1994 5.34637 -0.0822402 0
M  V30 221 C 20.4994 4.74452 -2.18387 0
M  V30 222 H 22.1934 2.59171 -1.49903 0
M  V30 223 H 19.7394 1.24579 -0.722222 0
M  V30 224 H 21.6924 4.20098 0.330958 0
M  V30 225 H 20.4164 3.12433 0.95149 0
M  V30 226 H 19.0754 3.48061 -1.15105 0
M  V30 227 H 18.7234 4.96034 0.83422 0
M  V30 228 H 18.4234 5.83557 -0.688149 0
M  V30 229 H 19.9474 6.10255 0.205238 0
M  V30 230 H 21.3614 5.39055 -1.95172 0
M  V30 231 H 19.7584 5.33834 -2.74119 0
M  V30 232 H 20.8284 3.92844 -2.84257 0
M  V30 233 N 22.1715 0.800033 1.35784 0
M  V30 234 C 23.4195 0.376597 1.9856 0
M  V30 235 C 23.7405 -1.05812 1.63795 0
M  V30 236 O 23.0105 -1.73103 0.917171 0
M  V30 237 H 21.5905 0.136261 0.734467 0
M  V30 238 H 24.2525 1.02442 1.65806 0
M  V30 239 H 23.3485 0.477002 3.08433 0
M  V30 240 N 23.6496 -1.47581 0.552962 0
M  V30 241 C 24.5796 -2.32762 -0.185451 0
M  V30 242 C 25.5606 -1.43527 -0.912905 0
M  V30 243 O 26.7456 -1.72388 -0.894201 0
M  V30 244 C 23.8756 -3.25219 -1.21859 0
M  V30 245 C 22.8296 -4.23661 -0.607864 0
M  V30 246 C 22.1556 -5.05413 -1.74533 0
M  V30 247 C 23.4556 -5.20481 0.435582 0
M  V30 248 H 25.1496 -2.94749 0.525684 0
M  V30 249 H 22.6956 -1.41738 0.254251 0
M  V30 250 H 24.6486 -3.8365 -1.7433 0
M  V30 251 H 23.3726 -2.61279 -1.95961 0
M  V30 252 H 22.0316 -3.66451 -0.104489 0
M  V30 253 H 21.6796 -4.3788 -2.47529 0
M  V30 254 H 21.3796 -5.72059 -1.34249 0
M  V30 255 H 22.9036 -5.66701 -2.27338 0
M  V30 256 H 24.3176 -5.733 -0.00290157 0
M  V30 257 H 22.7146 -5.95305 0.757067 0
M  V30 258 H 23.7846 -4.66217 1.33303 0
M  V30 259 N 25.1277 -0.289203 -1.54924 0
M  V30 260 C 26.0577 0.58549 -2.2604 0
M  V30 261 C 27.0387 1.14753 -1.25562 0
M  V30 262 O 28.2237 1.17906 -1.54311 0
M  V30 263 C 25.3537 1.76305 -2.99222 0
M  V30 264 C 24.3077 1.33191 -4.06748 0
M  V30 265 C 23.6337 2.5937 -4.6758 0
M  V30 266 C 24.9337 0.471775 -5.20165 0
M  V30 267 H 26.6277 -0.00763532 -2.99399 0
M  V30 268 H 24.1737 -0.00511229 -1.43999 0
M  V30 269 H 26.1267 2.38097 -3.47689 0
M  V30 270 H 24.8507 2.38223 -2.23422 0
M  V30 271 H 23.5097 0.737121 -3.59113 0
M  V30 272 H 23.1577 3.19576 -3.88433 0
M  V30 273 H 22.8577 2.31228 -5.40192 0
M  V30 274 H 24.3817 3.21985 -5.18804 0
M  V30 275 H 25.7957 0.995056 -5.64599 0
M  V30 276 H 24.1927 0.284639 -5.99425 0
M  V30 277 H 25.2627 -0.506041 -4.82252 0
M  V30 278 N 26.6058 1.57591 -0.0167156 0
M  V30 279 C 27.5688 2.08393 0.954204 0
M  V30 280 C 28.5688 0.996531 1.26198 0
M  V30 281 O 29.7588 1.25858 1.20438 0
M  V30 282 C 26.8908 2.5394 2.27436 0
M  V30 283 H 28.0838 2.95455 0.514451 0
M  V30 284 H 25.6368 1.54582 0.231089 0
M  V30 285 H 26.3718 1.70171 2.76066 0
M  V30 286 H 26.1568 3.33371 2.06412 0
M  V30 287 H 27.6468 2.93512 2.97053 0
M  V30 288 N 28.0839 -0.256276 1.55502 0
M  V30 289 C 29.3299 -0.987079 1.77157 0
M  V30 290 C 29.6629 -1.85327 0.580315 0
M  V30 291 O 28.9379 -1.89874 -0.421686 0
M  V30 292 C 29.2209 -1.85553 3.08613 0
M  V30 293 C 29.0739 -1.01816 4.38125 0
M  V30 294 C 30.3929 -2.8397 3.36228 0
M  V30 295 H 27.5119 -0.357428 0.644526 0
M  V30 296 H 30.1539 -0.258239 1.88237 0
M  V30 297 H 28.3039 -2.47695 2.99298 0
M  V30 298 H 29.9759 -0.416159 4.59419 0
M  V30 299 H 28.2189 -0.322178 4.32602 0
M  V30 300 H 28.8899 -1.65939 5.26468 0
M  V30 301 H 31.3659 -2.31964 3.45445 0
M  V30 302 H 30.2419 -3.41864 4.29442 0
M  V30 303 H 30.5029 -3.59955 2.56681 0
M  V30 304 N 29.562 -1.4872 -0.521534 0
M  V30 305 C 30.525 -1.63379 -1.60748 0
M  V30 306 C 31.525 -0.50661 -1.52611 0
M  V30 307 O 32.715 -0.772601 -1.5613 0
M  V30 308 C 29.847 -1.61192 -3.00383 0
M  V30 309 H 31.04 -2.60217 -1.49087 0
M  V30 310 H 28.593 -1.37444 -0.744235 0
M  V30 311 H 29.328 -0.65863 -3.17541 0
M  V30 312 H 29.113 -2.43032 -3.07698 0
M  V30 313 H 30.603 -1.7466 -3.7932 0
M  V30 314 N 31.0401 0.771051 -1.3745 0
M  V30 315 C 32.0031 1.86598 -1.33093 0
M  V30 316 C 33.0031 1.59076 -0.234845 0
M  V30 317 O 34.1931 1.67145 -0.490732 0
M  V30 318 C 31.3251 3.23747 -1.06773 0
M  V30 319 H 32.5181 1.91873 -2.30488 0
M  V30 320 H 30.0711 0.970876 -1.2249 0
M  V30 321 H 30.8061 3.24148 -0.099129 0
M  V30 322 H 30.5911 3.45115 -1.86112 0
M  V30 323 H 32.0811 4.03824 -1.06377 0
M  V30 324 N 32.5182 1.22032 0.997298 0
M  V30 325 C 33.7642 1.04376 1.73878 0
M  V30 326 C 34.0972 -0.420716 1.89588 0
M  V30 327 O 33.3722 -1.31202 1.43583 0
M  V30 328 C 33.6552 1.75047 3.14691 0
M  V30 329 C 33.5082 3.29062 3.06656 0
M  V30 330 C 34.8272 1.49928 4.13775 0
M  V30 331 H 31.9462 0.380578 0.631133 0
M  V30 332 H 34.5882 1.50312 1.16217 0
M  V30 333 H 32.7382 1.35996 3.63919 0
M  V30 334 H 34.4102 3.7753 2.65083 0
M  V30 335 H 32.6532 3.58967 2.43568 0
M  V30 336 H 33.3242 3.73683 4.06282 0
M  V30 337 H 35.8002 1.83842 3.73285 0
M  V30 338 H 34.6762 2.01878 5.10428 0
M  V30 339 H 34.9372 0.430929 4.39995 0
M  V30 340 N 33.9963 -1.19345 1.0293 0
M  V30 341 C 34.9593 -2.20793 0.615069 0
M  V30 342 C 35.9593 -1.57553 -0.321533 0
M  V30 343 O 37.1493 -1.73862 -0.108483 0
M  V30 344 C 34.2813 -3.40754 -0.0999222 0
M  V30 345 H 35.4743 -2.58955 1.51269 0
M  V30 346 H 33.0273 -1.3303 0.820534 0
M  V30 347 H 33.7623 -3.0811 -1.01187 0
M  V30 348 H 33.5473 -3.87889 0.57309 0
M  V30 349 H 35.0373 -4.15898 -0.376645 0
M  V30 350 N 35.4744 -0.807222 -1.35358 0
M  V30 351 C 36.4374 -0.223665 -2.28106 0
M  V30 352 C 37.4374 0.589354 -1.4961 0
M  V30 353 O 38.6274 0.407745 -1.69361 0
M  V30 354 C 35.7594 0.688149 -3.33882 0
M  V30 355 H 36.9524 -1.04169 -2.81227 0
M  V30 356 H 34.5054 -0.577921 -1.45223 0
M  V30 357 H 35.2404 1.52984 -2.85948 0
M  V30 358 H 35.0254 0.10687 -3.91954 0
M  V30 359 H 36.5154 1.09075 -4.03104 0
M  V30 360 N 36.9525 1.47285 -0.560781 0
M  V30 361 C 37.9155 2.28535 0.174488 0
M  V30 362 C 38.9155 1.37153 0.839388 0
M  V30 363 O 40.1055 1.59748 0.694702 0
M  V30 364 C 37.2375 3.16934 1.25561 0
M  V30 365 H 38.4305 2.95012 -0.539262 0
M  V30 366 H 35.9835 1.53034 -0.317865 0
M  V30 367 H 36.7185 2.55157 2.00164 0
M  V30 368 H 36.5035 3.8419 0.783604 0
M  V30 369 H 37.9935 3.78143 1.77193 0
M  V30 370 N 38.4306 0.297415 1.54768 0
M  V30 371 C 39.6786 -0.312295 1.99673 0
M  V30 372 C 39.9996 -1.54686 1.18732 0
M  V30 373 O 39.2696 -1.93854 0.282382 0
M  V30 374 H 37.8496 -0.118381 0.73756 0
M  V30 375 H 40.5116 0.407915 1.90583 0
M  V30 376 H 39.6076 -0.586813 3.06534 0
M  V30 377 N 39.9087 -1.5758 0.0250728 0
M  V30 378 C 40.8717 -2.08896 -0.943139 0
M  V30 379 C 41.8717 -1.00321 -1.25668 0
M  V30 380 O 43.0617 -1.26495 -1.19769 0
M  V30 381 C 40.1937 -2.55143 -2.26086 0
M  V30 382 H 41.3867 -2.95723 -0.498775 0
M  V30 383 H 38.9397 -1.54703 -0.222888 0
M  V30 384 H 39.6747 -1.71633 -2.75159 0
M  V30 385 H 39.4597 -3.34461 -2.04641 0
M  V30 386 H 40.9497 -2.95083 -2.95492 0
M  V30 387 N 41.3868 0.248026 -1.55636 0
M  V30 388 C 42.3348 1.32683 -1.91045 0
M  V30 389 C 43.3288 1.49883 -0.789401 0
M  V30 390 O 44.5348 1.51371 -0.974007 0
M  V30 391 H 40.9098 0.444272 -0.606734 0
M  V30 392 H 42.8808 1.00085 -2.81115 0
M  V30 393 C 41.6298 2.6755 -2.22064 0
M  V30 394 H 40.9528 2.55114 -3.07826 0
M  V30 395 H 42.3928 3.41912 -2.50743 0
M  V30 396 C 40.8518 3.20556 -1.0366 0
M  V30 397 O 41.3818 4.00695 -0.284016 0
M  V30 398 N 39.5878 2.78568 -0.82753 0
M  V30 399 H 39.1348 2.1351 -1.44123 0
M  V30 400 H 39.0928 3.14378 -0.0369803 0
M  V30 401 N 42.8649 1.48995 0.513639 0
M  V30 402 C 44.2759 1.5119 1.09537 0
M  V30 403 C 44.6269 0.290906 1.94031 0
M  V30 404 O 43.7519 -0.60049 2.07902 0
M  V30 405 C 44.3469 2.73964 1.99322 0
M  V30 406 C 42.9059 2.78978 2.52682 0
M  V30 407 C 42.0529 2.44934 1.30009 0
M  V30 408 H 45.0039 1.55875 0.298125 0
M  V30 409 H 45.0249 2.53409 2.83838 0
M  V30 410 H 44.5369 3.62813 1.37799 0
M  V30 411 H 42.6379 1.94378 3.1788 0
M  V30 412 H 42.7509 3.8083 2.90698 0
M  V30 413 H 41.1149 1.9644 1.62122 0
M  V30 414 H 41.8979 3.36043 0.702131 0
M  V30 415 N 44.343 -0.763751 1.37857 0
M  V30 416 C 45.306 -1.85889 1.34081 0
M  V30 417 C 46.306 -1.58949 0.243277 0
M  V30 418 O 47.496 -1.66882 0.499589 0
M  V30 419 C 44.628 -3.23176 1.08489 0
M  V30 420 H 45.821 -1.90648 2.31502 0
M  V30 421 H 43.374 -0.964367 1.23003 0
M  V30 422 H 44.109 -3.24091 0.116318 0
M  V30 423 H 43.894 -3.44124 1.8794 0
M  V30 424 H 45.384 -4.03254 1.08517 0
M  V30 425 N 45.8211 -1.22559 -0.990812 0
M  V30 426 C 46.7531 -0.955325 -2.08342 0
M  V30 427 C 47.7661 0.0668408 -1.62663 0
M  V30 428 O 48.9551 -0.167421 -1.77713 0
M  V30 429 C 46.0551 -0.415566 -3.36342 0
M  V30 430 C 45.2281 -1.49544 -4.11042 0
M  V30 431 C 44.2871 -0.962399 -5.17324 0
M  V30 432 O 43.3131 -1.64907 -5.44788 0
M  V30 433 N 44.5151 0.215134 -5.80101 0
M  V30 434 H 47.2801 -1.89596 -2.32106 0
M  V30 435 H 44.8411 -1.13276 -1.15673 0
M  V30 436 H 46.8331 -0.0442386 -4.04676 0
M  V30 437 H 45.4031 0.430232 -3.09625 0
M  V30 438 H 44.6231 -2.04 -3.37309 0
M  V30 439 H 45.9111 -2.22195 -4.57719 0
M  V30 440 H 45.3091 0.789779 -5.6016 0
M  V30 441 H 43.8661 0.527826 -6.49659 0
M  V30 442 N 47.2992 1.18797 -1.03562 0
M  V30 443 C 48.7152 1.40671 -0.753917 0
M  V30 444 C 48.9152 1.9043 0.658686 0
M  V30 445 O 47.9712 2.08538 1.42366 0
M  V30 446 C 49.2842 2.41192 -1.79574 0
M  V30 447 C 50.8322 2.54928 -1.81606 0
M  V30 448 C 51.3072 3.58709 -2.84766 0
M  V30 449 N 52.7982 3.66212 -2.83625 0
M  V30 450 C 53.5332 4.46225 -3.60098 0
M  V30 451 N 53.0292 5.29888 -4.46308 0
M  V30 452 N 54.8222 4.40939 -3.4861 0
M  V30 453 H 46.9732 0.848221 -1.94728 0
M  V30 454 H 49.2362 0.435081 -0.842264 0
M  V30 455 H 48.9422 2.11669 -2.80872 0
M  V30 456 H 48.8162 3.40467 -1.62365 0
M  V30 457 H 51.2032 2.83771 -0.809817 0
M  V30 458 H 51.2842 1.55784 -2.02891 0
M  V30 459 H 50.9282 3.30607 -3.85566 0
M  V30 460 H 50.8582 4.57519 -2.60737 0
M  V30 461 H 53.3492 3.06466 -2.21105 0
M  V30 462 H 53.6622 5.88078 -5.01382 0
M  V30 463 H 52.0072 5.29326 -4.50377 0
M  V30 464 H 55.1982 3.74624 -2.80668 0
M  V30 465 H 55.3712 5.03056 -4.08459 0
M  V30 466 N 48.7773 0.814389 1.34928 0
M  V30 467 C 50.0543 0.321363 1.92942 0
M  V30 468 C 50.4343 -1.19014 1.74353 0
M  V30 469 O 49.7823 -1.99328 1.11716 0
M  V30 470 C 49.9923 0.741323 3.41036 0
M  V30 471 C 51.3403 0.735266 4.18185 0
M  V30 472 O 52.3643 0.68336 3.49584 0
M  V30 473 O 51.2233 0.800703 5.40602 0
M  V30 474 H 48.3173 0.0858893 0.822528 0
M  V30 475 H 50.8633 0.898609 1.43955 0
M  V30 476 H 49.6353 1.78276 3.4833 0
M  V30 477 H 49.2583 0.139307 3.97356 0
M  V30 478 N 50.2554 -1.46986 0.568584 0
M  V30 479 C 51.4834 -2.0683 0.0539956 0
M  V30 480 C 51.8984 -1.41953 -1.24478 0
M  V30 481 O 51.2554 -0.519933 -1.74937 0
M  V30 482 C 51.3064 -3.61254 -0.133362 0
M  V30 483 O 51.0274 -4.237 1.11399 0
M  V30 484 C 52.5284 -4.37992 -0.683927 0
M  V30 485 H 49.7484 -0.669058 0.0510141 0
M  V30 486 H 52.2924 -1.88824 0.785234 0
M  V30 487 H 50.4474 -3.78735 -0.81477 0
M  V30 488 H 50.8614 -5.16388 0.91888 0
M  V30 489 H 52.3354 -5.46684 -0.764263 0
M  V30 490 H 52.8124 -4.05058 -1.69778 0
M  V30 491 H 53.4184 -4.25283 -0.0378494 0
M  V30 492 N 51.7335 -0.305618 -1.54608 0
M  V30 493 C 52.6835 0.583595 -2.20405 0
M  V30 494 C 53.6675 1.09539 -1.17856 0
M  V30 495 O 54.8595 1.0354 -1.43557 0
M  V30 496 C 51.9885 1.75277 -2.95183 0
M  V30 497 C 51.0745 1.25672 -4.05052 0
M  V30 498 N 51.4655 0.478998 -5.03527 0
M  V30 499 C 49.7635 1.53704 -4.18678 0
M  V30 500 C 50.4645 0.214269 -5.81305 0
M  V30 501 N 49.4405 0.795374 -5.3775 0
M  V30 502 H 53.2425 -0.0180946 -2.93894 0
M  V30 503 H 50.7565 -0.110601 -1.62023 0
M  V30 504 H 52.7535 2.4014 -3.40791 0
M  V30 505 H 51.4135 2.35812 -2.23211 0
M  V30 506 H 52.4245 0.123473 -5.17753 0
M  V30 507 H 49.1015 2.14954 -3.57912 0
M  V30 508 H 50.4915 -0.410656 -6.70644 0
M  V30 509 N 53.2116 1.57565 -0.0334293 0
M  V30 510 C 54.4366 1.96689 0.657895 0
M  V30 511 C 54.8616 0.910057 1.64619 0
M  V30 512 O 54.2196 -0.128598 1.80843 0
M  V30 513 C 54.2676 3.34905 1.33683 0
M  V30 514 O 53.3716 3.31574 2.45219 0
M  V30 515 H 52.7126 0.641205 0.172489 0
M  V30 516 H 55.2426 2.04372 -0.0965621 0
M  V30 517 H 55.2526 3.71234 1.69262 0
M  V30 518 H 53.9276 4.11366 0.612411 0
M  V30 519 H 52.5046 3.06968 2.11719 0
M  V30 520 N 54.6897 -0.239769 1.55765 0
M  V30 521 C 55.6197 -1.30052 1.9393 0
M  V30 522 C 56.6007 -1.49839 0.805132 0
M  V30 523 O 57.7857 -1.62328 1.06599 0
M  V30 524 C 54.9157 -2.65391 2.2402 0
M  V30 525 C 53.8697 -2.60289 3.39755 0
M  V30 526 C 53.1957 -3.99489 3.55405 0
M  V30 527 C 54.4957 -2.16654 4.75246 0
M  V30 528 H 56.1897 -0.983573 2.82783 0
M  V30 529 H 53.7357 -0.471701 1.36055 0
M  V30 530 H 55.6887 -3.3974 2.49308 0
M  V30 531 H 54.4127 -2.98736 1.32 0
M  V30 532 H 53.0717 -1.88398 3.14487 0
M  V30 533 H 52.7197 -4.30112 2.60793 0
M  V30 534 H 52.4197 -3.96962 4.33238 0
M  V30 535 H 53.9437 -4.75528 3.83022 0
M  V30 536 H 55.3577 -2.80737 4.99859 0
M  V30 537 H 53.7547 -2.25223 5.56232 0
M  V30 538 H 54.8247 -1.11835 4.71827 0
M  V30 539 N 56.1678 -1.49265 -0.50573 0
M  V30 540 C 57.0978 -1.68495 -1.61653 0
M  V30 541 C 58.0788 -0.53366 -1.61512 0
M  V30 542 O 59.2638 -0.76897 -1.78327 0
M  V30 543 C 56.3938 -1.74709 -3.00157 0
M  V30 544 C 55.3478 -2.89581 -3.15162 0
M  V30 545 C 54.6738 -2.80903 -4.5497 0
M  V30 546 C 55.9738 -4.30578 -2.95634 0
M  V30 547 H 57.6678 -2.61493 -1.45814 0
M  V30 548 H 55.2138 -1.25838 -0.70005 0
M  V30 549 H 57.1668 -1.86748 -3.77761 0
M  V30 550 H 55.8908 -0.783067 -3.17074 0
M  V30 551 H 54.5498 -2.77136 -2.39982 0
M  V30 552 H 54.1978 -1.82419 -4.68756 0
M  V30 553 H 53.8978 -3.57999 -4.65951 0
M  V30 554 H 55.4218 -2.94944 -5.34641 0
M  V30 555 H 56.8358 -4.4373 -3.63011 0
M  V30 556 H 55.2328 -5.0886 -3.18091 0
M  V30 557 H 56.3028 -4.45352 -1.91806 0
M  V30 558 N 57.6459 0.756429 -1.3826 0
M  V30 559 C 59.0569 1.33359 -1.30661 0
M  V30 560 C 59.4079 1.96161 0.0388875 0
M  V30 561 O 58.5329 1.94874 0.940918 0
M  V30 562 C 59.1279 2.42477 -2.36622 0
M  V30 563 C 57.6869 2.95922 -2.3261 0
M  V30 564 C 56.8339 1.69275 -2.19639 0
M  V30 565 H 59.7849 0.55552 -1.4866 0
M  V30 566 H 59.8059 3.22345 -2.02174 0
M  V30 567 H 59.3179 1.96739 -3.34538 0
M  V30 568 H 57.4189 3.45996 -1.38267 0
M  V30 569 H 57.5319 3.50494 -3.26636 0
M  V30 570 H 55.8959 1.92793 -1.66442 0
M  V30 571 H 56.6789 1.25619 -3.19491 0
M  V30 572 N 59.124 1.23083 0.984299 0
M  V30 573 C 60.352 1.08714 1.76037 0
M  V30 574 C 60.767 -0.361691 1.85303 0
M  V30 575 O 60.124 -1.25034 1.32939 0
M  V30 576 C 60.175 1.70206 3.18923 0
M  V30 577 O 59.896 3.09423 3.10144 0
M  V30 578 C 61.397 1.61227 4.12941 0
M  V30 579 H 58.617 0.380664 0.552572 0
M  V30 580 H 61.161 1.62853 1.23689 0
M  V30 581 H 59.316 1.20109 3.6831 0
M  V30 582 H 59.73 3.39188 4.00065 0
M  V30 583 H 61.204 2.08962 5.10919 0
M  V30 584 H 61.681 0.570375 4.35481 0
M  V30 585 H 62.287 2.10671 3.69456 0
M  V30 586 N 60.6021 -1.18246 1.0419 0
M  V30 587 C 61.5521 -2.19843 0.604392 0
M  V30 588 C 62.5361 -1.56962 -0.353814 0
M  V30 589 O 63.7281 -1.76156 -0.17267 0
M  V30 590 C 60.8571 -3.43287 -0.0298975 0
M  V30 591 C 59.9431 -4.13288 0.951531 0
M  V30 592 N 60.3341 -4.59271 2.11906 0
M  V30 593 C 58.6321 -4.39165 0.7778 0
M  V30 594 C 59.3331 -5.13173 2.73912 0
M  V30 595 N 58.3091 -5.04763 2.01779 0
M  V30 596 H 62.1111 -2.53089 1.4941 0
M  V30 597 H 59.6251 -1.34465 0.910658 0
M  V30 598 H 61.6221 -4.15334 -0.361037 0
M  V30 599 H 60.2821 -3.11537 -0.915127 0
M  V30 600 H 61.2931 -4.5368 2.49789 0
M  V30 601 H 57.9701 -4.17461 -0.0572331 0
M  V30 602 H 59.3601 -5.58947 3.72864 0
M  V30 603 N 62.0802 -0.821533 -1.34494 0
M  V30 604 C 63.4962 -0.507117 -1.51329 0
M  V30 605 C 63.6962 0.968964 -1.76673 0
M  V30 606 O 62.7522 1.75348 -1.81685 0
M  V30 607 C 64.0652 -1.36544 -2.67911 0
M  V30 608 C 65.6132 -1.36242 -2.81793 0
M  V30 609 C 66.0882 -2.2052 -4.01416 0
M  V30 610 N 67.5792 -2.18136 -4.08621 0
M  V30 611 C 68.3142 -2.80095 -5.00334 0
M  V30 612 N 67.8102 -3.51039 -5.9728 0
M  V30 613 N 69.6032 -2.69656 -4.93196 0
M  V30 614 H 61.7542 -1.77729 -1.16302 0
M  V30 615 H 64.0172 -0.757291 -0.570276 0
M  V30 616 H 63.7232 -2.41361 -2.55808 0
M  V30 617 H 63.5972 -1.02917 -3.62888 0
M  V30 618 H 65.9842 -0.322041 -2.93338 0
M  V30 619 H 66.0652 -1.73866 -1.87628 0
M  V30 620 H 65.7092 -3.24607 -3.90631 0
M  V30 621 H 65.6392 -1.80247 -4.94791 0
M  V30 622 H 68.1302 -1.6653 -3.39229 0
M  V30 623 H 68.4432 -3.95565 -6.63889 0
M  V30 624 H 66.7882 -3.55145 -5.97409 0
M  V30 625 H 69.9792 -2.13808 -4.16418 0
M  V30 626 H 70.1522 -3.1823 -5.64476 0
M  V30 627 N 63.5583 1.46682 -0.576371 0
M  V30 628 C 64.9743 1.57822 -0.237562 0
M  V30 629 C 65.1743 1.57237 1.26011 0
M  V30 630 O 64.2303 1.48596 2.04146 0
M  V30 631 C 65.5433 2.87499 -0.881168 0
M  V30 632 C 67.0913 3.01119 -0.85417 0
M  V30 633 C 67.5663 4.33524 -1.4772 0
M  V30 634 N 69.0573 4.40207 -1.44125 0
M  V30 635 C 69.7923 5.4126 -1.89276 0
M  V30 636 N 69.2883 6.49021 -2.42371 0
M  V30 637 N 71.0813 5.32422 -1.80231 0
M  V30 638 H 63.2323 1.45306 -1.54919 0
M  V30 639 H 65.4953 0.692733 -0.647167 0
M  V30 640 H 65.2013 2.9372 -1.93447 0
M  V30 641 H 65.0753 3.75224 -0.385592 0
M  V30 642 H 67.4623 2.94485 0.190491 0
M  V30 643 H 67.5433 2.14887 -1.3877 0
M  V30 644 H 67.1873 4.40916 -2.52103 0
M  V30 645 H 67.1173 5.1852 -0.918947 0
M  V30 646 H 69.6083 3.62931 -1.05307 0
M  V30 647 H 69.9213 7.2233 -2.74698 0
M  V30 648 H 68.2663 6.49858 -2.46393 0
M  V30 649 H 71.4573 4.47137 -1.38514 0
M  V30 650 H 71.6303 6.11034 -2.15735 0
M  V30 651 N 65.0364 0.313813 1.54444 0
M  V30 652 C 65.9684 -0.590425 2.21465 0
M  V30 653 C 66.9814 -1.08753 1.21147 0
M  V30 654 O 68.1704 -1.00278 1.4767 0
M  V30 655 C 65.2704 -1.82179 2.85769 0
M  V30 656 C 64.4434 -1.46502 4.12136 0
M  V30 657 C 63.5024 -2.55288 4.60124 0
M  V30 658 O 62.5284 -2.19842 5.25032 0
M  V30 659 N 63.7304 -3.86053 4.33525 0
M  V30 660 H 66.4954 -0.0166033 2.99695 0
M  V30 661 H 64.0564 0.136578 1.61323 0
M  V30 662 H 66.0484 -2.54328 3.14801 0
M  V30 663 H 64.6184 -2.30369 2.11303 0
M  V30 664 H 63.8384 -0.575595 3.89975 0
M  V30 665 H 65.1264 -1.20221 4.94393 0
M  V30 666 H 64.5244 -4.17654 3.81552 0
M  V30 667 H 63.0814 -4.54461 4.67235 0
M  V30 668 N 66.5145 -1.57545 0.0417849 0
M  V30 669 C 67.4615 -2.10977 -0.935805 0
M  V30 670 C 68.4315 -1.01486 -1.31491 0
M  V30 671 O 69.6165 -1.2898 -1.40602 0
M  V30 672 C 66.7565 -2.65169 -2.2086 0
M  V30 673 C 65.8695 -3.88714 -1.88482 0
M  V30 674 C 65.0045 -4.31254 -3.1015 0
M  V30 675 C 64.0435 -5.47524 -2.7365 0
M  V30 676 N 63.1805 -5.85162 -3.87982 0
M  V30 677 H 68.0205 -2.94218 -0.473249 0
M  V30 678 H 65.5575 -1.45415 -0.221981 0
M  V30 679 H 67.5155 -2.94685 -2.95325 0
M  V30 680 H 66.1455 -1.8474 -2.64709 0
M  V30 681 H 65.1975 -3.65849 -1.04205 0
M  V30 682 H 66.5095 -4.73245 -1.57608 0
M  V30 683 H 65.6635 -4.62273 -3.92923 0
M  V30 684 H 64.4025 -3.45516 -3.44195 0
M  V30 685 H 63.4075 -5.16187 -1.89291 0
M  V30 686 H 64.6325 -6.34971 -2.40807 0
M  V30 687 H 62.5785 -5.02377 -4.21846 0
M  V30 688 H 62.4955 -6.64362 -3.60775 0
M  V30 689 H 63.7635 -6.20791 -4.71422 0
M  V30 690 N 67.9926 0.231505 -1.5589 0
M  V30 691 C 69.4086 0.580748 -1.48659 0
M  V30 692 C 69.6086 1.87617 -0.73498 0
M  V30 693 O 68.6646 2.51046 -0.270586 0
M  V30 694 C 69.9776 0.669202 -2.93159 0
M  V30 695 C 71.5256 0.760499 -3.03621 0
M  V30 696 C 72.0006 0.880383 -4.49459 0
M  V30 697 N 73.4916 0.944861 -4.53461 0
M  V30 698 C 74.2266 1.05716 -5.63571 0
M  V30 699 N 73.7226 1.13403 -6.83456 0
M  V30 700 N 75.5156 1.09152 -5.514 0
M  V30 701 H 67.6666 -0.618695 -2.03189 0
M  V30 702 H 69.9296 -0.215728 -0.923128 0
M  V30 703 H 69.6356 -0.212904 -3.51055 0
M  V30 704 H 69.5096 1.5361 -3.44505 0
M  V30 705 H 71.8966 1.63305 -2.45796 0
M  V30 706 H 71.9776 -0.131864 -2.5546 0
M  V30 707 H 71.6216 0.0123284 -5.07899 0
M  V30 708 H 71.5516 1.78802 -4.95316 0
M  V30 709 H 74.0426 0.896176 -3.6712 0
M  V30 710 H 74.3556 1.21921 -7.63122 0
M  V30 711 H 72.7006 1.10333 -6.86186 0
M  V30 712 H 75.8916 1.02805 -4.56671 0
M  V30 713 H 76.0646 1.17558 -6.37247 0
M  V30 714 N 69.4707 1.49531 0.497807 0
M  V30 715 C 70.7477 1.49682 1.25915 0
M  V30 716 C 71.1277 0.226339 2.09883 0
M  V30 717 O 70.4757 -0.791189 2.14365 0
M  V30 718 C 70.6857 2.77755 2.11313 0
M  V30 719 C 72.0337 3.27371 2.70395 0
M  V30 720 O 73.0577 2.78894 2.21578 0
M  V30 721 O 71.9167 4.11808 3.59272 0
M  V30 722 H 69.0107 0.599228 0.56996 0
M  V30 723 H 71.5567 1.61798 0.511816 0
M  V30 724 H 70.3287 3.61713 1.49264 0
M  V30 725 H 69.9517 2.68515 2.93233 0
M  V30 726 N 70.9488 -0.749086 1.3866 0
M  V30 727 C 72.1948 -1.50959 1.36319 0
M  V30 728 C 72.5498 -1.92347 -0.0452451 0
M  V30 729 O 71.8428 -1.6289 -1.00884 0
M  V30 730 C 72.0368 -2.7712 2.25697 0
M  V30 731 C 71.8658 -2.48067 3.7509 0
M  V30 732 C 70.6358 -2.41062 4.44091 0
M  V30 733 C 72.8338 -2.14544 4.67414 0
M  V30 734 N 70.8158 -2.04331 5.78897 0
M  V30 735 C 72.1868 -1.88141 5.90765 0
M  V30 736 C 74.2418 -2.00892 4.55573 0
M  V30 737 C 72.9448 -1.49463 7.036 0
M  V30 738 C 74.9708 -1.63616 5.68317 0
M  V30 739 C 74.3328 -1.38088 6.90732 0
M  V30 740 H 70.4318 -0.551804 0.554108 0
M  V30 741 H 73.0158 -0.871886 1.74087 0
M  V30 742 H 71.1868 -3.38693 1.9011 0
M  V30 743 H 72.9188 -3.4321 2.1445 0
M  V30 744 H 69.6738 -2.57685 3.9736 0
M  V30 745 H 70.0978 -1.88598 6.502 0
M  V30 746 H 74.7398 -2.19301 3.61479 0
M  V30 747 H 72.4578 -1.29794 7.97608 0
M  V30 748 H 76.0438 -1.53678 5.61137 0
M  V30 749 H 74.9238 -1.09674 7.76493 0
M  V30 750 N 72.4269 -1.23603 -0.977757 0
M  V30 751 C 73.6759 -1.06377 -1.71368 0
M  V30 752 C 73.9889 0.399062 -1.91486 0
M  V30 753 O 75.1949 0.691312 -2.62551 0
M  V30 754 C 73.6509 -1.85512 -3.08404 0
M  V30 755 C 73.2589 -3.36141 -2.96164 0
M  V30 756 C 75.0029 -1.76783 -3.85938 0
M  V30 757 C 72.9099 -4.07659 -4.28449 0
M  V30 758 H 71.8399 -0.394452 -0.642591 0
M  V30 759 H 74.4909 -1.47594 -1.09034 0
M  V30 760 H 72.8729 -1.37103 -3.71509 0
M  V30 761 H 74.0469 -3.92056 -2.42133 0
M  V30 762 H 72.3619 -3.45712 -2.32104 0
M  V30 763 H 74.9589 -2.27526 -4.83876 0
M  V30 764 H 75.3019 -0.731116 -4.0983 0
M  V30 765 H 75.8349 -2.22818 -3.2954 0
M  V30 766 H 72.5739 -5.11648 -4.09752 0
M  V30 767 H 72.0939 -3.5653 -4.82334 0
M  V30 768 H 73.7729 -4.141 -4.97122 0
M  V30 769 N 73.905 1.17692 -1.04816 0
M  V30 770 C 75.151 1.88389 -0.766892 0
M  V30 771 C 75.506 1.79282 0.698269 0
M  V30 772 O 74.799 1.18739 1.50372 0
M  V30 773 C 74.993 3.37462 -1.17703 0
M  V30 774 C 74.822 3.6108 -2.68051 0
M  V30 775 C 73.592 3.78018 -3.35307 0
M  V30 776 C 75.79 3.61039 -3.66273 0
M  V30 777 N 73.772 3.89444 -4.74559 0
M  V30 778 C 75.143 3.78269 -4.91235 0
M  V30 779 C 77.198 3.44168 -3.59796 0
M  V30 780 C 75.901 3.80376 -6.10497 0
M  V30 781 C 77.927 3.4756 -4.78493 0
M  V30 782 C 77.289 3.65295 -6.02278 0
M  V30 783 H 73.388 0.707651 -0.332798 0
M  V30 784 H 75.972 1.41314 -1.33934 0
M  V30 785 H 74.143 3.83214 -0.63257 0
M  V30 786 H 75.875 3.95759 -0.845989 0
M  V30 787 H 72.63 3.77714 -2.85708 0
M  V30 788 H 73.054 3.98962 -5.46954 0
M  V30 789 H 77.696 3.29396 -2.65062 0
M  V30 790 H 75.414 3.93933 -7.05579 0
M  V30 791 H 79 3.3577 -4.75131 0
M  V30 792 H 77.88 3.6782 -6.92588 0
M  V30 793 N 75.3831 0.828654 1.34056 0
M  V30 794 C 76.3311 0.242973 2.31327 0
M  V30 795 C 77.3251 -0.61944 1.57668 0
M  V30 796 O 78.5311 -0.51014 1.7262 0
M  V30 797 H 74.9061 0.059834 0.749616 0
M  V30 798 H 76.8771 1.07809 2.78244 0
M  V30 799 C 75.6261 -0.575733 3.429 0
M  V30 800 H 74.9491 0.0785582 3.99723 0
M  V30 801 H 76.3891 -0.951547 4.13185 0
M  V30 802 C 74.8481 -1.75044 2.87856 0
M  V30 803 O 75.3781 -2.84882 2.83205 0
M  V30 804 N 73.5841 -1.56903 2.44602 0
M  V30 805 H 73.1311 -0.675547 2.48584 0
M  V30 806 H 73.0891 -2.35652 2.08124 0
M  V30 807 N 76.8612 -1.46375 0.584142 0
M  V30 808 C 77.7932 -2.28443 -0.186119 0
M  V30 809 C 78.8062 -1.38596 -0.854115 0
M  V30 810 O 79.9952 -1.63183 -0.723438 0
M  V30 811 C 77.0952 -3.13671 -1.28311 0
M  V30 812 C 76.2682 -4.31652 -0.706758 0
M  V30 813 C 75.3272 -4.98267 -1.69163 0
M  V30 814 O 74.3532 -5.55815 -1.22712 0
M  V30 815 N 75.5552 -4.95408 -3.02575 0
M  V30 816 H 78.3202 -2.9519 0.517986 0
M  V30 817 H 75.8812 -1.56303 0.42201 0
M  V30 818 H 77.8732 -3.55101 -1.94128 0
M  V30 819 H 76.4432 -2.48989 -1.89005 0
M  V30 820 H 75.6632 -3.93989 0.128908 0
M  V30 821 H 76.9512 -5.07906 -0.301506 0
M  V30 822 H 76.3492 -4.49902 -3.42936 0
M  V30 823 H 74.9062 -5.40774 -3.63877 0
M  V30 824 N 78.3393 -0.321999 -1.54275 0
M  V30 825 C 79.2723 0.58718 -2.20516 0
M  V30 826 C 80.2503 1.11693 -1.18167 0
M  V30 827 O 81.4343 1.18122 -1.46899 0
M  V30 828 C 78.5613 1.80554 -2.86562 0
M  V30 829 C 77.6073 1.40718 -4.02617 0
M  V30 830 S 78.4403 0.445218 -5.33646 0
M  V30 831 C 79.5963 1.6709 -6.03185 0
M  V30 832 H 79.8293 0.0244875 -2.9729 0
M  V30 833 H 77.3623 -0.106087 -1.54035 0
M  V30 834 H 79.3203 2.50462 -3.25237 0
M  V30 835 H 77.9813 2.33942 -2.09595 0
M  V30 836 H 77.1743 2.31501 -4.47687 0
M  V30 837 H 76.7763 0.78782 -3.65608 0
M  V30 838 H 79.0683 2.60856 -6.25268 0
M  V30 839 H 80.0113 1.26239 -6.96756 0
M  V30 840 H 80.4193 1.85716 -5.33076 0
M  V30 841 N 79.8174 1.5752 -0.0501392 0
M  V30 842 C 80.7674 2.07981 0.934231 0
M  V30 843 C 81.7514 0.984745 1.27246 0
M  V30 844 O 82.9434 1.24809 1.25506 0
M  V30 845 C 80.0724 2.62751 2.20945 0
M  V30 846 C 79.1584 3.79225 1.89865 0
M  V30 847 N 79.5494 4.89036 1.29142 0
M  V30 848 C 77.8474 3.88111 2.19741 0
M  V30 849 C 78.5484 5.70084 1.15669 0
M  V30 850 N 77.5244 5.17659 1.65923 0
M  V30 851 H 81.3264 2.90277 0.460053 0
M  V30 852 H 78.8404 1.61665 0.15434 0
M  V30 853 H 80.8374 2.97205 2.9236 0
M  V30 854 H 79.4974 1.81894 2.6897 0
M  V30 855 H 80.5084 5.08854 0.963756 0
M  V30 856 H 77.1854 3.18194 2.70293 0
M  V30 857 H 78.5754 6.68395 0.685356 0
M  V30 858 N 81.2955 -0.223234 1.56011 0
M  V30 859 C 82.5445 -0.945912 1.78144 0
M  V30 860 C 82.8575 -1.85567 0.618396 0
M  V30 861 O 84.0635 -2.61688 0.723318 0
M  V30 862 C 82.5195 -1.73216 3.15475 0
M  V30 863 C 82.1275 -0.868619 4.39499 0
M  V30 864 C 83.8715 -2.44615 3.46935 0
M  V30 865 C 81.7785 -1.65212 5.67855 0
M  V30 866 H 80.7085 -0.356929 0.664167 0
M  V30 867 H 83.3595 -0.199845 1.82409 0
M  V30 868 H 81.7415 -2.52107 3.05382 0
M  V30 869 H 82.9155 -0.120366 4.60643 0
M  V30 870 H 81.2305 -0.26683 4.15544 0
M  V30 871 H 83.8275 -3.03732 4.40058 0
M  V30 872 H 84.1705 -3.17417 2.69355 0
M  V30 873 H 84.7035 -1.72715 3.58349 0
M  V30 874 H 81.4425 -0.967407 6.48322 0
M  V30 875 H 80.9625 -2.37503 5.50774 0
M  V30 876 H 82.6415 -2.21322 6.07968 0
M  V30 877 N 82.7736 -1.49793 -0.48987 0
M  V30 878 C 84.0506 -1.50348 -1.25119 0
M  V30 879 C 84.4306 -0.237466 -2.0976 0
M  V30 880 O 83.7786 0.77981 -2.14782 0
M  V30 881 C 83.9886 -2.78872 -2.09837 0
M  V30 882 C 85.3366 -3.288 -2.68655 0
M  V30 883 O 86.3606 -2.80065 -2.20096 0
M  V30 884 O 85.2196 -4.13707 -3.57083 0
M  V30 885 H 82.3136 -0.602242 -0.566775 0
M  V30 886 H 84.8596 -1.62067 -0.503229 0
M  V30 887 H 83.6316 -3.62499 -1.47343 0
M  V30 888 H 83.2546 -2.70066 -2.91805 0
M  V30 889 N 84.2517 0.741722 -1.39055 0
M  V30 890 C 85.1617 1.88621 -1.39496 0
M  V30 891 C 86.1777 1.71557 -0.290578 0
M  V30 892 O 87.3537 1.94275 -0.530954 0
M  V30 893 C 84.4187 3.24134 -1.23037 0
M  V30 894 C 83.4797 3.5364 -2.43387 0
M  V30 895 C 82.7127 4.82687 -2.27703 0
M  V30 896 O 82.9357 5.55922 -1.27696 0
M  V30 897 O 81.8697 5.1194 -3.16545 0
M  V30 898 H 85.6957 1.91203 -2.35956 0
M  V30 899 H 83.2807 0.888625 -1.20099 0
M  V30 900 H 85.1627 4.0513 -1.15964 0
M  V30 901 H 83.8377 3.22337 -0.296691 0
M  V30 902 H 82.7447 2.72758 -2.56035 0
M  V30 903 H 84.0777 3.60209 -3.35425 0
M  V30 904 N 85.7298 1.2412 0.971189 0
M  V30 905 C 86.6398 1.04747 2.09917 0
M  V30 906 C 87.6558 -0.0107162 1.73997 0
M  V30 907 O 88.8318 0.186714 2.00533 0
M  V30 908 C 85.8968 0.650828 3.40537 0
M  V30 909 C 84.9578 1.7851 3.90426 0
M  V30 910 C 84.1908 1.40729 5.14812 0
M  V30 911 O 84.4138 0.29557 5.69634 0
M  V30 912 O 83.3478 2.23168 5.58999 0
M  V30 913 H 87.1738 1.99304 2.29154 0
M  V30 914 H 84.7588 1.02908 1.08307 0
M  V30 915 H 86.6408 0.440992 4.19086 0
M  V30 916 H 85.3158 -0.265649 3.22608 0
M  V30 917 H 84.2228 2.04966 3.12953 0
M  V30 918 H 85.5558 2.68023 4.12825 0
M  V30 919 N 87.2079 -1.17134 1.05439 0
M  V30 920 C 88.1549 -2.21235 0.657539 0
M  V30 921 C 89.1249 -1.62551 -0.341543 0
M  V30 922 O 90.3099 -1.89379 -0.232393 0
M  V30 923 C 87.4499 -3.45076 0.0410575 0
M  V30 924 C 86.5629 -4.18042 1.08927 0
M  V30 925 C 85.6979 -5.29376 0.439848 0
M  V30 926 C 84.7369 -5.94132 1.4722 0
M  V30 927 N 83.8739 -6.96975 0.846756 0
M  V30 928 H 88.7139 -2.54534 1.54972 0
M  V30 929 H 86.2509 -1.25028 0.775006 0
M  V30 930 H 88.2089 -4.15862 -0.33383 0
M  V30 931 H 86.8389 -3.12353 -0.814568 0
M  V30 932 H 85.8909 -3.45945 1.58196 0
M  V30 933 H 87.2029 -4.62306 1.87282 0
M  V30 934 H 86.3569 -6.06699 0.0115125 0
M  V30 935 H 85.0959 -4.86251 -0.375656 0
M  V30 936 H 84.1009 -5.15538 1.91052 0
M  V30 937 H 85.3259 -6.39337 2.28965 0
M  V30 938 H 83.2719 -6.5598 0.0518075 0
M  V30 939 H 83.1889 -7.39565 1.5678 0
M  V30 940 H 84.4569 -7.78239 0.443277 0
M  V30 941 N 88.686 -0.835752 -1.33615 0
M  V30 942 C 89.634 -0.255238 -2.31195 0
M  V30 943 C 90.628 0.61107 -1.57995 0
M  V30 944 O 91.834 0.500979 -1.72888 0
M  V30 945 H 88.209 -0.0638085 -0.749288 0
M  V30 946 H 90.18 -1.09283 -2.77669 0
M  V30 947 C 88.929 0.55754 -3.43201 0
M  V30 948 H 88.252 -0.0997553 -3.99676 0
M  V30 949 H 89.692 0.929622 -4.13683 0
M  V30 950 C 88.151 1.73515 -2.88781 0
M  V30 951 O 88.681 2.83376 -2.84712 0
M  V30 952 N 86.887 1.55603 -2.4543 0
M  V30 953 H 86.434 0.662354 -2.48939 0
M  V30 954 H 86.392 2.34545 -2.09371 0
M  V30 955 N 90.1641 1.46063 -0.591896 0
M  V30 956 C 91.3921 2.06717 -0.0868936 0
M  V30 957 C 91.8071 1.43916 1.22203 0
M  V30 958 O 91.1641 0.547698 1.74088 0
M  V30 959 C 91.2151 3.6142 0.0758725 0
M  V30 960 O 90.9361 4.21874 -1.18126 0
M  V30 961 C 92.4371 4.39025 0.61416 0
M  V30 962 H 89.6571 0.668162 -0.0616518 0
M  V30 963 H 92.2011 1.8755 -0.815175 0
M  V30 964 H 90.3561 3.79983 0.754413 0
M  V30 965 H 90.7701 5.14861 -1.00092 0
M  V30 966 H 92.2441 5.4783 0.677193 0
M  V30 967 H 92.7211 4.07708 1.63312 0
M  V30 968 H 93.3271 4.2529 -0.0298142 0
M  V30 969 N 91.6422 0.330177 1.54103 0
M  V30 970 C 92.8672 -0.274893 2.0557 0
M  V30 971 C 93.2922 -1.44487 1.20437 0
M  V30 972 O 92.6502 -1.80021 0.214991 0
M  V30 973 C 92.6982 -0.68079 3.54115 0
M  V30 974 O 91.8022 -1.7824 3.71893 0
M  V30 975 H 91.1432 -0.0483849 0.662235 0
M  V30 976 H 93.6732 0.480508 1.98878 0
M  V30 977 H 93.6832 -0.961635 3.96505 0
M  V30 978 H 92.3582 0.174903 4.15532 0
M  V30 979 H 90.9352 -1.49985 3.41407 0
M  V30 980 N 93.1203 -1.57491 0.0584922 0
M  V30 981 C 94.0503 -2.14988 -0.911178 0
M  V30 982 C 95.0313 -1.07343 -1.31952 0
M  V30 983 O 96.2163 -1.35318 -1.39294 0
M  V30 984 C 93.3463 -2.70078 -2.18347 0
M  V30 985 C 92.3003 -3.82771 -1.91495 0
M  V30 986 C 91.6263 -4.24408 -3.25241 0
M  V30 987 C 92.9263 -5.07592 -1.23075 0
M  V30 988 H 94.6203 -2.96263 -0.432246 0
M  V30 989 H 92.1663 -1.42512 -0.206469 0
M  V30 990 H 94.1193 -3.08943 -2.86587 0
M  V30 991 H 92.8433 -1.86005 -2.68458 0
M  V30 992 H 91.5023 -3.44389 -1.25664 0
M  V30 993 H 91.1503 -3.37275 -3.73168 0
M  V30 994 H 90.8503 -5.00366 -3.08071 0
M  V30 995 H 92.3743 -4.65879 -3.94701 0
M  V30 996 H 93.7883 -5.43857 -1.81362 0
M  V30 997 H 92.1853 -5.88741 -1.16207 0
M  V30 998 H 93.2553 -4.84454 -0.207847 0
M  V30 999 N 94.5984 0.214957 -1.56127 0
M  V30 1000 C 96.0094 0.781386 -1.69562 0
M  V30 1001 C 96.3604 1.84707 -0.66165 0
M  V30 1002 O 95.4854 2.156 0.185927 0
M  V30 1003 C 96.0804 1.42411 -3.07416 0
M  V30 1004 C 94.6394 1.93786 -3.22683 0
M  V30 1005 C 93.7864 0.800438 -2.65496 0
M  V30 1006 H 96.7374 -0.00980633 -1.58697 0
M  V30 1007 H 96.7584 2.29309 -3.0364 0
M  V30 1008 H 96.2704 0.64826 -3.82648 0
M  V30 1009 H 94.3714 2.74152 -2.52332 0
M  V30 1010 H 94.4844 2.1133 -4.29973 0
M  V30 1011 H 92.8484 1.2095 -2.2415 0
M  V30 1012 H 93.6314 0.0371471 -3.4328 0
M  V30 1013 N 96.0765 1.50051 0.48192 0
M  V30 1014 C 97.0265 1.64512 1.5786 0
M  V30 1015 C 98.0105 0.500073 1.52932 0
M  V30 1016 O 99.2025 0.753964 1.60139 0
M  V30 1017 C 96.3315 1.73263 2.9637 0
M  V30 1018 C 95.4175 2.93409 3.06222 0
M  V30 1019 N 95.8085 4.17236 2.85915 0
M  V30 1020 C 94.1065 2.91742 3.37346 0
M  V30 1021 C 94.8075 4.981 3.00451 0
M  V30 1022 N 93.7835 4.3184 3.30174 0
M  V30 1023 H 97.5855 2.57955 1.40842 0
M  V30 1024 H 95.0995 1.47086 0.688439 0
M  V30 1025 H 97.0965 1.81724 3.75209 0
M  V30 1026 H 95.7565 0.809711 3.14442 0
M  V30 1027 H 96.7675 4.46909 2.6171 0
M  V30 1028 H 93.4445 2.08907 3.61475 0
M  V30 1029 H 94.8345 6.06532 2.89082 0
M  V30 1030 N 97.5546 -0.734337 1.39446 0
M  V30 1031 C 98.5046 -1.83949 1.34709 0
M  V30 1032 C 99.4886 -1.59279 0.227851 0
M  V30 1033 O 100.681 -1.70771 0.465438 0
M  V30 1034 C 97.8096 -3.21884 1.19356 0
M  V30 1035 C 96.8956 -3.52381 2.35984 0
M  V30 1036 N 97.2866 -3.53811 3.61457 0
M  V30 1037 C 95.5846 -3.82747 2.28956 0
M  V30 1038 C 96.2856 -3.82122 4.38586 0
M  V30 1039 N 95.2616 -3.9993 3.68181 0
M  V30 1040 H 99.0636 -1.83361 2.29687 0
M  V30 1041 H 96.5776 -0.932609 1.32952 0
M  V30 1042 H 98.5746 -4.00998 1.14046 0
M  V30 1043 H 97.2346 -3.23711 0.253295 0
M  V30 1044 H 98.2456 -3.35107 3.94872 0
M  V30 1045 H 94.9226 -3.92175 1.43194 0
M  V30 1046 H 96.3126 -3.89691 5.47349 0
M  V30 1047 N 99.0327 -1.24633 -0.964593 0
M  V30 1048 C 100.279 -1.08949 -1.71049 0
M  V30 1049 C 100.612 0.370302 -1.90637 0
M  V30 1050 O 99.8867 1.27349 -1.47011 0
M  V30 1051 C 100.17 -1.83329 -3.0994 0
M  V30 1052 C 100.023 -3.37077 -2.97824 0
M  V30 1053 C 101.342 -1.60846 -4.09654 0
M  V30 1054 H 98.4607 -0.397178 -0.620821 0
M  V30 1055 H 101.103 -1.5334 -1.12191 0
M  V30 1056 H 99.2527 -1.45597 -3.60186 0
M  V30 1057 H 100.925 -3.84425 -2.5498 0
M  V30 1058 H 99.1677 -3.65298 -2.33965 0
M  V30 1059 H 99.8387 -3.84324 -3.96231 0
M  V30 1060 H 102.315 -1.93674 -3.68279 0
M  V30 1061 H 101.191 -2.1534 -5.04896 0
M  V30 1062 H 101.452 -0.547434 -4.38698 0
M  V30 1063 N 100.511 1.16574 -1.06058 0
M  V30 1064 C 101.759 1.86677 -0.77434 0
M  V30 1065 C 102.08 1.81959 0.701147 0
M  V30 1066 O 101.35 1.2515 1.50713 0
M  V30 1067 H 99.9298 0.691134 -0.283449 0
M  V30 1068 H 102.592 1.41378 -1.34158 0
M  V30 1069 H 101.688 2.92181 -1.09711 0
M  V30 1070 N 101.989 0.842826 1.3317 0
M  V30 1071 C 102.936 0.276885 2.29133 0
M  V30 1072 C 103.906 -0.609527 1.54512 0
M  V30 1073 O 105.091 -0.546955 1.82792 0
M  V30 1074 C 102.231 -0.538707 3.40869 0
M  V30 1075 C 101.344 0.372169 4.30394 0
M  V30 1076 C 100.479 -0.454908 5.29249 0
M  V30 1077 C 99.5179 0.45411 6.10413 0
M  V30 1078 N 98.6549 -0.335075 7.013 0
M  V30 1079 H 103.495 1.10052 2.76934 0
M  V30 1080 H 101.032 0.554161 1.36262 0
M  V30 1081 H 102.99 -1.02709 4.0436 0
M  V30 1082 H 101.62 -1.32727 2.9425 0
M  V30 1083 H 100.672 0.97888 3.6759 0
M  V30 1084 H 101.984 1.0703 4.87182 0
M  V30 1085 H 101.138 -1.00695 5.98285 0
M  V30 1086 H 99.8769 -1.18646 4.73048 0
M  V30 1087 H 98.8819 1.01813 5.40291 0
M  V30 1088 H 100.107 1.18409 6.68697 0
M  V30 1089 H 98.0529 -1.04994 6.47543 0
M  V30 1090 H 97.9699 0.304262 7.55387 0
M  V30 1091 H 99.2379 -0.869224 7.74638 0
M  V30 1092 N 103.467 -1.45747 0.599634 0
M  V30 1093 C 104.716 -2.01502 0.0893511 0
M  V30 1094 C 105.029 -1.4748 -1.28488 0
M  V30 1095 O 106.235 -1.95161 -1.88745 0
M  V30 1096 C 104.691 -3.59735 0.109082 0
M  V30 1097 C 104.299 -4.22754 1.48267 0
M  V30 1098 C 106.043 -4.23085 -0.346374 0
M  V30 1099 C 103.95 -5.73115 1.45921 0
M  V30 1100 H 102.88 -0.753417 0.0296347 0
M  V30 1101 H 105.531 -1.67303 0.753788 0
M  V30 1102 H 103.913 -3.91087 -0.621854 0
M  V30 1103 H 105.087 -4.02987 2.23468 0
M  V30 1104 H 103.402 -3.71567 1.87955 0
M  V30 1105 H 105.999 -5.33327 -0.38298 0
M  V30 1106 H 106.342 -3.93201 -1.36743 0
M  V30 1107 H 106.875 -3.9642 0.331038 0
M  V30 1108 H 103.614 -6.07685 2.45762 0
M  V30 1109 H 103.134 -5.95097 0.749665 0
M  V30 1110 H 104.813 -6.3616 1.17941 0
M  V30 1111 N 104.945 -0.338344 -1.53925 0
M  V30 1112 C 105.892 0.520845 -2.24846 0
M  V30 1113 C 106.862 1.09976 -1.24477 0
M  V30 1114 O 108.047 1.13735 -1.53196 0
M  V30 1115 C 105.187 1.6685 -3.02084 0
M  V30 1116 C 104.3 1.11739 -4.17299 0
M  V30 1117 C 103.435 2.23193 -4.82036 0
M  V30 1118 C 102.474 1.65407 -5.89328 0
M  V30 1119 N 101.611 2.70582 -6.47866 0
M  V30 1120 H 106.451 -0.0904881 -2.97863 0
M  V30 1121 H 103.988 -0.0564282 -1.46992 0
M  V30 1122 H 105.946 2.34407 -3.45122 0
M  V30 1123 H 104.576 2.2509 -2.31375 0
M  V30 1124 H 103.628 0.332919 -3.7894 0
M  V30 1125 H 104.94 0.654677 -4.94485 0
M  V30 1126 H 104.094 2.98626 -5.28117 0
M  V30 1127 H 102.833 2.72807 -4.04262 0
M  V30 1128 H 101.838 0.884779 -5.42634 0
M  V30 1129 H 103.063 1.16652 -6.69006 0
M  V30 1130 H 101.009 3.1946 -5.72959 0
M  V30 1131 H 100.926 2.28917 -7.20509 0
M  V30 1132 H 102.194 3.45799 -6.98601 0
M  V30 1133 N 106.423 1.57458 -0.0668435 0
M  V30 1134 C 107.648 1.9804 0.616027 0
M  V30 1135 C 108.073 0.944771 1.62652 0
M  V30 1136 O 107.431 -0.0902094 1.81075 0
M  V30 1137 C 107.479 3.37665 1.26549 0
M  V30 1138 O 106.583 3.36701 2.38131 0
M  V30 1139 H 105.924 0.644719 0.158849 0
M  V30 1140 H 108.454 2.04121 -0.139891 0
M  V30 1141 H 108.464 3.7474 1.6135 0
M  V30 1142 H 107.139 4.12573 0.525016 0
M  V30 1143 H 105.716 3.1139 2.0516 0
M  V30 1144 N 107.901 -0.206675 1.56239 0
M  V30 1145 C 109.126 -0.949474 1.8439 0
M  V30 1146 C 109.551 -1.76549 0.649016 0
M  V30 1147 O 108.909 -1.76782 -0.402231 0
M  V30 1148 C 108.957 -1.83078 3.10668 0
M  V30 1149 O 108.061 -2.9281 2.90407 0
M  V30 1150 H 107.402 -0.268033 0.607499 0
M  V30 1151 H 109.932 -0.215488 2.03462 0
M  V30 1152 H 109.942 -2.2377 3.41161 0
M  V30 1153 H 108.617 -1.23112 3.97261 0
M  V30 1154 H 107.194 -2.55956 2.71184 0
M  V30 1155 N 109.379 -1.50304 -0.473955 0
M  V30 1156 C 110.625 -1.61389 -1.22806 0
M  V30 1157 C 110.958 -0.311955 -1.91678 0
M  V30 1158 O 110.233 0.686384 -1.81986 0
M  V30 1159 C 110.516 -2.79219 -2.27396 0
M  V30 1160 C 110.369 -4.19286 -1.62848 0
M  V30 1161 C 111.688 -2.92614 -3.28732 0
M  V30 1162 H 108.807 -0.587399 -0.445119 0
M  V30 1163 H 111.449 -1.82681 -0.522265 0
M  V30 1164 H 109.599 -2.61195 -2.87592 0
M  V30 1165 H 111.271 -4.48892 -1.06271 0
M  V30 1166 H 109.514 -4.23677 -0.931693 0
M  V30 1167 H 110.185 -4.97655 -2.38838 0
M  V30 1168 H 112.661 -3.09105 -2.78556 0
M  V30 1169 H 111.537 -3.76688 -3.99246 0
M  V30 1170 H 111.798 -2.03107 -3.92683 0
M  V30 1171 N 110.857 0.726932 -1.39834 0
M  V30 1172 C 112.082 1.52121 -1.40976 0
M  V30 1173 C 112.507 1.88098 -0.00826029 0
M  V30 1174 O 111.865 1.52479 0.980807 0
M  V30 1175 C 111.913 2.78021 -2.29644 0
M  V30 1176 O 111.017 3.74272 -1.73188 0
M  V30 1177 H 110.358 0.45908 -0.479731 0
M  V30 1178 H 112.888 0.896207 -1.83927 0
M  V30 1179 H 112.898 3.26671 -2.44438 0
M  V30 1180 H 111.573 2.51169 -3.31492 0
M  V30 1181 H 110.15 3.33073 -1.6768 0
M  V30 1182 N 112.336 1.25143 0.95797 0
M  V30 1183 C 113.752 1.01892 1.22842 0
M  V30 1184 C 113.952 -0.266311 1.99732 0
M  V30 1185 O 113.008 -0.979913 2.3271 0
M  V30 1186 C 114.321 2.24004 2.00606 0
M  V30 1187 C 115.869 2.28731 2.13662 0
M  V30 1188 C 116.344 3.5049 2.94823 0
M  V30 1189 N 117.835 3.50866 3.02403 0
M  V30 1190 C 118.57 4.4174 3.65586 0
M  V30 1191 N 118.066 5.42882 4.30408 0
M  V30 1192 N 119.859 4.29429 3.62694 0
M  V30 1193 H 112.01 2.07718 0.443493 0
M  V30 1194 H 114.273 0.912031 0.258657 0
M  V30 1195 H 113.979 3.17395 1.51503 0
M  V30 1196 H 113.853 2.26907 3.01319 0
M  V30 1197 H 116.24 1.35865 2.61963 0
M  V30 1198 H 116.321 2.29848 1.12265 0
M  V30 1199 H 115.965 4.43676 2.47213 0
M  V30 1200 H 115.895 3.46617 3.96439 0
M  V30 1201 H 118.386 2.777 2.56302 0
M  V30 1202 H 118.699 6.0844 4.76467 0
M  V30 1203 H 117.044 5.46758 4.29047 0
M  V30 1204 H 120.235 3.49643 3.11236 0
M  V30 1205 H 120.408 5.00448 4.1165 0
M  V30 1206 N 113.814 -1.1601 1.06675 0
M  V30 1207 C 114.761 -2.20525 0.680967 0
M  V30 1208 C 115.731 -1.62904 -0.324283 0
M  V30 1209 O 116.916 -1.89615 -0.212294 0
M  V30 1210 C 114.056 -3.45013 0.0776551 0
M  V30 1211 C 113.169 -4.16863 1.13355 0
M  V30 1212 C 112.304 -5.2888 0.49597 0
M  V30 1213 C 111.343 -5.92537 1.53513 0
M  V30 1214 N 110.48 -6.96038 0.920631 0
M  V30 1215 H 115.32 -2.52876 1.57663 0
M  V30 1216 H 112.857 -1.24199 0.788223 0
M  V30 1217 H 114.815 -4.16193 -0.289704 0
M  V30 1218 H 113.445 -3.132 -0.781393 0
M  V30 1219 H 112.497 -3.44248 1.61857 0
M  V30 1220 H 113.809 -4.60294 1.92174 0
M  V30 1221 H 112.963 -6.06653 0.0758604 0
M  V30 1222 H 111.702 -4.86622 -0.324062 0
M  V30 1223 H 110.707 -5.13482 1.9651 0
M  V30 1224 H 111.932 -6.36873 2.35733 0
M  V30 1225 H 109.878 -6.55888 0.12138 0
M  V30 1226 H 109.795 -7.3786 1.64616 0
M  V30 1227 H 111.063 -7.77725 0.525795 0
M  V30 1228 N 115.292 -0.849877 -1.32721 0
M  V30 1229 C 116.24 -0.279745 -2.30912 0
M  V30 1230 C 117.234 0.594278 -1.58634 0
M  V30 1231 O 118.44 0.482613 -1.73409 0
M  V30 1232 H 114.815 -0.0717521 -0.748569 0
M  V30 1233 H 116.786 -1.12222 -2.76494 0
M  V30 1234 C 115.535 0.521108 -3.43773 0
M  V30 1235 H 114.858 -0.142141 -3.99547 0
M  V30 1236 H 116.298 0.885693 -4.14646 0
M  V30 1237 C 114.757 1.70442 -2.90605 0
M  V30 1238 O 115.287 2.8034 -2.87702 0
M  V30 1239 N 113.493 1.52991 -2.47067 0
M  V30 1240 H 113.04 0.635914 -2.49628 0
M  V30 1241 H 112.998 2.32311 -2.11847 0
M  V30 1242 N 116.77 1.45427 -0.607355 0
M  V30 1243 C 117.733 2.28974 0.101693 0
M  V30 1244 C 118.733 1.39754 0.795329 0
M  V30 1245 O 119.923 1.61878 0.643527 0
M  V30 1246 C 117.055 3.20768 1.15414 0
M  V30 1247 H 118.248 2.93147 -0.632844 0
M  V30 1248 H 115.801 1.51945 -0.366391 0
M  V30 1249 H 116.536 2.61395 1.91945 0
M  V30 1250 H 116.321 3.86489 0.66098 0
M  V30 1251 H 117.811 3.83589 1.65073 0
M  V30 1252 N 118.248 0.346503 1.53744 0
M  V30 1253 C 119.195 -0.508914 2.25119 0
M  V30 1254 C 120.165 -1.09315 1.25058 0
M  V30 1255 O 121.35 -1.12921 1.53797 0
M  V30 1256 C 118.49 -1.65246 3.02965 0
M  V30 1257 C 117.603 -1.09525 4.17886 0
M  V30 1258 C 116.738 -2.20634 4.83212 0
M  V30 1259 C 115.777 -1.62279 5.90196 0
M  V30 1260 N 114.914 -2.67143 6.49291 0
M  V30 1261 H 119.754 0.106283 2.9781 0
M  V30 1262 H 117.291 0.0642227 1.4696 0
M  V30 1263 H 119.249 -2.32574 3.4636 0
M  V30 1264 H 117.879 -2.2386 2.32565 0
M  V30 1265 H 116.931 -0.312818 3.79112 0
M  V30 1266 H 118.243 -0.628444 4.94825 0
M  V30 1267 H 117.397 -2.95821 5.29693 0
M  V30 1268 H 116.136 -2.70659 4.05703 0
M  V30 1269 H 115.141 -0.855989 5.43096 0
M  V30 1270 H 116.366 -1.13102 6.69615 0
M  V30 1271 H 114.312 -3.16417 5.74645 0
M  V30 1272 H 114.229 -2.25093 7.21713 0
M  V30 1273 H 115.497 -3.4209 7.00425 0
M  V30 1274 N 119.726 -1.57421 0.075193 0
M  V30 1275 C 120.956 -1.97659 -0.601203 0
M  V30 1276 C 121.364 -0.952427 -1.63479 0
M  V30 1277 O 120.707 0.0688241 -1.83571 0
M  V30 1278 C 120.769 -3.34218 -1.32434 0
M  V30 1279 C 120.433 -4.5484 -0.443826 0
M  V30 1280 C 121.43 -5.19034 0.299969 0
M  V30 1281 C 119.115 -5.00952 -0.367709 0
M  V30 1282 C 121.109 -6.27695 1.10807 0
M  V30 1283 C 118.796 -6.09484 0.444058 0
M  V30 1284 C 119.794 -6.72719 1.18061 0
M  V30 1285 O 119.482 -7.79161 1.97898 0
M  V30 1286 H 119.214 -0.65494 -0.167422 0
M  V30 1287 H 121.768 -2.04886 0.145157 0
M  V30 1288 H 119.998 -3.23615 -2.11685 0
M  V30 1289 H 121.687 -3.59038 -1.89331 0
M  V30 1290 H 122.453 -4.84351 0.250776 0
M  V30 1291 H 118.332 -4.51509 -0.930638 0
M  V30 1292 H 121.876 -6.76982 1.68347 0
M  V30 1293 H 117.773 -6.43601 0.494803 0
M  V30 1294 H 118.541 -7.96055 1.90367 0
M  V30 1295 N 121.204 0.198386 -1.56346 0
M  V30 1296 C 122.134 1.24865 -1.9731 0
M  V30 1297 C 123.115 1.47651 -0.844576 0
M  V30 1298 O 124.3 1.59444 -1.10866 0
M  V30 1299 C 121.43 2.59358 -2.30977 0
M  V30 1300 C 120.384 2.5119 -3.46537 0
M  V30 1301 C 119.71 3.89926 -3.65871 0
M  V30 1302 C 121.01 2.03977 -4.80823 0
M  V30 1303 H 122.704 0.908252 -2.85291 0
M  V30 1304 H 120.25 0.435462 -1.37258 0
M  V30 1305 H 122.203 3.33011 -2.58228 0
M  V30 1306 H 120.927 2.95132 -1.39874 0
M  V30 1307 H 119.586 1.79993 -3.19371 0
M  V30 1308 H 119.234 4.23046 -2.72105 0
M  V30 1309 H 118.934 3.85336 -4.4361 0
M  V30 1310 H 120.458 4.65205 -3.95495 0
M  V30 1311 H 121.872 2.67386 -5.07127 0
M  V30 1312 H 120.269 2.10397 -5.62008 0
M  V30 1313 H 121.339 0.992861 -4.74626 0
M  V30 1314 N 122.682 1.50554 0.465978 0
M  V30 1315 C 123.612 1.72722 1.57128 0
M  V30 1316 C 124.593 0.576294 1.6004 0
M  V30 1317 O 125.778 0.81598 1.76225 0
M  V30 1318 C 122.908 1.82605 2.95419 0
M  V30 1319 C 121.862 2.97835 3.07373 0
M  V30 1320 C 121.188 2.92867 4.47363 0
M  V30 1321 C 122.488 4.38265 2.84114 0
M  V30 1322 H 124.182 2.65267 1.38829 0
M  V30 1323 H 121.728 1.2765 0.666441 0
M  V30 1324 H 123.681 1.96698 3.72677 0
M  V30 1325 H 122.405 0.866858 3.14886 0
M  V30 1326 H 121.064 2.83401 2.3255 0
M  V30 1327 H 120.712 1.94783 4.63755 0
M  V30 1328 H 120.412 3.70227 4.56296 0
M  V30 1329 H 121.936 3.09015 5.26633 0
M  V30 1330 H 123.35 4.53198 3.51118 0
M  V30 1331 H 121.747 5.17115 3.04487 0
M  V30 1332 H 122.817 4.50281 1.7993 0
M  V30 1333 N 124.16 -0.719506 1.40217 0
M  V30 1334 C 125.107 -1.83359 1.40172 0
M  V30 1335 C 126.077 -1.64065 0.259206 0
M  V30 1336 O 127.262 -1.85254 0.456677 0
M  V30 1337 C 124.402 -3.2103 1.26624 0
M  V30 1338 C 123.515 -3.51923 2.50548 0
M  V30 1339 C 122.65 -4.79079 2.29471 0
M  V30 1340 C 121.689 -5.02863 3.48992 0
M  V30 1341 N 120.826 -6.2123 3.27135 0
M  V30 1342 H 125.666 -1.82733 2.35399 0
M  V30 1343 H 123.203 -0.892688 1.16917 0
M  V30 1344 H 125.161 -4.00524 1.16776 0
M  V30 1345 H 123.791 -3.20895 0.350176 0
M  V30 1346 H 122.843 -2.67014 2.70939 0
M  V30 1347 H 124.155 -3.6541 3.39525 0
M  V30 1348 H 123.309 -5.66582 2.16955 0
M  V30 1349 H 122.048 -4.67794 1.37913 0
M  V30 1350 H 121.053 -4.13816 3.6199 0
M  V30 1351 H 122.278 -5.16023 4.41472 0
M  V30 1352 H 120.224 -6.11204 2.38256 0
M  V30 1353 H 120.141 -6.35375 4.09675 0
M  V30 1354 H 121.409 -7.11532 3.18344 0
M  V30 1355 N 125.638 -1.25649 -0.95132 0
M  V30 1356 C 126.886 -1.10375 -1.69298 0
M  V30 1357 C 127.207 0.355339 -1.91735 0
M  V30 1358 O 126.477 1.25188 -1.50681 0
M  V30 1359 H 125.057 -0.405461 -0.627384 0
M  V30 1360 H 127.719 -1.57823 -1.14358 0
M  V30 1361 H 126.815 -1.61465 -2.67087 0
M  V30 1362 N 127.117 1.15442 -1.07289 0
M  V30 1363 C 128.027 2.23786 -0.704057 0
M  V30 1364 C 129.043 1.7166 0.284413 0
M  V30 1365 O 130.219 2.00972 0.131205 0
M  V30 1366 C 127.284 3.46535 -0.106792 0
M  V30 1367 C 126.345 4.13654 -1.14842 0
M  V30 1368 C 125.578 5.30544 -0.57956 0
M  V30 1369 O 125.801 5.67187 0.604585 0
M  V30 1370 O 124.735 5.87154 -1.32414 0
M  V30 1371 H 128.561 2.57664 -1.60757 0
M  V30 1372 H 126.146 1.23152 -0.845803 0
M  V30 1373 H 128.028 4.20804 0.224048 0
M  V30 1374 H 126.703 3.14407 0.770049 0
M  V30 1375 H 125.61 3.4131 -1.5316 0
M  V30 1376 H 126.943 4.49861 -1.99714 0
M  V30 1377 N 128.595 0.856903 1.32268 0
M  V30 1378 C 129.825 0.47475 2.01071 0
M  V30 1379 C 130.233 -0.933746 1.64553 0
M  V30 1380 O 129.576 -1.62114 0.863989 0
M  V30 1381 C 129.638 0.536746 3.55471 0
M  V30 1382 C 129.302 1.90453 4.15423 0
M  V30 1383 C 130.299 2.87029 4.33486 0
M  V30 1384 C 127.984 2.20229 4.51447 0
M  V30 1385 C 129.978 4.11532 4.86744 0
M  V30 1386 C 127.665 3.44984 5.0441 0
M  V30 1387 C 128.663 4.40452 5.22007 0
M  V30 1388 O 128.351 5.62998 5.73837 0
M  V30 1389 H 128.083 0.184778 0.650256 0
M  V30 1390 H 130.637 1.15615 1.69771 0
M  V30 1391 H 128.867 -0.20152 3.86175 0
M  V30 1392 H 130.556 0.169875 4.05544 0
M  V30 1393 H 131.322 2.6533 4.05986 0
M  V30 1394 H 127.201 1.46705 4.37034 0
M  V30 1395 H 130.745 4.86056 5.00395 0
M  V30 1396 H 126.642 3.66532 5.31342 0
M  V30 1397 H 127.41 5.64987 5.92226 0
M  V30 1398 N 130.073 -1.45103 0.615059 0
M  V30 1399 C 131.319 -2.02483 0.113347 0
M  V30 1400 C 131.652 -1.48146 -1.25564 0
M  V30 1401 O 130.927 -0.659104 -1.82992 0
M  V30 1402 C 131.21 -3.60005 0.0825278 0
M  V30 1403 C 131.063 -4.2466 1.48271 0
M  V30 1404 C 132.382 -4.35972 -0.601401 0
M  V30 1405 H 129.501 -0.735764 0.0426632 0
M  V30 1406 H 132.143 -1.72868 0.788461 0
M  V30 1407 H 130.293 -3.85367 -0.492378 0
M  V30 1408 H 131.965 -4.10458 2.10527 0
M  V30 1409 H 130.208 -3.82772 2.04127 0
M  V30 1410 H 130.879 -5.336 1.41332 0
M  V30 1411 H 133.355 -4.15947 -0.112666 0
M  V30 1412 H 132.231 -5.45697 -0.592097 0
M  V30 1413 H 132.492 -4.09391 -1.66887 0
M  V30 1414 N 131.551 -0.354651 -1.53558 0
M  V30 1415 C 132.799 0.237972 -2.00694 0
M  V30 1416 C 133.12 1.50173 -1.24391 0
M  V30 1417 O 132.39 1.92673 -0.354135 0
M  V30 1418 H 130.97 0.0909256 -0.741446 0
M  V30 1419 H 133.632 -0.478368 -1.88938 0
M  V30 1420 H 132.728 0.47264 -3.085 0
M  V30 1421 N 133.029 1.57378 -0.0835403 0
M  V30 1422 C 133.976 2.13384 0.879539 0
M  V30 1423 C 134.946 1.04936 1.28754 0
M  V30 1424 O 136.131 1.32662 1.37133 0
M  V30 1425 C 133.271 2.70932 2.13752 0
M  V30 1426 C 132.384 3.93575 1.7811 0
M  V30 1427 C 131.519 4.39326 2.98607 0
M  V30 1428 C 130.558 5.54587 2.59037 0
M  V30 1429 N 129.695 5.95243 3.72331 0
M  V30 1430 H 134.535 2.9537 0.395076 0
M  V30 1431 H 132.072 1.45953 0.183349 0
M  V30 1432 H 134.03 3.02411 2.87408 0
M  V30 1433 H 132.66 1.91693 2.59718 0
M  V30 1434 H 131.712 3.68483 0.94469 0
M  V30 1435 H 133.024 4.77258 1.45005 0
M  V30 1436 H 132.178 4.72528 3.80529 0
M  V30 1437 H 130.917 3.5452 3.34913 0
M  V30 1438 H 129.922 5.21024 1.75539 0
M  V30 1439 H 131.147 6.41133 2.23887 0
M  V30 1440 H 129.093 5.13385 4.08378 0
M  V30 1441 H 129.01 6.73694 3.43034 0
M  V30 1442 H 130.278 6.33072 4.54797 0
M  V30 1443 N 134.507 -0.190092 1.56449 0
M  V30 1444 C 135.753 -0.911052 1.81184 0
M  V30 1445 C 136.086 -1.82699 0.658396 0
M  V30 1446 O 135.361 -1.91491 -0.340775 0
M  V30 1447 C 135.644 -1.72297 3.16205 0
M  V30 1448 C 135.497 -0.831419 4.42049 0
M  V30 1449 C 136.816 -2.69454 3.47969 0
M  V30 1450 H 133.935 -0.32977 0.659106 0
M  V30 1451 H 136.577 -0.178169 1.89163 0
M  V30 1452 H 134.727 -2.34778 3.09534 0
M  V30 1453 H 136.399 -0.220929 4.60771 0
M  V30 1454 H 134.642 -0.138406 4.33579 0
M  V30 1455 H 135.313 -1.43461 5.33032 0
M  V30 1456 H 137.789 -2.17104 3.54972 0
M  V30 1457 H 136.665 -3.23342 4.43555 0
M  V30 1458 H 136.926 -3.48744 2.71717 0
M  V30 1459 N 135.985 -1.50799 -0.457987 0
M  V30 1460 C 137.232 -1.62442 -1.20908 0
M  V30 1461 C 137.56 -0.330865 -1.91665 0
M  V30 1462 O 136.815 0.68401 -1.83357 0
M  V30 1463 C 137.114 -2.76358 -2.2663 0
M  V30 1464 C 136.78 -4.16378 -1.73033 0
M  V30 1465 C 135.442 -4.54473 -1.58138 0
M  V30 1466 C 137.794 -5.03836 -1.33413 0
M  V30 1467 C 135.122 -5.77754 -1.02065 0
M  V30 1468 C 137.474 -6.27676 -0.78778 0
M  V30 1469 C 136.138 -6.64562 -0.625561 0
M  V30 1470 H 135.408 -0.594417 -0.442435 0
M  V30 1471 H 138.055 -1.84772 -0.503136 0
M  V30 1472 H 136.36 -2.48167 -3.03184 0
M  V30 1473 H 138.057 -2.82568 -2.84528 0
M  V30 1474 H 134.647 -3.86331 -1.85598 0
M  V30 1475 H 138.831 -4.75026 -1.4375 0
M  V30 1476 H 134.087 -6.04997 -0.882547 0
M  V30 1477 H 138.261 -6.94797 -0.472177 0
M  V30 1478 H 135.888 -7.59965 -0.188926 0
M  V30 1479 N 137.463 0.71206 -1.40597 0
M  V30 1480 C 138.879 1.02058 -1.22704 0
M  V30 1481 C 139.079 2.01228 -0.104729 0
M  V30 1482 O 138.135 2.4674 0.53624 0
M  V30 1483 C 139.448 1.56094 -2.57012 0
M  V30 1484 C 140.996 1.6806 -2.64054 0
M  V30 1485 C 141.471 2.25501 -3.9864 0
M  V30 1486 N 142.962 2.32882 -4.004 0
M  V30 1487 C 143.697 2.78317 -5.01325 0
M  V30 1488 N 143.193 3.23478 -6.12645 0
M  V30 1489 N 144.986 2.77733 -4.88693 0
M  V30 1490 H 137.137 0.0547896 -2.12329 0
M  V30 1491 H 139.4 0.0869027 -0.944008 0
M  V30 1492 H 139.106 0.906865 -3.39807 0
M  V30 1493 H 138.98 2.54564 -2.78347 0
M  V30 1494 H 141.367 2.32583 -1.81629 0
M  V30 1495 H 141.448 0.681802 -2.46546 0
M  V30 1496 H 141.092 1.61598 -4.81506 0
M  V30 1497 H 141.022 3.26102 -4.13479 0
M  V30 1498 H 143.513 2.00991 -3.20017 0
M  V30 1499 H 143.826 3.56725 -6.85542 0
M  V30 1500 H 142.171 3.21429 -6.16205 0
M  V30 1501 H 145.362 2.4179 -4.00818 0
M  V30 1502 H 145.535 3.12826 -5.67489 0
M  V30 1503 N 138.941 1.26152 0.944643 0
M  V30 1504 C 140.187 1.11657 1.69294 0
M  V30 1505 C 140.52 -0.339926 1.91202 0
M  V30 1506 O 139.795 -1.24994 1.49019 0
M  V30 1507 C 140.078 1.88236 3.06984 0
M  V30 1508 C 139.931 3.41772 2.92424 0
M  V30 1509 C 141.25 1.67343 4.07043 0
M  V30 1510 H 138.369 0.407004 0.614424 0
M  V30 1511 H 141.011 1.55106 1.09737 0
M  V30 1512 H 139.161 1.51308 3.57824 0
M  V30 1513 H 140.833 3.88433 2.48832 0
M  V30 1514 H 139.076 3.68974 2.28124 0
M  V30 1515 H 139.747 3.90579 3.90067 0
M  V30 1516 H 142.223 1.99509 3.65151 0
M  V30 1517 H 141.099 2.23346 5.01406 0
M  V30 1518 H 141.36 0.617158 4.37771 0
M  V30 1519 N 140.419 -1.14872 1.07899 0
M  V30 1520 C 141.696 -1.81928 0.71845 0
M  V30 1521 C 142.076 -1.95417 -0.798455 0
M  V30 1522 O 141.424 -1.50997 -1.715 0
M  V30 1523 C 141.634 -3.17937 1.43935 0
M  V30 1524 C 142.982 -3.93501 1.59506 0
M  V30 1525 O 144.006 -3.27509 1.40058 0
M  V30 1526 O 142.865 -5.1183 1.91551 0
M  V30 1527 H 139.959 -0.78628 0.256305 0
M  V30 1528 H 142.505 -1.21934 1.18026 0
M  V30 1529 H 141.277 -3.0325 2.47295 0
M  V30 1530 H 140.9 -3.85619 0.968687 0
M  V30 1531 N 141.898 -0.863906 -1.31812 0
M  V30 1532 C 142.861 -0.320212 -2.26952 0
M  V30 1533 C 143.861 0.525369 -1.51975 0
M  V30 1534 O 145.051 0.335547 -1.70938 0
M  V30 1535 C 142.183 0.545919 -3.365 0
M  V30 1536 H 143.376 -1.16004 -2.76556 0
M  V30 1537 H 140.929 -0.638995 -1.42641 0
M  V30 1538 H 141.664 1.40718 -2.92179 0
M  V30 1539 H 141.449 -0.0594674 -3.92055 0
M  V30 1540 H 142.939 0.918796 -4.07367 0
M  V30 1541 N 143.376 1.44774 -0.622745 0
M  V30 1542 C 144.286 2.34433 0.0886031 0
M  V30 1543 C 145.302 1.52131 0.844529 0
M  V30 1544 O 146.478 1.84886 0.798691 0
M  V30 1545 C 143.543 3.29986 1.0635 0
M  V30 1546 C 142.604 4.28195 0.307873 0
M  V30 1547 C 141.837 5.19183 1.23633 0
M  V30 1548 O 142.06 5.13918 2.47476 0
M  V30 1549 O 140.994 5.97515 0.725189 0
M  V30 1550 H 144.82 2.96693 -0.648599 0
M  V30 1551 H 142.405 1.44408 -0.382957 0
M  V30 1552 H 144.287 3.88825 1.6246 0
M  V30 1553 H 142.962 2.70269 1.78146 0
M  V30 1554 H 141.869 3.72927 -0.296064 0
M  V30 1555 H 143.202 4.90808 -0.3699 0
M  V30 1556 N 144.854 0.36279 1.53368 0
M  V30 1557 C 146.082 -0.228613 2.05633 0
M  V30 1558 C 146.497 -1.42676 1.23649 0
M  V30 1559 O 145.854 -1.80394 0.27647 0
M  V30 1560 C 145.905 -0.624845 3.56059 0
M  V30 1561 O 145.626 0.525675 4.34935 0
M  V30 1562 C 147.127 -1.27493 4.24571 0
M  V30 1563 H 144.347 -0.0407183 0.669763 0
M  V30 1564 H 146.891 0.520352 1.97769 0
M  V30 1565 H 145.046 -1.32373 3.64083 0
M  V30 1566 H 145.46 0.205969 5.24095 0
M  V30 1567 H 146.934 -1.50277 5.31151 0
M  V30 1568 H 147.411 -2.23439 3.78116 0
M  V30 1569 H 148.017 -0.617558 4.20792 0
M  V30 1570 N 146.332 -1.57332 0.0918853 0
M  V30 1571 C 147.58 -1.93853 -0.571446 0
M  V30 1572 C 147.901 -0.974212 -1.6892 0
M  V30 1573 O 147.171 -0.0257254 -1.95883 0
M  V30 1574 H 145.751 -0.715666 -0.214082 0
M  V30 1575 H 148.413 -1.94287 0.154464 0
M  V30 1576 H 147.509 -2.96191 -0.983729 0
M  V30 1577 N 147.81 0.181792 -1.56548 0
M  V30 1578 C 149.087 0.926765 -1.72251 0
M  V30 1579 C 149.467 2.00831 -0.650386 0
M  V30 1580 O 148.815 2.26008 0.336521 0
M  V30 1581 C 149.025 1.50106 -3.1507 0
M  V30 1582 C 150.373 1.97805 -3.75711 0
M  V30 1583 O 151.397 1.59922 -3.18282 0
M  V30 1584 O 150.256 2.67555 -4.76525 0
M  V30 1585 H 147.35 0.435506 -0.703039 0
M  V30 1586 H 149.896 0.170443 -1.68842 0
M  V30 1587 H 148.668 0.72212 -3.84579 0
M  V30 1588 H 148.291 2.32186 -3.22763 0
M  V30 1589 N 149.288 1.51039 0.449983 0
M  V30 1590 C 150.534 1.63322 1.20223 0
M  V30 1591 C 150.867 0.34241 1.91158 0
M  V30 1592 O 150.142 -0.657344 1.83055 0
M  V30 1593 C 150.425 2.82801 2.22925 0
M  V30 1594 C 150.278 4.21823 1.56157 0
M  V30 1595 C 151.597 2.97807 3.24035 0
M  V30 1596 H 148.716 0.594407 0.435718 0
M  V30 1597 H 151.358 1.83489 0.493136 0
M  V30 1598 H 149.508 2.65738 2.834 0
M  V30 1599 H 151.18 4.50526 0.991162 0
M  V30 1600 H 149.423 4.25105 0.864172 0
M  V30 1601 H 150.094 5.01391 2.30891 0
M  V30 1602 H 152.57 3.13497 2.73603 0
M  V30 1603 H 151.446 3.82992 3.93202 0
M  V30 1604 H 151.707 2.09328 3.89402 0
M  V30 1605 N 150.766 -0.704594 1.40972 0
M  V30 1606 C 152.013 -1.46458 1.39844 0
M  V30 1607 C 152.341 -1.94499 0.00447594 0
M  V30 1608 O 151.596 -1.69275 -0.982057 0
M  V30 1609 C 151.895 -2.698 2.34399 0
M  V30 1610 C 151.561 -2.40464 3.81429 0
M  V30 1611 C 150.223 -2.32174 4.21484 0
M  V30 1612 C 152.575 -2.16086 4.74296 0
M  V30 1613 C 149.903 -1.97589 5.52427 0
M  V30 1614 C 152.255 -1.83011 6.05549 0
M  V30 1615 C 150.919 -1.7321 6.44635 0
M  V30 1616 H 150.189 -0.535927 0.511725 0
M  V30 1617 H 152.836 -0.806124 1.73706 0
M  V30 1618 H 151.141 -3.40536 1.93759 0
M  V30 1619 H 152.838 -3.27919 2.30804 0
M  V30 1620 H 149.428 -2.47808 3.49699 0
M  V30 1621 H 153.612 -2.2144 4.4416 0
M  V30 1622 H 148.868 -1.88547 5.81601 0
M  V30 1623 H 153.042 -1.63164 6.77016 0
M  V30 1624 H 150.669 -1.46179 7.46013 0
M  V30 1625 N 152.244 -1.26651 -0.937939 0
M  V30 1626 C 153.207 -1.08546 -2.01867 0
M  V30 1627 C 154.207 -0.0327327 -1.60767 0
M  V30 1628 O 155.397 -0.276427 -1.71993 0
M  V30 1629 C 152.529 -0.651711 -3.34613 0
M  V30 1630 H 153.722 -2.04502 -2.1936 0
M  V30 1631 H 151.275 -1.09294 -1.11734 0
M  V30 1632 H 152.01 0.309696 -3.22818 0
M  V30 1633 H 151.795 -1.41189 -3.65798 0
M  V30 1634 H 153.285 -0.546973 -4.14002 0
M  V30 1635 N 153.722 1.14298 -1.08507 0
M  V30 1636 C 154.971 1.84708 -0.810305 0
M  V30 1637 C 155.284 1.83903 0.666271 0
M  V30 1638 O 156.49 2.50112 1.05624 0
M  V30 1639 C 154.946 3.31572 -1.39957 0
M  V30 1640 C 154.554 3.40791 -2.90801 0
M  V30 1641 C 156.298 4.07087 -1.20334 0
M  V30 1642 C 154.205 4.81872 -3.4286 0
M  V30 1643 H 153.135 0.691985 -0.299454 0
M  V30 1644 H 155.786 1.28841 -1.30661 0
M  V30 1645 H 154.168 3.87183 -0.830976 0
M  V30 1646 H 155.342 2.95225 -3.53806 0
M  V30 1647 H 153.657 2.78732 -3.0935 0
M  V30 1648 H 156.254 5.11225 -1.56693 0
M  V30 1649 H 156.597 4.16054 -0.143237 0
M  V30 1650 H 157.13 3.57779 -1.73893 0
M  V30 1651 H 153.869 4.78094 -4.48449 0
M  V30 1652 H 153.389 5.27972 -2.84615 0
M  V30 1653 H 155.068 5.50765 -3.39509 0
M  V30 1654 N 155.201 0.870884 1.31352 0
M  V30 1655 C 156.111 0.330783 2.32256 0
M  V30 1656 C 157.127 -0.559767 1.6475 0
M  V30 1657 O 158.303 -0.456263 1.96164 0
M  V30 1658 C 155.368 -0.458137 3.4366 0
M  V30 1659 C 154.429 0.460482 4.26823 0
M  V30 1660 C 153.662 -0.290881 5.32907 0
M  V30 1661 O 153.885 -1.51885 5.49806 0
M  V30 1662 O 152.819 0.351732 6.00871 0
M  V30 1663 H 156.645 1.16718 2.80376 0
M  V30 1664 H 154.23 0.634285 1.35267 0
M  V30 1665 H 156.112 -0.905343 4.1156 0
M  V30 1666 H 154.787 -1.27106 2.97701 0
M  V30 1667 H 153.694 0.956207 3.61673 0
M  V30 1668 H 155.027 1.23903 4.7635 0
M  V30 1669 N 156.679 -1.44442 0.630414 0
M  V30 1670 C 158.095 -1.56832 0.295973 0
M  V30 1671 C 158.295 -1.61806 -1.20088 0
M  V30 1672 O 157.351 -1.5607 -1.9849 0
M  V30 1673 C 158.664 -2.84031 0.987264 0
M  V30 1674 C 160.212 -2.97742 0.96534 0
M  V30 1675 C 160.687 -4.27743 1.63708 0
M  V30 1676 N 162.178 -4.34555 1.60364 0
M  V30 1677 C 162.913 -5.33862 2.09234 0
M  V30 1678 N 162.409 -6.39578 2.66292 0
M  V30 1679 N 164.202 -5.25366 1.99867 0
M  V30 1680 H 156.353 -1.39457 1.60205 0
M  V30 1681 H 158.616 -0.668237 0.672431 0
M  V30 1682 H 158.322 -2.86338 2.04215 0
M  V30 1683 H 158.196 -3.73534 0.524588 0
M  V30 1684 H 160.583 -2.94989 -0.0810639 0
M  V30 1685 H 160.664 -2.09589 1.4665 0
M  V30 1686 H 160.308 -4.31255 2.68293 0
M  V30 1687 H 160.238 -5.14752 1.11076 0
M  V30 1688 H 162.729 -3.58772 1.18705 0
M  V30 1689 H 163.042 -7.11637 3.01317 0
M  V30 1690 H 161.387 -6.40265 2.70343 0
M  V30 1691 H 164.578 -4.41688 1.55013 0
M  V30 1692 H 164.751 -6.02606 2.38265 0
M  V30 1693 N 158.157 -0.370918 -1.53173 0
M  V30 1694 C 159.087 0.464847 -2.28826 0
M  V30 1695 C 160.068 1.07936 -1.31468 0
M  V30 1696 O 161.253 1.0956 -1.60344 0
M  V30 1697 C 158.383 1.60196 -3.08147 0
M  V30 1698 C 157.337 1.11443 -4.13237 0
M  V30 1699 C 156.663 2.3422 -4.80672 0
M  V30 1700 C 157.963 0.195384 -5.21934 0
M  V30 1701 H 159.657 -0.166329 -2.98938 0
M  V30 1702 H 157.203 -0.0814359 -1.4377 0
M  V30 1703 H 159.156 2.19332 -3.59822 0
M  V30 1704 H 157.88 2.26045 -2.35735 0
M  V30 1705 H 156.539 0.545727 -3.62515 0
M  V30 1706 H 156.187 2.98537 -4.04827 0
M  V30 1707 H 155.887 2.02269 -5.51689 0
M  V30 1708 H 157.411 2.94032 -5.35143 0
M  V30 1709 H 158.825 0.694375 -5.69079 0
M  V30 1710 H 157.222 -0.0335027 -6.00091 0
M  V30 1711 H 158.292 -0.760961 -4.78892 0
M  V30 1712 N 159.635 1.57281 -0.100228 0
M  V30 1713 C 160.912 1.86014 0.604812 0
M  V30 1714 C 161.292 0.998025 1.86018 0
M  V30 1715 O 160.64 0.0718184 2.28387 0
M  V30 1716 C 160.85 3.36784 0.915278 0
M  V30 1717 C 162.198 4.04957 1.27651 0
M  V30 1718 O 163.222 3.41695 1.00613 0
M  V30 1719 O 162.081 5.16593 1.7831 0
M  V30 1720 H 159.175 0.76942 0.303185 0
M  V30 1721 H 161.721 1.69176 -0.133313 0
M  V30 1722 H 160.493 3.91292 0.0248896 0
M  V30 1723 H 160.116 3.58987 1.70921 0
M  V30 1724 N 161.113 -0.173488 1.56642 0
M  V30 1725 C 162.529 -0.525174 1.50712 0
M  V30 1726 C 162.729 -1.8476 0.804107 0
M  V30 1727 O 161.785 -2.49869 0.363574 0
M  V30 1728 C 163.098 -0.559937 2.95441 0
M  V30 1729 C 164.646 -0.647288 3.06234 0
M  V30 1730 C 165.121 -0.712963 4.52417 0
M  V30 1731 N 166.612 -0.775911 4.56655 0
M  V30 1732 C 167.347 -0.847264 5.67106 0
M  V30 1733 N 166.843 -0.879585 6.87194 0
M  V30 1734 N 168.636 -0.886117 5.55071 0
M  V30 1735 H 160.787 0.693681 2.00753 0
M  V30 1736 H 163.05 0.249841 0.914485 0
M  V30 1737 H 162.756 0.343049 3.50023 0
M  V30 1738 H 162.63 -1.40718 3.49969 0
M  V30 1739 H 165.017 -1.5407 2.51687 0
M  V30 1740 H 165.098 0.226586 2.54794 0
M  V30 1741 H 164.742 0.176183 5.07594 0
M  V30 1742 H 164.672 -1.60295 5.0161 0
M  V30 1743 H 167.163 -0.759304 3.70193 0
M  V30 1744 H 167.476 -0.935144 7.67121 0
M  V30 1745 H 165.821 -0.847898 6.89808 0
M  V30 1746 H 169.012 -0.857853 4.60172 0
M  V30 1747 H 169.185 -0.938263 6.41171 0
M  V30 1748 N 162.591 -1.51276 -0.441967 0
M  V30 1749 C 163.501 -1.75092 -1.56141 0
M  V30 1750 C 164.517 -0.634963 -1.62001 0
M  V30 1751 O 165.693 -0.916686 -1.79329 0
M  V30 1752 C 162.758 -1.86666 -2.92158 0
M  V30 1753 C 161.819 -3.10506 -2.96453 0
M  V30 1754 C 161.052 -3.21519 -4.25982 0
M  V30 1755 O 161.275 -2.38586 -5.18105 0
M  V30 1756 O 160.209 -4.14465 -4.36466 0
M  V30 1757 H 164.035 -2.70044 -1.38961 0
M  V30 1758 H 161.62 -1.35722 -0.624499 0
M  V30 1759 H 163.502 -1.96292 -3.72891 0
M  V30 1760 H 162.177 -0.949014 -3.09476 0
M  V30 1761 H 161.084 -3.06363 -2.14692 0
M  V30 1762 H 162.417 -4.01945 -2.84079 0
M  V30 1763 N 164.069 0.697108 -1.41344 0
M  V30 1764 C 165.017 1.83237 -1.43272 0
M  V30 1765 C 166.011 1.66522 -0.310947 0
M  V30 1766 O 167.217 1.73402 -0.482899 0
M  V30 1767 H 163.592 0.603802 -0.448249 0
M  V30 1768 H 165.563 1.78727 -2.38954 0
M  V30 1769 C 164.312 3.21245 -1.33029 0
M  V30 1770 H 163.635 3.34723 -2.18633 0
M  V30 1771 H 165.075 4.00763 -1.38439 0
M  V30 1772 C 163.534 3.36873 -0.0424635 0
M  V30 1773 O 164.064 3.91177 0.913421 0
M  V30 1774 N 162.27 2.90581 0.0331145 0
M  V30 1775 H 161.817 2.46577 -0.745506 0
M  V30 1776 H 161.775 3.01416 0.894199 0
M  V30 1777 N 165.547 1.27147 0.931209 0
M  V30 1778 C 166.796 1.12664 1.67302 0
M  V30 1779 C 167.109 -0.327718 1.92835 0
M  V30 1780 O 168.315 -0.593392 2.64936 0
M  V30 1781 C 166.771 1.9683 3.01307 0
M  V30 1782 C 166.379 3.46901 2.83485 0
M  V30 1783 C 168.123 1.90985 3.79111 0
M  V30 1784 C 166.03 4.23279 4.13024 0
M  V30 1785 H 164.96 0.41803 0.627509 0
M  V30 1786 H 167.611 1.51539 1.03481 0
M  V30 1787 H 165.993 1.50797 3.66164 0
M  V30 1788 H 167.167 4.00773 2.27415 0
M  V30 1789 H 165.482 3.54088 2.19113 0
M  V30 1790 H 168.079 2.45328 4.75098 0
M  V30 1791 H 168.422 0.882718 4.06834 0
M  V30 1792 H 168.955 2.34895 3.21044 0
M  V30 1793 H 165.694 5.26503 3.90481 0
M  V30 1794 H 165.214 3.74186 4.6877 0
M  V30 1795 H 166.893 4.32265 4.81411 0
M  V30 1796 N 167.025 -1.13721 1.09112 0
M  V30 1797 C 168.25 -1.89314 0.847053 0
M  V30 1798 C 168.675 -1.78416 -0.595774 0
M  V30 1799 O 168.033 -1.12942 -1.41823 0
M  V30 1800 C 168.081 -3.3701 1.28284 0
M  V30 1801 O 167.185 -4.10054 0.439267 0
M  V30 1802 H 166.526 -0.588745 0.307044 0
M  V30 1803 H 169.056 -1.43902 1.45442 0
M  V30 1804 H 169.066 -3.87834 1.26683 0
M  V30 1805 H 167.741 -3.4426 2.33363 0
M  V30 1806 H 166.318 -3.69266 0.519312 0
M  V30 1807 N 168.503 -0.877838 -1.30888 0
M  V30 1808 C 169.413 -0.343096 -2.32078 0
M  V30 1809 C 170.429 0.551022 -1.65045 0
M  V30 1810 O 171.605 0.445854 -1.96403 0
M  V30 1811 C 168.67 0.439905 -3.43898 0
M  V30 1812 C 167.731 -0.483111 -4.26573 0
M  V30 1813 C 166.964 0.262616 -5.33053 0
M  V30 1814 O 167.187 1.48967 -5.50604 0
M  V30 1815 O 166.121 -0.383593 -6.00676 0
M  V30 1816 H 169.947 -1.18203 -2.79753 0
M  V30 1817 H 167.532 -0.64145 -1.34929 0
M  V30 1818 H 169.414 0.883504 -4.12034 0
M  V30 1819 H 168.089 1.25526 -2.98371 0
M  V30 1820 H 166.996 -0.975374 -3.61161 0
M  V30 1821 H 168.329 -1.26427 -4.75686 0
M  V30 1822 N 169.982 1.44106 -0.638065 0
M  V30 1823 C 171.212 2.06037 -0.152394 0
M  V30 1824 C 171.62 1.47808 1.18108 0
M  V30 1825 O 170.963 0.598092 1.73691 0
M  V30 1826 C 171.025 3.59488 0.0293714 0
M  V30 1827 C 170.689 4.4022 -1.22702 0
M  V30 1828 C 171.686 4.73256 -2.15232 0
M  V30 1829 C 169.371 4.8048 -1.46437 0
M  V30 1830 C 171.365 5.45444 -3.29802 0
M  V30 1831 C 169.052 5.52417 -2.61303 0
M  V30 1832 C 170.05 5.84819 -3.52811 0
M  V30 1833 O 169.738 6.55289 -4.65673 0
M  V30 1834 H 169.47 0.671233 -0.0801401 0
M  V30 1835 H 172.024 1.85851 -0.874563 0
M  V30 1836 H 170.254 3.78191 0.806758 0
M  V30 1837 H 171.943 4.03164 0.470475 0
M  V30 1838 H 172.709 4.42684 -1.98131 0
M  V30 1839 H 168.588 4.54676 -0.760977 0
M  V30 1840 H 172.132 5.70653 -4.01249 0
M  V30 1841 H 168.029 5.82404 -2.78344 0
M  V30 1842 H 168.797 6.73762 -4.64744 0
M  V30 1843 N 171.46 0.379036 1.52974 0
M  V30 1844 C 172.41 -0.477772 2.22938 0
M  V30 1845 C 173.394 -1.03792 1.22948 0
M  V30 1846 O 174.586 -0.965725 1.48333 0
M  V30 1847 C 171.715 -1.60994 3.03209 0
M  V30 1848 C 170.801 -1.06203 4.10587 0
M  V30 1849 N 171.192 -0.238214 5.05239 0
M  V30 1850 C 169.49 -1.33554 4.25534 0
M  V30 1851 C 170.191 0.0633235 5.81666 0
M  V30 1852 N 169.167 -0.537901 5.40932 0
M  V30 1853 H 172.969 0.158295 2.93473 0
M  V30 1854 H 170.483 0.187778 1.61311 0
M  V30 1855 H 172.48 -2.23607 3.5186 0
M  V30 1856 H 171.14 -2.24893 2.34207 0
M  V30 1857 H 172.151 0.123695 5.17752 0
M  V30 1858 H 168.828 -1.97632 3.6776 0
M  V30 1859 H 170.218 0.730161 6.67921 0
M  V30 1860 N 172.938 -1.57226 0.108567 0
M  V30 1861 C 173.868 -2.17778 -0.84232 0
M  V30 1862 C 174.849 -1.11487 -1.2847 0
M  V30 1863 O 176.034 -1.39681 -1.34918 0
M  V30 1864 C 173.164 -2.76888 -2.09644 0
M  V30 1865 C 172.118 -3.88669 -1.79221 0
M  V30 1866 C 171.444 -4.34541 -3.11574 0
M  V30 1867 C 172.744 -5.11251 -1.06864 0
M  V30 1868 H 174.438 -2.97489 -0.337774 0
M  V30 1869 H 171.984 -1.43097 -0.161025 0
M  V30 1870 H 173.937 -3.17904 -2.76614 0
M  V30 1871 H 172.661 -1.94451 -2.62405 0
M  V30 1872 H 171.32 -3.48213 -1.14644 0
M  V30 1873 H 170.968 -3.48977 -3.62249 0
M  V30 1874 H 170.668 -5.09914 -2.91996 0
M  V30 1875 H 172.192 -4.782 -3.7968 0
M  V30 1876 H 173.606 -5.49352 -1.63968 0
M  V30 1877 H 172.003 -5.9214 -0.974178 0
M  V30 1878 H 173.073 -4.8487 -0.0536168 0
M  V30 1879 N 174.416 0.165178 -1.56732 0
M  V30 1880 C 175.644 0.896218 -1.86482 0
M  V30 1881 C 176.059 1.75555 -0.694675 0
M  V30 1882 O 175.416 1.79379 0.33607 0
M  V30 1883 C 175.467 1.76792 -3.1532 0
M  V30 1884 O 175.188 0.943239 -4.27825 0
M  V30 1885 C 176.689 2.6081 -3.58459 0
M  V30 1886 H 173.909 0.260064 -0.618553 0
M  V30 1887 H 176.453 0.163428 -2.03846 0
M  V30 1888 H 174.608 2.45398 -2.99764 0
M  V30 1889 H 175.022 1.53998 -5.01383 0
M  V30 1890 H 176.496 3.17579 -4.51495 0
M  V30 1891 H 176.973 3.35977 -2.82872 0
M  V30 1892 H 177.579 1.97526 -3.76648 0
M  V30 1893 N 175.894 1.51508 0.433938 0
M  V30 1894 C 176.857 1.72473 1.50949 0
M  V30 1895 C 177.857 0.594725 1.49398 0
M  V30 1896 O 179.047 0.862315 1.5136 0
M  V30 1897 C 176.179 1.78431 2.90474 0
M  V30 1898 H 177.372 2.68467 1.33662 0
M  V30 1899 H 174.925 1.41549 0.662836 0
M  V30 1900 H 175.66 0.842645 3.13161 0
M  V30 1901 H 175.445 2.60558 2.93005 0
M  V30 1902 H 176.935 1.96479 3.68491 0
M  V30 1903 N 177.372 -0.689602 1.41712 0
M  V30 1904 C 178.618 -1.45181 1.41599 0
M  V30 1905 C 178.951 -1.94181 0.0270081 0
M  V30 1906 O 178.226 -1.6993 -0.946265 0
M  V30 1907 C 178.509 -2.65945 2.42787 0
M  V30 1908 C 178.362 -2.22672 3.90816 0
M  V30 1909 C 179.681 -3.68149 2.41151 0
M  V30 1910 H 176.8 -0.526576 0.515642 0
M  V30 1911 H 179.442 -0.784947 1.73028 0
M  V30 1912 H 177.592 -3.2284 2.16116 0
M  V30 1913 H 179.264 -1.71058 4.28412 0
M  V30 1914 H 177.507 -1.54394 4.05395 0
M  V30 1915 H 178.178 -3.0935 4.57172 0
M  V30 1916 H 180.654 -3.2094 2.64834 0
M  V30 1917 H 179.53 -4.50248 3.13955 0
M  V30 1918 H 179.791 -4.18259 1.43221 0
M  V30 1919 N 178.85 -1.27639 -0.924453 0
M  V30 1920 C 180.099 -1.13549 -1.66702 0
M  V30 1921 C 180.412 0.317487 -1.93006 0
M  V30 1922 O 181.618 0.579333 -2.65247 0
M  V30 1923 C 180.074 -1.98426 -3.00259 0
M  V30 1924 C 179.682 -3.484 -2.81641 0
M  V30 1925 C 181.426 -1.92993 -3.78092 0
M  V30 1926 C 179.333 -4.25464 -4.10773 0
M  V30 1927 H 178.263 -0.421351 -0.625283 0
M  V30 1928 H 180.914 -1.52085 -1.02676 0
M  V30 1929 H 179.296 -1.52736 -3.6536 0
M  V30 1930 H 180.47 -4.01973 -2.25287 0
M  V30 1931 H 178.785 -3.55245 -2.17232 0
M  V30 1932 H 181.382 -2.47844 -4.7379 0
M  V30 1933 H 181.725 -0.904281 -4.0636 0
M  V30 1934 H 182.258 -2.36595 -3.19793 0
M  V30 1935 H 178.997 -5.28566 -3.87683 0
M  V30 1936 H 178.517 -3.76667 -4.66779 0
M  V30 1937 H 180.196 -4.34812 -4.79111 0
M  V30 1938 N 180.328 1.1314 -1.09713 0
M  V30 1939 C 181.574 1.84757 -0.836224 0
M  V30 1940 C 181.907 1.8347 0.636598 0
M  V30 1941 O 181.182 1.27491 1.46889 0
M  V30 1942 C 181.465 3.32782 -1.37578 0
M  V30 1943 C 181.318 3.42567 -2.91493 0
M  V30 1944 C 182.637 4.28307 -1.01198 0
M  V30 1945 H 179.756 0.67082 -0.305236 0
M  V30 1946 H 182.398 1.3278 -1.35903 0
M  V30 1947 H 180.548 3.77177 -0.931097 0
M  V30 1948 H 182.22 3.06862 -3.44432 0
M  V30 1949 H 180.463 2.83349 -3.28475 0
M  V30 1950 H 181.134 4.46674 -3.24324 0
M  V30 1951 H 183.61 3.91999 -1.39556 0
M  V30 1952 H 182.486 5.30307 -1.41653 0
M  V30 1953 H 182.747 4.42029 0.0794833 0
M  V30 1954 N 181.806 0.884767 1.30421 0
M  V30 1955 C 183.083 0.423185 1.90967 0
M  V30 1956 C 183.463 -1.09605 1.80416 0
M  V30 1957 O 182.811 -1.93126 1.22125 0
M  V30 1958 C 183.021 0.921056 3.36627 0
M  V30 1959 C 184.369 0.955903 4.137 0
M  V30 1960 O 185.393 0.867706 3.4547 0
M  V30 1961 O 184.252 1.08614 5.35598 0
M  V30 1962 H 181.346 0.129369 0.816819 0
M  V30 1963 H 183.892 0.973653 1.3899 0
M  V30 1964 H 182.664 1.96489 3.3839 0
M  V30 1965 H 182.287 0.349741 3.96059 0
M  V30 1966 N 183.284 -1.43765 0.645699 0
M  V30 1967 C 184.231 -2.30745 -0.0504648 0
M  V30 1968 C 185.201 -1.4432 -0.822241 0
M  V30 1969 O 186.386 -1.73202 -0.800358 0
M  V30 1970 C 183.526 -3.29802 -1.0161 0
M  V30 1971 C 182.639 -4.31326 -0.241219 0
M  V30 1972 C 181.774 -5.17469 -1.19998 0
M  V30 1973 C 180.813 -6.10691 -0.415094 0
M  V30 1974 N 179.95 -6.89483 -1.32506 0
M  V30 1975 H 184.79 -2.8973 0.697155 0
M  V30 1976 H 182.327 -1.42738 0.355563 0
M  V30 1977 H 184.285 -3.85734 -1.58949 0
M  V30 1978 H 182.915 -2.72483 -1.73069 0
M  V30 1979 H 181.967 -3.77749 0.448334 0
M  V30 1980 H 183.279 -4.9743 0.369437 0
M  V30 1981 H 182.433 -5.7799 -1.84424 0
M  V30 1982 H 181.172 -4.51473 -1.84455 0
M  V30 1983 H 180.177 -5.49265 0.242565 0
M  V30 1984 H 181.402 -6.78727 0.224966 0
M  V30 1985 H 179.348 -6.26142 -1.95657 0
M  V30 1986 H 179.265 -7.52081 -0.768783 0
M  V30 1987 H 180.533 -7.54516 -1.9577 0
M  V30 1988 N 184.763 -0.387143 -1.52771 0
M  V30 1989 C 186.04 0.253197 -1.93954 0
M  V30 1990 C 186.42 1.64545 -1.32243 0
M  V30 1991 O 185.768 2.23191 -0.489699 0
M  V30 1992 C 185.978 0.281722 -3.47861 0
M  V30 1993 C 187.326 0.511715 -4.21505 0
M  V30 1994 O 188.35 0.362023 -3.54356 0
M  V30 1995 O 187.209 0.804847 -5.40541 0
M  V30 1996 H 184.303 0.156845 -0.811991 0
M  V30 1997 H 186.849 -0.441494 -1.63856 0
M  V30 1998 H 185.621 -0.693571 -3.85104 0
M  V30 1999 H 185.244 1.02142 -3.84256 0
M  V30 2000 N 186.241 1.57166 -0.116904 0
M  V30 2001 C 187.469 1.99473 0.549383 0
M  V30 2002 C 187.884 0.996541 1.60357 0
M  V30 2003 O 187.241 -0.0108731 1.82497 0
M  V30 2004 C 187.292 3.41788 1.17741 0
M  V30 2005 O 187.013 4.37788 0.165362 0
M  V30 2006 C 188.514 3.99216 1.92722 0
M  V30 2007 H 185.734 0.655009 0.145616 0
M  V30 2008 H 188.278 2.03494 -0.202625 0
M  V30 2009 H 186.433 3.38713 1.88021 0
M  V30 2010 H 186.847 5.20806 0.621403 0
M  V30 2011 H 188.321 5.00882 2.31995 0
M  V30 2012 H 188.798 3.3824 2.80161 0
M  V30 2013 H 189.404 4.0583 1.27209 0
M  V30 2014 N 187.719 -0.156864 1.56817 0
M  V30 2015 C 188.967 -0.869404 1.82444 0
M  V30 2016 C 189.288 -1.82147 0.69623 0
M  V30 2017 O 188.558 -1.93847 -0.28287 0
M  V30 2018 H 187.138 -0.324043 0.673056 0
M  V30 2019 H 189.8 -0.153224 1.94297 0
M  V30 2020 H 188.896 -1.43761 2.77019 0
M  V30 2021 N 189.197 -1.51736 -0.425897 0
M  V30 2022 C 190.107 -1.76738 -1.54275 0
M  V30 2023 C 191.123 -0.65211 -1.61318 0
M  V30 2024 O 192.299 -0.935654 -1.78346 0
M  V30 2025 C 189.364 -1.89755 -2.90162 0
M  V30 2026 C 188.425 -3.13633 -2.93143 0
M  V30 2027 C 187.658 -3.2602 -4.22548 0
M  V30 2028 O 187.881 -2.44067 -5.15546 0
M  V30 2029 O 186.815 -4.19071 -4.32046 0
M  V30 2030 H 190.641 -2.71502 -1.36089 0
M  V30 2031 H 188.226 -1.36376 -0.610069 0
M  V30 2032 H 190.108 -2.00236 -3.70788 0
M  V30 2033 H 188.783 -0.981785 -3.08452 0
M  V30 2034 H 187.69 -3.08622 -2.11431 0
M  V30 2035 H 189.023 -4.04936 -2.798 0
M  V30 2036 N 190.675 0.682077 -1.42076 0
M  V30 2037 C 191.623 1.81707 -1.45208 0
M  V30 2038 C 192.617 1.66183 -0.328591 0
M  V30 2039 O 193.823 1.7288 -0.501264 0
M  V30 2040 H 190.198 0.599014 -0.454628 0
M  V30 2041 H 192.169 1.76183 -2.40836 0
M  V30 2042 C 190.918 3.19816 -1.36428 0
M  V30 2043 H 190.241 3.32385 -2.22171 0
M  V30 2044 H 191.681 3.99272 -1.42681 0
M  V30 2045 C 190.14 3.36809 -0.078191 0
M  V30 2046 O 190.67 3.92124 0.87188 0
M  V30 2047 N 188.876 2.906 0.00229266 0
M  V30 2048 H 188.423 2.45772 -0.771616 0
M  V30 2049 H 188.381 3.02347 0.862179 0
M  V30 2050 N 192.153 1.28127 0.917671 0
M  V30 2051 C 193.083 1.14248 2.03641 0
M  V30 2052 C 194.064 0.0412748 1.7005 0
M  V30 2053 O 195.249 0.217566 1.92977 0
M  V30 2054 C 192.379 0.799431 3.37974 0
M  V30 2055 C 191.333 1.85497 3.85713 0
M  V30 2056 C 190.659 1.36565 5.16966 0
M  V30 2057 C 191.959 3.26085 4.08002 0
M  V30 2058 H 193.653 2.07835 2.15511 0
M  V30 2059 H 191.199 1.00064 1.03553 0
M  V30 2060 H 193.152 0.689114 4.15727 0
M  V30 2061 H 191.876 -0.172145 3.26146 0
M  V30 2062 H 190.535 1.95437 3.10161 0
M  V30 2063 H 190.183 0.383253 5.01538 0
M  V30 2064 H 189.883 2.07143 5.49878 0
M  V30 2065 H 191.407 1.26848 5.97279 0
M  V30 2066 H 192.821 3.19089 4.76293 0
M  V30 2067 H 191.218 3.94462 4.52238 0
M  V30 2068 H 192.288 3.70394 3.12948 0
M  V30 2069 N 193.631 -1.12557 1.10312 0
M  V30 2070 C 194.541 -2.21841 0.763142 0
M  V30 2071 C 195.557 -1.72354 -0.238801 0
M  V30 2072 O 196.733 -2.01249 -0.0778746 0
M  V30 2073 C 193.798 -3.46131 0.198632 0
M  V30 2074 C 192.859 -4.10464 1.25769 0
M  V30 2075 C 192.092 -5.28821 0.72002 0
M  V30 2076 O 192.315 -5.6859 -0.453993 0
M  V30 2077 O 191.249 -5.83437 1.47935 0
M  V30 2078 H 195.075 -2.53312 1.67532 0
M  V30 2079 H 192.66 -1.20867 0.878157 0
M  V30 2080 H 194.542 -4.2125 -0.112401 0
M  V30 2081 H 193.217 -3.16338 -0.686419 0
M  V30 2082 H 192.124 -3.3713 1.62156 0
M  V30 2083 H 193.457 -4.44408 2.11571 0
M  V30 2084 N 195.109 -0.891671 -1.2995 0
M  V30 2085 C 196.337 -0.52866 -2.00032 0
M  V30 2086 C 196.752 0.884574 -1.66795 0
M  V30 2087 O 196.109 1.5827 -0.908669 0
M  V30 2088 C 196.16 -0.701814 -3.54622 0
M  V30 2089 O 195.881 -2.05942 -3.86678 0
M  V30 2090 C 197.382 -0.342683 -4.41973 0
M  V30 2091 H 194.602 -0.203659 -0.639347 0
M  V30 2092 H 197.146 -1.19881 -1.65677 0
M  V30 2093 H 195.301 -0.0789468 -3.8732 0
M  V30 2094 H 195.715 -2.08291 -4.81368 0
M  V30 2095 H 197.189 -0.514709 -5.49595 0
M  V30 2096 H 197.666 0.71975 -4.33262 0
M  V30 2097 H 198.272 -0.942154 -4.14733 0
M  V30 2098 N 196.587 1.43421 -0.653314 0
M  V30 2099 C 197.998 1.85065 -0.246537 0
M  V30 2100 C 198.349 1.54688 1.2069 0
M  V30 2101 O 197.474 0.995896 1.92122 0
M  V30 2102 C 198.069 3.35922 -0.440666 0
M  V30 2103 C 196.628 3.76297 -0.0882064 0
M  V30 2104 C 195.775 2.67147 -0.743484 0
M  V30 2105 H 198.726 1.33572 -0.856979 0
M  V30 2106 H 198.747 3.79204 0.313798 0
M  V30 2107 H 198.259 3.58 -1.49858 0
M  V30 2108 H 196.36 3.5983 0.96711 0
M  V30 2109 H 196.473 4.76338 -0.513738 0
M  V30 2110 H 194.837 2.54086 -0.176712 0
M  V30 2111 H 195.62 2.92053 -1.80443 0
M  V30 2112 N 198.065 0.39524 1.52563 0
M  V30 2113 C 199.29 -0.187456 2.06551 0
M  V30 2114 C 199.715 -1.39249 1.26457 0
M  V30 2115 O 199.073 -1.78947 0.291151 0
M  V30 2116 C 199.121 -0.529985 3.56684 0
M  V30 2117 O 198.225 -1.62307 3.79118 0
M  V30 2118 H 197.566 -0.0202537 0.663691 0
M  V30 2119 H 200.096 0.564426 1.96661 0
M  V30 2120 H 200.106 -0.792598 4.00227 0
M  V30 2121 H 198.781 0.350987 4.14416 0
M  V30 2122 H 197.358 -1.3537 3.47461 0
M  V30 2123 N 199.544 -1.57102 0.125237 0
M  V30 2124 C 200.769 -2.0019 -0.542101 0
M  V30 2125 C 201.194 -1.00449 -1.59034 0
M  V30 2126 O 200.552 0.0229423 -1.81285 0
M  V30 2127 C 200.6 -3.42129 -1.13929 0
M  V30 2128 O 199.704 -3.45307 -2.2547 0
M  V30 2129 H 199.045 -0.650171 -0.134812 0
M  V30 2130 H 201.575 -2.03461 0.215553 0
M  V30 2131 H 201.585 -3.80471 -1.4733 0
M  V30 2132 H 200.26 -4.14237 -0.371531 0
M  V30 2133 H 198.837 -3.1879 -1.93462 0
M  V30 2134 N 201.022 0.148545 -1.56898 0
M  V30 2135 C 202.269 0.861418 -1.83264 0
M  V30 2136 C 202.597 1.81239 -0.705883 0
M  V30 2137 O 201.852 1.93305 0.305212 0
M  V30 2138 C 202.151 1.67064 -3.1595 0
M  V30 2139 C 201.817 0.866591 -4.42494 0
M  V30 2140 C 200.479 0.644762 -4.76861 0
M  V30 2141 C 202.831 0.30418 -5.20312 0
M  V30 2142 C 200.159 -0.15021 -5.86508 0
M  V30 2143 C 202.511 -0.477824 -6.30793 0
M  V30 2144 C 201.175 -0.710244 -6.63711 0
M  V30 2145 H 200.445 0.315215 -0.670612 0
M  V30 2146 H 203.092 0.125142 -1.91091 0
M  V30 2147 H 201.397 2.47698 -3.03567 0
M  V30 2148 H 203.094 2.22566 -3.33565 0
M  V30 2149 H 199.684 1.04955 -4.15551 0
M  V30 2150 H 203.868 0.462844 -4.94137 0
M  V30 2151 H 199.124 -0.339796 -6.10455 0
M  V30 2152 H 203.298 -0.92076 -6.90286 0
M  V30 2153 H 200.925 -1.3281 -7.48509 0
M  V30 2154 N 202.5 1.5196 0.417844 0
M  V30 2155 C 203.728 1.69426 1.18753 0
M  V30 2156 C 204.143 0.399955 1.84515 0
M  V30 2157 O 203.5 -0.623288 1.71527 0
M  V30 2158 C 203.551 2.82375 2.25714 0
M  V30 2159 O 203.272 4.06793 1.62638 0
M  V30 2160 C 204.773 3.11277 3.15628 0
M  V30 2161 H 201.993 0.568031 0.357186 0
M  V30 2162 H 204.537 1.98475 0.49273 0
M  V30 2163 H 202.692 2.5587 2.90877 0
M  V30 2164 H 203.106 4.69667 2.3348 0
M  V30 2165 H 204.58 3.93843 3.86771 0
M  V30 2166 H 205.057 2.24473 3.77503 0
M  V30 2167 H 205.663 3.39515 2.56144 0
M  V30 2168 N 203.978 -0.674533 1.42435 0
M  V30 2169 C 205.227 -1.43034 1.42212 0
M  V30 2170 C 205.54 -1.95555 0.0420788 0
M  V30 2171 O 206.746 -2.71374 -0.0827558 0
M  V30 2172 C 205.202 -2.58748 2.50155 0
M  V30 2173 C 204.81 -2.12925 3.94166 0
M  V30 2174 C 206.554 -3.36257 2.59098 0
M  V30 2175 C 204.461 -3.25723 4.93618 0
M  V30 2176 H 203.391 -0.537345 0.528939 0
M  V30 2177 H 206.042 -0.73024 1.68344 0
M  V30 2178 H 204.424 -3.31128 2.17188 0
M  V30 2179 H 205.598 -1.47697 4.36488 0
M  V30 2180 H 203.913 -1.48354 3.89076 0
M  V30 2181 H 206.51 -4.20264 3.30578 0
M  V30 2182 H 206.853 -3.82866 1.63461 0
M  V30 2183 H 207.386 -2.70947 2.9126 0
M  V30 2184 H 204.125 -2.84105 5.90732 0
M  V30 2185 H 203.645 -3.89732 4.55926 0
M  V30 2186 H 205.324 -3.91186 5.15347 0
M  V30 2187 N 205.456 -1.28612 -0.910864 0
M  V30 2188 C 206.403 -1.12786 -2.01365 0
M  V30 2189 C 207.373 -0.024201 -1.66082 0
M  V30 2190 O 208.558 -0.189667 -1.89855 0
M  V30 2191 C 205.698 -0.798743 -3.35729 0
M  V30 2192 C 204.811 -1.98173 -3.83864 0
M  V30 2193 C 203.946 -1.59298 -5.06752 0
M  V30 2194 C 202.985 -2.74245 -5.47226 0
M  V30 2195 N 202.122 -2.35842 -6.61304 0
M  V30 2196 H 206.962 -2.07142 -2.14234 0
M  V30 2197 H 204.499 -1.03093 -1.0493 0
M  V30 2198 H 206.457 -0.588662 -4.13026 0
M  V30 2199 H 205.087 0.10789 -3.2262 0
M  V30 2200 H 204.139 -2.30386 -3.02699 0
M  V30 2201 H 205.451 -2.84343 -4.09818 0
M  V30 2202 H 204.605 -1.34513 -5.916 0
M  V30 2203 H 203.344 -0.702618 -4.82612 0
M  V30 2204 H 202.349 -2.99725 -4.60918 0
M  V30 2205 H 203.574 -3.63928 -5.73353 0
M  V30 2206 H 201.52 -1.49279 -6.38789 0
M  V30 2207 H 201.437 -3.15546 -6.86998 0
M  V30 2208 H 202.705 -2.14348 -7.4945 0
M  V30 2209 N 206.934 1.1197 -1.10907 0
M  V30 2210 C 208.18 1.8386 -0.855773 0
M  V30 2211 C 208.513 1.84134 0.617103 0
M  V30 2212 O 207.788 1.29041 1.45529 0
M  V30 2213 C 208.071 3.31305 -1.411 0
M  V30 2214 C 207.924 3.39456 -2.9511 0
M  V30 2215 C 209.243 4.2721 -1.05736 0
M  V30 2216 H 206.362 0.667545 -0.312334 0
M  V30 2217 H 209.004 1.31331 -1.37303 0
M  V30 2218 H 207.154 3.76169 -0.97105 0
M  V30 2219 H 208.826 3.03191 -3.47668 0
M  V30 2220 H 207.069 2.79849 -3.31462 0
M  V30 2221 H 207.74 4.43209 -3.29044 0
M  V30 2222 H 210.216 3.90497 -1.43706 0
M  V30 2223 H 209.092 5.28775 -1.47269 0
M  V30 2224 H 209.353 4.42088 0.0325958 0
M  V30 2225 N 208.412 0.89855 1.29475 0
M  V30 2226 C 209.362 0.346767 2.25348 0
M  V30 2227 C 210.346 -0.532509 1.51833 0
M  V30 2228 O 211.538 -0.374714 1.72988 0
M  V30 2229 C 208.667 -0.425681 3.40651 0
M  V30 2230 C 207.753 0.46845 4.21505 0
M  V30 2231 N 208.144 1.57514 4.80648 0
M  V30 2232 C 206.442 0.26603 4.45206 0
M  V30 2233 C 207.143 2.12889 5.41344 0
M  V30 2234 N 206.119 1.42208 5.24669 0
M  V30 2235 H 209.921 1.19219 2.68634 0
M  V30 2236 H 207.435 0.749473 1.44072 0
M  V30 2237 H 209.432 -0.837716 4.08397 0
M  V30 2238 H 208.092 -1.26838 2.98902 0
M  V30 2239 H 209.103 1.95789 4.79465 0
M  V30 2240 H 205.78 -0.538394 4.14014 0
M  V30 2241 H 207.17 3.05901 5.98226 0
M  V30 2242 N 209.89 -1.43072 0.660911 0
M  V30 2243 C 211.167 -1.95307 0.107017 0
M  V30 2244 C 211.547 -1.60192 -1.37484 0
M  V30 2245 O 210.895 -0.890949 -2.10415 0
M  V30 2246 C 211.105 -3.47124 0.361402 0
M  V30 2247 C 212.453 -4.23738 0.270455 0
M  V30 2248 O 213.477 -3.54981 0.294382 0
M  V30 2249 O 212.336 -5.46131 0.200737 0
M  V30 2250 H 209.43 -0.826984 -0.00517729 0
M  V30 2251 H 211.976 -1.52972 0.734681 0
M  V30 2252 H 210.748 -3.65837 1.38848 0
M  V30 2253 H 210.371 -3.96475 -0.298953 0
M  V30 2254 N 211.368 -0.403325 -1.52352 0
M  V30 2255 C 212.614 0.174605 -2.02047 0
M  V30 2256 C 212.947 1.45282 -1.28867 0
M  V30 2257 O 212.222 1.90483 -0.393257 0
M  V30 2258 C 212.505 0.428238 -3.57545 0
M  V30 2259 C 212.358 -0.866248 -4.4138 0
M  V30 2260 C 213.677 1.21287 -4.23057 0
M  V30 2261 H 210.796 0.0619851 -0.734389 0
M  V30 2262 H 213.438 -0.53565 -1.82293 0
M  V30 2263 H 211.588 1.03327 -3.74507 0
M  V30 2264 H 213.26 -1.50265 -4.3614 0
M  V30 2265 H 211.503 -1.47851 -4.07827 0
M  V30 2266 H 212.174 -0.643249 -5.48239 0
M  V30 2267 H 214.65 0.700703 -4.10158 0
M  V30 2268 H 213.526 1.35909 -5.31808 0
M  V30 2269 H 213.787 2.23193 -3.81625 0
M  V30 2270 N 212.846 1.57033 -0.133567 0
M  V30 2271 C 213.794 2.17348 0.828412 0
M  V30 2272 C 214.788 1.12671 1.26498 0
M  V30 2273 O 215.994 1.30947 1.23502 0
M  V30 2274 H 212.369 0.695775 0.285309 0
M  V30 2275 H 214.34 2.96935 0.295372 0
M  V30 2276 C 213.089 2.79893 2.06289 0
M  V30 2277 H 212.412 3.60147 1.73592 0
M  V30 2278 H 213.852 3.25615 2.71572 0
M  V30 2279 C 212.311 1.77713 2.86216 0
M  V30 2280 O 212.841 1.23937 3.82103 0
M  V30 2281 N 211.047 1.47321 2.50489 0
M  V30 2282 H 210.594 1.91243 1.7258 0
M  V30 2283 H 210.552 0.79199 3.04261 0
M  V30 2284 N 214.325 -0.140222 1.56975 0
M  V30 2285 C 215.602 -0.880769 1.74648 0
M  V30 2286 C 215.982 -1.99036 0.703404 0
M  V30 2287 O 215.33 -2.26821 -0.27648 0
M  V30 2288 C 215.54 -1.417 3.18939 0
M  V30 2289 C 216.888 -1.87774 3.80823 0
M  V30 2290 O 217.912 -1.51427 3.2241 0
M  V30 2291 O 216.771 -2.54827 4.83452 0
M  V30 2292 H 213.865 -0.416713 0.714338 0
M  V30 2293 H 216.411 -0.125618 1.69234 0
M  V30 2294 H 215.183 -0.619902 3.86359 0
M  V30 2295 H 214.806 -2.23546 3.28805 0
M  V30 2296 N 215.803 -1.52179 -0.40978 0
M  V30 2297 C 216.751 -1.76086 -1.51975 0
M  V30 2298 C 217.745 -0.627964 -1.57331 0
M  V30 2299 O 218.951 -0.809993 -1.60745 0
M  V30 2300 H 215.326 -0.556829 -0.505416 0
M  V30 2301 H 217.297 -2.69077 -1.28996 0
M  V30 2302 C 216.046 -1.92799 -2.8935 0
M  V30 2303 H 215.369 -2.79392 -2.85972 0
M  V30 2304 H 216.809 -2.13527 -3.66309 0
M  V30 2305 C 215.268 -0.694923 -3.29655 0
M  V30 2306 O 215.798 0.13751 -4.01465 0
M  V30 2307 N 214.004 -0.53101 -2.85707 0
M  V30 2308 H 213.551 -1.20952 -2.27439 0
M  V30 2309 H 213.509 0.292718 -3.13034 0
M  V30 2310 N 217.281 0.66697 -1.42791 0
M  V30 2311 C 218.527 1.42754 -1.44889 0
M  V30 2312 C 218.882 1.92283 -0.0669755 0
M  V30 2313 O 218.175 1.68494 0.912154 0
M  V30 2314 C 218.369 2.6349 -2.4147 0
M  V30 2315 C 218.198 2.25776 -3.88915 0
M  V30 2316 C 216.968 2.1476 -4.57391 0
M  V30 2317 C 219.166 1.86927 -4.79127 0
M  V30 2318 N 217.148 1.70232 -5.89826 0
M  V30 2319 C 218.519 1.53378 -6.00729 0
M  V30 2320 C 220.574 1.73989 -4.66511 0
M  V30 2321 C 219.277 1.08187 -7.11117 0
M  V30 2322 C 221.303 1.30203 -5.76889 0
M  V30 2323 C 220.665 0.975818 -6.97608 0
M  V30 2324 H 216.764 0.518559 -0.585338 0
M  V30 2325 H 219.348 0.768906 -1.78874 0
M  V30 2326 H 217.519 3.27033 -2.09533 0
M  V30 2327 H 219.251 3.30123 -2.34096 0
M  V30 2328 H 216.006 2.3408 -4.11708 0
M  V30 2329 H 216.43 1.50369 -6.6009 0
M  V30 2330 H 221.072 1.97853 -3.7365 0
M  V30 2331 H 218.79 0.830701 -8.03819 0
M  V30 2332 H 222.376 1.20701 -5.69142 0
M  V30 2333 H 221.256 0.642157 -7.81566 0
M  V30 2334 N 218.759 1.29093 0.90403 0
M  V30 2335 C 220.17 1.15186 1.46932 0
M  V30 2336 C 220.521 -0.254587 1.94541 0
M  V30 2337 O 219.646 -1.14972 1.83332 0
M  V30 2338 C 220.241 2.08492 2.67051 0
M  V30 2339 C 218.8 1.98621 3.19729 0
M  V30 2340 C 217.947 1.9967 1.92425 0
M  V30 2341 H 220.898 1.41641 0.715789 0
M  V30 2342 H 220.919 1.65461 3.42641 0
M  V30 2343 H 220.431 3.10847 2.3237 0
M  V30 2344 H 218.532 0.993389 3.59114 0
M  V30 2345 H 218.645 2.86068 3.8432 0
M  V30 2346 H 217.009 1.44208 2.09943 0
M  V30 2347 H 217.792 3.03721 1.60026 0
M  V30 2348 N 220.237 -1.11381 1.11499 0
M  V30 2349 C 221.483 -1.83403 0.865512 0
M  V30 2350 C 221.816 -1.84459 -0.607329 0
M  V30 2351 O 221.091 -1.29811 -1.44842 0
M  V30 2352 C 221.374 -3.30552 1.42855 0
M  V30 2353 C 221.227 -3.37886 2.96906 0
M  V30 2354 C 222.546 -4.26643 1.08 0
M  V30 2355 H 219.665 -0.665879 0.31587 0
M  V30 2356 H 222.307 -1.30601 1.37998 0
M  V30 2357 H 220.457 -3.75648 0.990985 0
M  V30 2358 H 222.129 -3.01343 3.49271 0
M  V30 2359 H 220.372 -2.78088 3.32941 0
M  V30 2360 H 221.043 -4.41458 3.31389 0
M  V30 2361 H 223.519 -3.89729 1.45775 0
M  V30 2362 H 222.395 -5.27986 1.50072 0
M  V30 2363 H 222.656 -4.42099 -0.00915037 0
M  V30 2364 N 221.715 -0.905404 -1.28997 0
M  V30 2365 C 222.962 -0.534248 -1.95325 0
M  V30 2366 C 223.29 0.920535 -1.71337 0
M  V30 2367 O 222.545 1.66861 -1.02254 0
M  V30 2368 C 222.844 -0.779906 -3.48787 0
M  V30 2369 C 222.51 -2.21293 -3.92861 0
M  V30 2370 C 221.172 -2.60475 -4.04606 0
M  V30 2371 C 223.524 -3.14587 -4.15553 0
M  V30 2372 C 220.852 -3.9212 -4.36416 0
M  V30 2373 C 223.204 -4.45787 -4.48839 0
M  V30 2374 C 221.868 -4.84834 -4.58794 0
M  V30 2375 H 221.138 -0.195495 -0.714747 0
M  V30 2376 H 223.785 -1.14514 -1.53488 0
M  V30 2377 H 222.09 -0.0861365 -3.91705 0
M  V30 2378 H 223.787 -0.472029 -3.98212 0
M  V30 2379 H 220.377 -1.89887 -3.84241 0
M  V30 2380 H 224.561 -2.85528 -4.0594 0
M  V30 2381 H 219.817 -4.22086 -4.42327 0
M  V30 2382 H 223.991 -5.18098 -4.65346 0
M  V30 2383 H 221.618 -5.86877 -4.83197 0
M  V30 2384 N 223.193 1.4272 -0.668489 0
M  V30 2385 C 224.421 2.05966 -0.196348 0
M  V30 2386 C 224.836 1.50191 1.14403 0
M  V30 2387 O 224.193 0.639208 1.7094 0
M  V30 2388 C 224.244 3.61314 -0.115815 0
M  V30 2389 O 223.965 4.1502 -1.40322 0
M  V30 2390 C 225.466 4.41663 0.380579 0
M  V30 2391 H 222.686 0.663954 -0.0969829 0
M  V30 2392 H 225.23 1.82966 -0.913446 0
M  V30 2393 H 223.385 3.83448 0.551931 0
M  V30 2394 H 223.799 5.08832 -1.27243 0
M  V30 2395 H 225.273 5.5065 0.385848 0
M  V30 2396 H 225.75 4.15792 1.41471 0
M  V30 2397 H 226.356 4.24534 -0.255209 0
M  V30 2398 N 224.671 0.411399 1.52136 0
M  V30 2399 C 225.621 -0.430376 2.23901 0
M  V30 2400 C 226.605 -1.0116 1.25121 0
M  V30 2401 O 227.797 -0.934044 1.50348 0
M  V30 2402 C 224.926 -1.54527 3.06556 0
M  V30 2403 C 224.012 -0.9747 4.12747 0
M  V30 2404 N 224.403 -0.130991 5.0563 0
M  V30 2405 C 222.701 -1.24497 4.28271 0
M  V30 2406 C 223.402 0.186689 5.814 0
M  V30 2407 N 222.378 -0.42304 5.41951 0
M  V30 2408 H 226.18 0.220509 2.93072 0
M  V30 2409 H 223.694 0.221952 1.60876 0
M  V30 2410 H 225.691 -2.16093 3.56524 0
M  V30 2411 H 224.351 -2.19875 2.38925 0
M  V30 2412 H 225.362 0.23349 5.17373 0
M  V30 2413 H 222.039 -1.89787 3.7187 0
M  V30 2414 H 223.429 0.871673 6.66222 0
M  V30 2415 N 226.149 -1.5696 0.141893 0
M  V30 2416 C 227.565 -1.58151 -0.21456 0
M  V30 2417 C 227.765 -1.1559 -1.65049 0
M  V30 2418 O 226.821 -0.853832 -2.37626 0
M  V30 2419 C 228.134 -3.00674 0.0395576 0
M  V30 2420 C 229.682 -3.1299 -0.0245529 0
M  V30 2421 C 230.157 -4.57554 0.202167 0
M  V30 2422 N 231.648 -4.62961 0.148919 0
M  V30 2423 C 232.383 -5.7262 0.298924 0
M  V30 2424 N 231.879 -6.90947 0.50637 0
M  V30 2425 N 233.672 -5.61601 0.236886 0
M  V30 2426 H 225.823 -1.8292 1.07953 0
M  V30 2427 H 228.086 -0.846425 0.42693 0
M  V30 2428 H 227.792 -3.36183 1.03315 0
M  V30 2429 H 227.666 -3.70981 -0.682143 0
M  V30 2430 H 230.053 -2.77326 -1.00869 0
M  V30 2431 H 230.134 -2.4518 0.729396 0
M  V30 2432 H 229.778 -4.93922 1.18338 0
M  V30 2433 H 229.708 -5.23484 -0.572044 0
M  V30 2434 H 232.199 -3.77899 -0.00697015 0
M  V30 2435 H 232.512 -7.7038 0.611076 0
M  V30 2436 H 230.857 -6.92878 0.542628 0
M  V30 2437 H 234.048 -4.68039 0.0756209 0
M  V30 2438 H 234.221 -6.47015 0.357227 0
M  V30 2439 N 227.627 0.131896 -1.57047 0
M  V30 2440 C 228.557 1.16384 -2.02428 0
M  V30 2441 C 229.538 1.43936 -0.90644 0
M  V30 2442 O 230.723 1.54599 -1.17528 0
M  V30 2443 C 227.853 2.49328 -2.4177 0
M  V30 2444 C 226.807 2.36266 -3.56879 0
M  V30 2445 C 226.133 3.74057 -3.8208 0
M  V30 2446 C 227.433 1.834 -4.89042 0
M  V30 2447 H 229.127 0.786433 -2.88887 0
M  V30 2448 H 226.673 0.376855 -1.38981 0
M  V30 2449 H 228.626 3.21759 -2.7212 0
M  V30 2450 H 227.35 2.88934 -1.52266 0
M  V30 2451 H 226.009 1.66286 -3.26718 0
M  V30 2452 H 225.657 4.11125 -2.89803 0
M  V30 2453 H 225.357 3.66174 -4.59554 0
M  V30 2454 H 226.881 4.48012 -4.1487 0
M  V30 2455 H 228.295 2.45636 -5.18011 0
M  V30 2456 H 226.692 1.8637 -5.70426 0
M  V30 2457 H 227.762 0.790662 -4.7841 0
M  V30 2458 N 229.106 1.52395 0.401703 0
M  V30 2459 C 230.353 1.66817 1.14796 0
M  V30 2460 C 230.681 0.401772 1.90305 0
M  V30 2461 O 229.936 -0.615487 1.85769 0
M  V30 2462 C 230.235 2.84578 2.16217 0
M  V30 2463 C 229.901 4.22513 1.5746 0
M  V30 2464 C 228.563 4.60029 1.41161 0
M  V30 2465 C 230.915 5.0844 1.14622 0
M  V30 2466 C 228.243 5.81144 0.80552 0
M  V30 2467 C 230.595 6.30167 0.55428 0
M  V30 2468 C 229.259 6.66426 0.378482 0
M  V30 2469 H 228.529 0.610428 0.420069 0
M  V30 2470 H 231.176 1.86512 0.434212 0
M  V30 2471 H 229.481 2.59248 2.93764 0
M  V30 2472 H 231.178 2.92933 2.73845 0
M  V30 2473 H 227.768 3.92953 1.71132 0
M  V30 2474 H 231.952 4.80034 1.26021 0
M  V30 2475 H 227.208 6.07855 0.657399 0
M  V30 2476 H 231.382 6.96071 0.213983 0
M  V30 2477 H 229.009 7.60143 -0.0932606 0
M  V30 2478 N 230.584 -0.659388 1.43143 0
M  V30 2479 C 231.532 -1.79374 1.4808 0
M  V30 2480 C 232.526 -1.65639 0.354988 0
M  V30 2481 O 233.732 -1.7206 0.528704 0
M  V30 2482 H 230.107 -0.591705 0.4641 0
M  V30 2483 H 232.078 -1.72329 2.43609 0
M  V30 2484 C 230.827 -3.17606 1.41499 0
M  V30 2485 H 230.15 -3.28809 2.27431 0
M  V30 2486 H 231.59 -3.96951 1.49015 0
M  V30 2487 C 230.049 -3.36642 0.131765 0
M  V30 2488 O 230.579 -3.93461 -0.809386 0
M  V30 2489 N 228.785 -2.90567 0.0439396 0
M  V30 2490 H 228.332 -2.44513 0.810619 0
M  V30 2491 H 228.29 -3.03681 -0.813969 0
M  V30 2492 N 232.062 -1.29571 -0.897171 0
M  V30 2493 C 233.025 -1.14913 -1.98312 0
M  V30 2494 C 234.025 -0.0838629 -1.60581 0
M  V30 2495 O 235.215 -0.331006 -1.71026 0
M  V30 2496 C 232.347 -0.757835 -3.3237 0
M  V30 2497 H 233.54 -2.11377 -2.12743 0
M  V30 2498 H 231.093 -1.12793 -1.08201 0
M  V30 2499 H 231.828 0.206837 -3.2364 0
M  V30 2500 H 231.613 -1.52755 -3.61121 0
M  V30 2501 H 233.103 -0.678408 -4.12053 0
M  V30 2502 N 233.54 1.10788 -1.12088 0
M  V30 2503 C 234.765 1.87002 -0.896949 0
M  V30 2504 C 235.19 1.79933 0.548261 0
M  V30 2505 O 234.548 1.16662 1.38779 0
M  V30 2506 C 234.596 3.3349 -1.37174 0
M  V30 2507 O 233.7 4.08745 -0.547831 0
M  V30 2508 H 233.041 0.580397 -0.322545 0
M  V30 2509 H 235.571 1.39996 -1.49206 0
M  V30 2510 H 235.581 3.84339 -1.36922 0
M  V30 2511 H 234.256 3.37951 -2.42408 0
M  V30 2512 H 232.833 3.6776 -0.617034 0
M  V30 2513 N 235.018 0.912232 1.28515 0
M  V30 2514 C 236.264 0.545405 1.95328 0
M  V30 2515 C 236.597 -0.908313 1.71649 0
M  V30 2516 O 235.872 -1.64575 1.03659 0
M  V30 2517 C 236.155 0.853483 3.4984 0
M  V30 2518 C 236.008 2.35982 3.82926 0
M  V30 2519 C 237.327 0.348589 4.38717 0
M  V30 2520 H 234.446 0.199626 0.709449 0
M  V30 2521 H 237.088 1.1412 1.5191 0
M  V30 2522 H 235.238 0.34643 3.86952 0
M  V30 2523 H 236.91 2.93738 3.55691 0
M  V30 2524 H 235.153 2.81543 3.30024 0
M  V30 2525 H 235.824 2.52593 4.90816 0
M  V30 2526 H 238.3 0.78294 4.08668 0
M  V30 2527 H 237.176 0.593242 5.45685 0
M  V30 2528 H 237.437 -0.751049 4.35674 0
M  V30 2529 N 236.496 -1.42363 0.676048 0
M  V30 2530 C 237.907 -1.84649 0.275948 0
M  V30 2531 C 238.258 -1.56588 -1.18214 0
M  V30 2532 O 237.383 -1.02634 -1.90513 0
M  V30 2533 C 237.978 -3.35178 0.494053 0
M  V30 2534 C 236.537 -3.76109 0.148061 0
M  V30 2535 C 235.684 -2.65931 0.785891 0
M  V30 2536 H 238.635 -1.32192 0.878121 0
M  V30 2537 H 238.656 -3.79655 -0.25343 0
M  V30 2538 H 238.168 -3.55571 1.55535 0
M  V30 2539 H 236.269 -3.61323 -0.909742 0
M  V30 2540 H 236.382 -4.7546 0.589454 0
M  V30 2541 H 234.746 -2.53773 0.217113 0
M  V30 2542 H 235.529 -2.89146 1.85067 0
M  V30 2543 N 237.974 -0.419461 -1.51915 0
M  V30 2544 C 238.884 0.407528 -2.31033 0
M  V30 2545 C 239.9 1.04413 -1.3919 0
M  V30 2546 O 241.076 1.0434 -1.72265 0
M  V30 2547 C 238.141 1.50365 -3.12396 0
M  V30 2548 C 237.202 0.889029 -4.19994 0
M  V30 2549 C 236.435 1.93291 -4.97468 0
M  V30 2550 O 236.658 3.15259 -4.75361 0
M  V30 2551 O 235.592 1.53339 -5.8204 0
M  V30 2552 H 239.418 -0.237865 -3.02767 0
M  V30 2553 H 237.003 -0.182413 -1.48282 0
M  V30 2554 H 238.885 2.13975 -3.63032 0
M  V30 2555 H 237.56 2.13345 -2.43445 0
M  V30 2556 H 236.467 0.215353 -3.7348 0
M  V30 2557 H 237.8 0.302991 -4.91267 0
M  V30 2558 N 239.452 1.56882 -0.150215 0
M  V30 2559 C 240.677 2.01027 0.510184 0
M  V30 2560 C 241.102 1.02966 1.57415 0
M  V30 2561 O 240.46 0.00590158 1.81299 0
M  V30 2562 C 240.508 3.43899 1.08472 0
M  V30 2563 O 239.612 3.4885 2.19948 0
M  V30 2564 H 238.953 0.652233 0.124451 0
M  V30 2565 H 241.483 2.03093 -0.247894 0
M  V30 2566 H 241.493 3.82766 1.41259 0
M  V30 2567 H 240.168 4.14776 0.305582 0
M  V30 2568 H 238.745 3.21827 1.88366 0
M  V30 2569 N 240.93 -0.123565 1.57115 0
M  V30 2570 C 242.155 -0.850398 1.89164 0
M  V30 2571 C 242.58 -1.7286 0.741688 0
M  V30 2572 O 241.938 -1.78665 -0.307958 0
M  V30 2573 C 241.986 -1.66353 3.19936 0
M  V30 2574 O 241.09 -2.77004 3.0552 0
M  V30 2575 H 240.431 -0.235454 0.620852 0
M  V30 2576 H 242.961 -0.107335 2.04318 0
M  V30 2577 H 242.971 -2.05372 3.52543 0
M  V30 2578 H 241.646 -1.01881 4.03228 0
M  V30 2579 H 240.223 -2.41221 2.84371 0
M  V30 2580 N 242.408 -1.52605 -0.393616 0
M  V30 2581 C 243.371 -1.76415 -1.46323 0
M  V30 2582 C 244.371 -0.634126 -1.47768 0
M  V30 2583 O 245.561 -0.902142 -1.4902 0
M  V30 2584 C 242.693 -1.8607 -2.85641 0
M  V30 2585 H 243.886 -2.71916 -1.26498 0
M  V30 2586 H 241.439 -1.43257 -0.625073 0
M  V30 2587 H 242.174 -0.925378 -3.10817 0
M  V30 2588 H 241.959 -2.68235 -2.85993 0
M  V30 2589 H 243.449 -2.06179 -3.63153 0
M  V30 2590 N 243.887 0.651787 -1.4349 0
M  V30 2591 C 245.133 1.41376 -1.45398 0
M  V30 2592 C 245.466 1.94041 -0.0784823 0
M  V30 2593 O 244.741 1.72379 0.900878 0
M  V30 2594 C 245.024 2.59414 -2.49752 0
M  V30 2595 C 244.877 2.12232 -3.96582 0
M  V30 2596 C 246.196 3.61626 -2.50827 0
M  V30 2597 H 243.315 0.512719 -0.529422 0
M  V30 2598 H 245.957 0.738796 -1.75048 0
M  V30 2599 H 244.107 3.16997 -2.246 0
M  V30 2600 H 245.779 1.59639 -4.32797 0
M  V30 2601 H 244.022 1.43592 -4.09346 0
M  V30 2602 H 244.693 2.9712 -4.65214 0
M  V30 2603 H 247.169 3.13805 -2.7325 0
M  V30 2604 H 246.045 4.41766 -3.25783 0
M  V30 2605 H 246.306 4.14314 -1.5426 0
M  V30 2606 N 245.365 1.30045 0.890287 0
M  V30 2607 C 246.613 1.18327 1.63839 0
M  V30 2608 C 246.934 -0.263455 1.93212 0
M  V30 2609 O 246.204 -1.17856 1.56482 0
M  V30 2610 H 244.784 0.434933 0.607324 0
M  V30 2611 H 247.446 1.631 1.06698 0
M  V30 2612 H 246.542 1.74024 2.59079 0
M  V30 2613 N 246.843 -1.10192 1.12674 0
M  V30 2614 C 248.071 -1.85983 0.906527 0
M  V30 2615 C 248.486 -1.80783 -0.544333 0
M  V30 2616 O 247.843 -1.19834 -1.37645 0
M  V30 2617 C 247.894 -3.34281 1.37618 0
M  V30 2618 O 247.615 -3.39401 2.77017 0
M  V30 2619 C 249.116 -4.26938 1.19325 0
M  V30 2620 H 246.336 -0.587716 0.323775 0
M  V30 2621 H 248.88 -1.39284 1.49734 0
M  V30 2622 H 247.035 -3.78436 0.828539 0
M  V30 2623 H 247.449 -4.31838 2.97684 0
M  V30 2624 H 248.923 -5.29181 1.57071 0
M  V30 2625 H 249.4 -4.38995 0.134097 0
M  V30 2626 H 250.006 -3.8859 1.72852 0
M  V30 2627 N 248.321 -0.919034 -1.28029 0
M  V30 2628 C 249.546 -0.570357 -1.99403 0
M  V30 2629 C 249.971 0.842486 -1.68178 0
M  V30 2630 O 249.329 1.56391 -0.917141 0
M  V30 2631 C 249.377 -0.792541 -3.51783 0
M  V30 2632 O 248.481 0.145988 -4.12142 0
M  V30 2633 H 247.822 -0.220555 -0.6263 0
M  V30 2634 H 250.352 -1.23592 -1.63053 0
M  V30 2635 H 250.362 -0.704708 -4.01868 0
M  V30 2636 H 249.037 -1.82247 -3.73844 0
M  V30 2637 H 247.614 0.00897528 -3.72899 0
M  V30 2638 N 249.799 1.42003 -0.683588 0
M  V30 2639 C 251.045 2.01712 -0.209825 0
M  V30 2640 C 251.378 1.53968 1.18353 0
M  V30 2641 O 250.653 0.745661 1.79639 0
M  V30 2642 C 250.936 3.59202 -0.254197 0
M  V30 2643 C 250.789 4.17102 -1.68363 0
M  V30 2644 C 252.108 4.38344 0.392709 0
M  V30 2645 H 249.227 0.732891 -0.0777189 0
M  V30 2646 H 251.869 1.68909 -0.87004 0
M  V30 2647 H 250.019 3.87278 0.307954 0
M  V30 2648 H 251.691 3.99946 -2.29871 0
M  V30 2649 H 249.934 3.72597 -2.22157 0
M  V30 2650 H 250.605 5.26249 -1.6663 0
M  V30 2651 H 253.081 4.16011 -0.0859162 0
M  V30 2652 H 251.957 5.47901 0.331063 0
M  V30 2653 H 252.218 4.16887 1.47164 0
M  V30 2654 N 251.277 0.427512 1.51691 0
M  V30 2655 C 252.526 -0.143679 2.01188 0
M  V30 2656 C 252.839 -1.44642 1.31674 0
M  V30 2657 O 254.045 -2.09997 1.72086 0
M  V30 2658 C 252.501 -0.306602 3.58592 0
M  V30 2659 C 252.109 0.985125 4.37035 0
M  V30 2660 C 253.853 -0.832091 4.16265 0
M  V30 2661 C 251.76 0.788382 5.86122 0
M  V30 2662 H 250.69 -0.0574701 0.751807 0
M  V30 2663 H 253.341 0.555772 1.74881 0
M  V30 2664 H 251.723 -1.06882 3.81303 0
M  V30 2665 H 252.897 1.75492 4.26074 0
M  V30 2666 H 251.212 1.4384 3.90767 0
M  V30 2667 H 253.809 -0.995617 5.25349 0
M  V30 2668 H 254.152 -1.81186 3.74803 0
M  V30 2669 H 254.685 -0.128444 3.97593 0
M  V30 2670 H 251.424 1.74025 6.31978 0
M  V30 2671 H 250.944 0.0582143 5.99772 0
M  V30 2672 H 252.623 0.437722 6.45518 0
M  V30 2673 N 252.755 -1.56801 0.158532 0
M  V30 2674 C 253.98 -2.01295 -0.499516 0
M  V30 2675 C 254.405 -1.03799 -1.56867 0
M  V30 2676 O 253.763 -0.0155162 -1.81293 0
M  V30 2677 C 253.811 -3.44469 -1.06647 0
M  V30 2678 O 252.915 -3.50012 -2.18095 0
M  V30 2679 H 252.256 -0.652884 -0.12099 0
M  V30 2680 H 254.786 -2.02958 0.258661 0
M  V30 2681 H 254.796 -3.8351 -1.39227 0
M  V30 2682 H 253.471 -4.14932 -0.283581 0
M  V30 2683 H 252.048 -3.22822 -1.86656 0
M  V30 2684 N 254.233 0.115231 -1.57178 0
M  V30 2685 C 255.479 0.82357 -1.85325 0
M  V30 2686 C 255.812 1.79349 -0.744814 0
M  V30 2687 O 255.087 1.92899 0.249024 0
M  V30 2688 C 255.37 1.57014 -3.24066 0
M  V30 2689 C 255.223 0.619565 -4.45513 0
M  V30 2690 C 256.542 2.52545 -3.60429 0
M  V30 2691 H 253.661 0.297948 -0.674089 0
M  V30 2692 H 256.303 0.0877138 -1.89797 0
M  V30 2693 H 254.453 2.19742 -3.20383 0
M  V30 2694 H 256.125 0.000837639 -4.613 0
M  V30 2695 H 254.368 -0.0686174 -4.33746 0
M  V30 2696 H 255.039 1.17866 -5.3927 0
M  V30 2697 H 257.515 1.9992 -3.64926 0
M  V30 2698 H 256.391 3.01811 -4.58477 0
M  V30 2699 H 256.652 3.35383 -2.88047 0
M  V30 2700 N 255.711 1.52812 0.385517 0
M  V30 2701 C 256.939 1.71907 1.15133 0
M  V30 2702 C 257.354 0.439004 1.83625 0
M  V30 2703 O 256.711 -0.586765 1.7281 0
M  V30 2704 C 256.762 2.87099 2.19673 0
M  V30 2705 O 256.483 4.10151 1.53973 0
M  V30 2706 C 257.984 3.17902 3.08955 0
M  V30 2707 H 255.204 0.575479 0.345057 0
M  V30 2708 H 257.748 1.99476 0.45052 0
M  V30 2709 H 255.903 2.61982 2.85384 0
M  V30 2710 H 256.317 4.74514 2.23465 0
M  V30 2711 H 257.791 4.01959 3.7833 0
M  V30 2712 H 258.268 2.3243 3.72657 0
M  V30 2713 H 258.874 3.44871 2.48885 0
M  V30 2714 N 257.189 -0.644168 1.43834 0
M  V30 2715 C 258.152 -1.73857 1.49353 0
M  V30 2716 C 259.152 -1.56315 0.377112 0
M  V30 2717 O 260.342 -1.62048 0.639226 0
M  V30 2718 C 257.474 -3.12819 1.35488 0
M  V30 2719 H 258.667 -1.70342 2.46827 0
M  V30 2720 H 256.22 -0.856652 1.30733 0
M  V30 2721 H 256.955 -3.2194 0.390569 0
M  V30 2722 H 256.74 -3.26958 2.16428 0
M  V30 2723 H 258.23 -3.92606 1.42302 0
M  V30 2724 N 258.668 -1.30515 -0.883378 0
M  V30 2725 C 259.914 -1.19607 -1.63774 0
M  V30 2726 C 260.247 0.248314 -1.92606 0
M  V30 2727 O 259.522 1.17742 -1.54813 0
M  V30 2728 C 259.805 -2.02669 -2.97653 0
M  V30 2729 C 259.658 -3.55335 -2.75784 0
M  V30 2730 C 260.977 -1.86573 -3.98596 0
M  V30 2731 H 258.096 -0.435856 -0.594305 0
M  V30 2732 H 260.738 -1.60165 -1.02212 0
M  V30 2733 H 258.888 -1.68208 -3.50197 0
M  V30 2734 H 260.56 -3.99863 -2.30016 0
M  V30 2735 H 258.803 -3.79438 -2.1026 0
M  V30 2736 H 259.474 -4.08745 -3.70988 0
M  V30 2737 H 261.95 -2.16703 -3.55217 0
M  V30 2738 H 260.826 -2.47014 -4.90179 0
M  V30 2739 H 261.087 -0.825321 -4.34328 0
M  V30 2740 N 260.146 1.09593 -1.13257 0
M  V30 2741 C 261.423 1.78293 -0.804432 0
M  V30 2742 C 261.803 1.99004 0.70431 0
M  V30 2743 O 261.151 1.59007 1.641 0
M  V30 2744 C 261.361 3.10707 -1.5894 0
M  V30 2745 C 262.709 3.85443 -1.78099 0
M  V30 2746 O 263.733 3.20454 -1.55525 0
M  V30 2747 O 262.592 5.02108 -2.15753 0
M  V30 2748 H 259.686 0.773156 -0.293528 0
M  V30 2749 H 262.232 1.16164 -1.23709 0
M  V30 2750 H 261.004 2.91106 -2.61482 0
M  V30 2751 H 260.627 3.80558 -1.15157 0
M  V30 2752 N 261.624 0.925811 1.2754 0
M  V30 2753 C 262.587 0.428129 2.25166 0
M  V30 2754 C 263.587 -0.452261 1.54309 0
M  V30 2755 O 264.777 -0.253608 1.72344 0
M  V30 2756 C 261.909 -0.384749 3.38722 0
M  V30 2757 H 263.102 1.29066 2.70706 0
M  V30 2758 H 260.655 0.706323 1.3943 0
M  V30 2759 H 261.39 -1.26618 2.98561 0
M  V30 2760 H 261.175 0.246454 3.91325 0
M  V30 2761 H 262.665 -0.723389 4.11287 0
M  V30 2762 N 263.102 -1.41638 0.69111 0
M  V30 2763 C 264.379 -1.95036 0.148421 0
M  V30 2764 C 264.759 -1.63072 -1.34055 0
M  V30 2765 O 264.107 -0.93538 -2.08478 0
M  V30 2766 C 264.317 -3.46279 0.434951 0
M  V30 2767 C 265.665 -4.23069 0.360275 0
M  V30 2768 O 266.689 -3.54277 0.369613 0
M  V30 2769 O 265.548 -5.45583 0.316534 0
M  V30 2770 H 262.642 -0.826908 0.0123654 0
M  V30 2771 H 265.188 -1.5138 0.766963 0
M  V30 2772 H 263.96 -3.6281 1.46576 0
M  V30 2773 H 263.583 -3.97019 -0.214787 0
M  V30 2774 N 264.58 -0.43555 -1.51462 0
M  V30 2775 C 265.857 0.191364 -1.94662 0
M  V30 2776 C 266.237 1.60254 -1.37411 0
M  V30 2777 O 265.585 2.2152 -0.560458 0
M  V30 2778 C 265.795 0.17091 -3.48581 0
M  V30 2779 C 267.143 0.377357 -4.2292 0
M  V30 2780 O 268.167 0.249104 -3.55328 0
M  V30 2781 O 267.026 0.63247 -5.42828 0
M  V30 2782 H 264.12 0.130932 -0.816569 0
M  V30 2783 H 266.666 -0.4934 -1.62369 0
M  V30 2784 H 265.438 -0.815738 -3.82703 0
M  V30 2785 H 265.061 0.898659 -3.87311 0
M  V30 2786 N 266.058 1.56714 -0.166846 0
M  V30 2787 C 267.469 1.83378 0.350646 0
M  V30 2788 C 267.82 1.08646 1.63372 0
M  V30 2789 O 266.945 0.338058 2.13743 0
M  V30 2790 C 267.54 3.32643 0.642963 0
M  V30 2791 C 266.099 3.59818 1.10491 0
M  V30 2792 C 265.246 2.76954 0.138411 0
M  V30 2793 H 268.197 1.53803 -0.391193 0
M  V30 2794 H 268.218 3.49878 1.49551 0
M  V30 2795 H 267.73 3.87007 -0.291055 0
M  V30 2796 H 265.831 3.1086 2.05418 0
M  V30 2797 H 265.944 4.68178 1.01716 0
M  V30 2798 H 264.308 2.4666 0.634911 0
M  V30 2799 H 265.091 3.34097 -0.789549 0
M  V30 2800 N 267.536 -0.106894 1.57237 0
M  V30 2801 C 268.764 -0.826389 1.8968 0
M  V30 2802 C 269.179 -1.72856 0.759353 0
M  V30 2803 O 268.536 -1.80503 -0.269263 0
M  V30 2804 C 268.587 -1.64967 3.21665 0
M  V30 2805 O 268.308 -0.783804 4.31031 0
M  V30 2806 C 269.809 -2.47326 3.67892 0
M  V30 2807 H 267.029 -0.236927 0.627779 0
M  V30 2808 H 269.573 -0.0876593 2.04312 0
M  V30 2809 H 267.728 -2.34103 3.08666 0
M  V30 2810 H 268.142 -1.35284 5.06753 0
M  V30 2811 H 269.616 -3.00604 4.6297 0
M  V30 2812 H 270.093 -3.25247 2.95146 0
M  V30 2813 H 270.699 -1.83411 3.83719 0
M  V30 2814 N 269.014 -1.53014 -0.377408 0
M  V30 2815 C 270.26 -1.68872 -1.12294 0
M  V30 2816 C 270.593 -0.433224 -1.89306 0
M  V30 2817 O 269.868 0.569258 -1.85983 0
M  V30 2818 C 270.151 -2.93115 -2.09179 0
M  V30 2819 C 270.004 -4.28794 -1.35853 0
M  V30 2820 C 271.323 -3.12928 -3.09458 0
M  V30 2821 H 268.442 -0.614518 -0.406862 0
M  V30 2822 H 271.084 -1.85633 -0.40503 0
M  V30 2823 H 269.234 -2.78956 -2.70399 0
M  V30 2824 H 270.906 -4.54742 -0.775082 0
M  V30 2825 H 269.149 -4.28744 -0.660364 0
M  V30 2826 H 269.82 -5.11837 -2.06706 0
M  V30 2827 H 272.296 -3.26194 -2.58334 0
M  V30 2828 H 271.172 -4.01316 -3.74482 0
M  V30 2829 H 271.433 -2.27669 -3.78971 0
M  V30 2830 N 270.492 0.636531 -1.44174 0
M  V30 2831 C 271.74 1.39343 -1.46383 0
M  V30 2832 C 272.061 1.94766 -0.0955715 0
M  V30 2833 O 271.331 1.75452 0.871395 0
M  V30 2834 H 269.911 0.517199 -0.538994 0
M  V30 2835 H 272.573 0.74957 -1.7991 0
M  V30 2836 H 271.669 2.22746 -2.18611 0
M  V30 2837 N 271.97 1.30982 0.876444 0
M  V30 2838 C 273.247 1.10942 1.61094 0
M  V30 2839 C 273.627 -0.338223 2.08373 0
M  V30 2840 O 272.975 -1.33122 1.85717 0
M  V30 2841 C 273.185 2.11789 2.77392 0
M  V30 2842 C 274.533 2.43965 3.47514 0
M  V30 2843 O 275.557 2.10166 2.87591 0
M  V30 2844 O 274.416 3.01817 4.55597 0
M  V30 2845 H 271.51 0.42667 0.708436 0
M  V30 2846 H 274.056 1.42438 0.922474 0
M  V30 2847 H 272.828 3.09194 2.39823 0
M  V30 2848 H 272.451 1.81161 3.5393 0
M  V30 2849 N 273.449 -1.08991 1.13837 0
M  V30 2850 C 274.399 -2.1393 0.788535 0
M  V30 2851 C 275.383 -1.59396 -0.219516 0
M  V30 2852 O 276.575 -1.76985 -0.0227557 0
M  V30 2853 C 273.704 -3.42305 0.261147 0
M  V30 2854 C 272.79 -4.03736 1.29837 0
M  V30 2855 N 273.181 -4.39659 2.50067 0
M  V30 2856 C 271.479 -4.30993 1.1472 0
M  V30 2857 C 272.18 -4.88113 3.16419 0
M  V30 2858 N 271.156 -4.85846 2.43832 0
M  V30 2859 H 274.958 -2.39516 1.70322 0
M  V30 2860 H 272.472 -1.26263 1.02134 0
M  V30 2861 H 274.469 -4.16899 -0.0077405 0
M  V30 2862 H 273.129 -3.18172 -0.647805 0
M  V30 2863 H 274.14 -4.30878 2.8734 0
M  V30 2864 H 270.817 -4.16444 0.296773 0
M  V30 2865 H 272.207 -5.25336 4.18894 0
M  V30 2866 N 274.927 -0.932562 -1.27047 0
M  V30 2867 C 275.89 -0.440064 -2.24936 0
M  V30 2868 C 276.89 0.444071 -1.54547 0
M  V30 2869 O 278.08 0.244465 -1.72476 0
M  V30 2870 C 275.212 0.36678 -3.38921 0
M  V30 2871 H 276.405 -1.305 -2.70018 0
M  V30 2872 H 273.958 -0.713707 -1.39054 0
M  V30 2873 H 274.693 1.25033 -2.99228 0
M  V30 2874 H 274.478 -0.267204 -3.91188 0
M  V30 2875 H 275.968 0.701567 -4.11665 0
M  V30 2876 N 276.405 1.4127 -0.698611 0
M  V30 2877 C 277.63 2.06024 -0.238512 0
M  V30 2878 C 278.055 1.5224 1.10475 0
M  V30 2879 O 277.413 0.650623 1.69223 0
M  V30 2880 C 277.461 3.59988 -0.209952 0
M  V30 2881 O 276.565 4.04282 0.814235 0
M  V30 2882 H 275.906 0.653829 -0.115775 0
M  V30 2883 H 278.436 1.8098 -0.954326 0
M  V30 2884 H 278.446 4.07979 -0.0418436 0
M  V30 2885 H 277.121 3.98503 -1.1903 0
M  V30 2886 H 275.698 3.6779 0.615234 0
M  V30 2887 N 277.883 0.443576 1.51229 0
M  V30 2888 C 279.129 -0.120975 2.02439 0
M  V30 2889 C 279.462 -1.41815 1.32674 0
M  V30 2890 O 278.737 -1.89373 0.443622 0
M  V30 2891 C 279.02 -0.333291 3.58554 0
M  V30 2892 C 278.873 0.982968 4.38928 0
M  V30 2893 C 280.192 -1.10028 4.26124 0
M  V30 2894 H 277.311 -0.0424923 0.735774 0
M  V30 2895 H 279.953 0.583794 1.80809 0
M  V30 2896 H 278.103 -0.933614 3.77115 0
M  V30 2897 H 279.775 1.61775 4.32003 0
M  V30 2898 H 278.018 1.58611 4.03763 0
M  V30 2899 H 278.689 0.788379 5.46341 0
M  V30 2900 H 281.165 -0.591711 4.11871 0
M  V30 2901 H 280.041 -1.21761 5.35225 0
M  V30 2902 H 280.302 -2.12996 3.87408 0
M  V30 2903 N 279.361 -1.56624 0.175154 0
M  V30 2904 C 280.294 -2.14 -0.792412 0
M  V30 2905 C 281.272 -1.07114 -1.22333 0
M  V30 2906 O 282.456 -1.35112 -1.31442 0
M  V30 2907 C 279.583 -2.68268 -2.0676 0
M  V30 2908 C 278.629 -3.87562 -1.7804 0
M  V30 2909 S 279.462 -5.27074 -0.946222 0
M  V30 2910 C 280.618 -5.8475 -2.23199 0
M  V30 2911 H 280.851 -2.95736 -0.304588 0
M  V30 2912 H 278.384 -1.54349 -0.0395705 0
M  V30 2913 H 280.342 -3.00182 -2.80002 0
M  V30 2914 H 279.003 -1.86612 -2.52656 0
M  V30 2915 H 278.196 -4.23874 -2.72666 0
M  V30 2916 H 277.798 -3.56555 -1.12891 0
M  V30 2917 H 280.09 -5.97898 -3.18629 0
M  V30 2918 H 281.033 -6.81756 -1.91349 0
M  V30 2919 H 281.441 -5.13198 -2.35134 0
M  V30 2920 N 280.839 0.0985539 -1.57292 0
M  V30 2921 C 282.069 0.815135 -1.8984 0
M  V30 2922 C 282.477 1.7297 -0.766679 0
M  V30 2923 O 281.82 1.81698 0.270483 0
M  V30 2924 C 281.882 1.6842 -3.17608 0
M  V30 2925 C 281.546 0.94182 -4.4719 0
M  V30 2926 C 282.543 0.273212 -5.19182 0
M  V30 2927 C 280.228 0.916927 -4.9386 0
M  V30 2928 C 282.222 -0.410361 -6.36078 0
M  V30 2929 C 279.909 0.229567 -6.10669 0
M  V30 2930 C 280.907 -0.432902 -6.81627 0
M  V30 2931 O 280.595 -1.10925 -7.9621 0
M  V30 2932 H 280.327 0.238501 -0.632529 0
M  V30 2933 H 282.881 0.0812659 -2.05239 0
M  V30 2934 H 281.111 2.46022 -2.98345 0
M  V30 2935 H 282.8 2.27704 -3.36015 0
M  V30 2936 H 283.566 0.283927 -4.84168 0
M  V30 2937 H 279.445 1.42201 -4.3852 0
M  V30 2938 H 282.989 -0.928013 -6.914 0
M  V30 2939 H 278.886 0.216686 -6.45136 0
M  V30 2940 H 279.654 -1.01579 -8.12172 0
M  V30 2941 N 282.317 1.53212 0.369288 0
M  V30 2942 C 283.249 1.75668 1.47219 0
M  V30 2943 C 284.262 0.637387 1.49804 0
M  V30 2944 O 285.451 0.913561 1.5335 0
M  V30 2945 C 282.551 1.81818 2.85999 0
M  V30 2946 C 281.724 3.11409 3.07153 0
M  V30 2947 C 280.783 3.08849 4.26026 0
M  V30 2948 O 279.809 3.82659 4.2138 0
M  V30 2949 N 281.011 2.29409 5.33246 0
M  V30 2950 H 283.776 2.70832 1.28337 0
M  V30 2951 H 281.337 1.51944 0.55898 0
M  V30 2952 H 283.329 1.77588 3.63655 0
M  V30 2953 H 281.899 0.939544 2.98146 0
M  V30 2954 H 281.119 3.28971 2.1719 0
M  V30 2955 H 282.407 3.97059 3.18154 0
M  V30 2956 H 281.805 1.68946 5.39883 0
M  V30 2957 H 280.362 2.31001 6.09493 0
M  V30 2958 N 283.795 -0.628877 1.44509 0
M  V30 2959 C 285.044 -1.38437 1.4669 0
M  V30 2960 C 285.357 -1.95322 0.104272 0
M  V30 2961 O 286.563 -2.715 0.00362163 0
M  V30 2962 C 285.019 -2.50659 2.5826 0
M  V30 2963 C 284.627 -2.00277 4.0074 0
M  V30 2964 C 286.371 -3.27844 2.69664 0
M  V30 2965 C 284.278 -3.09854 5.0373 0
M  V30 2966 H 283.208 -0.520245 0.545766 0
M  V30 2967 H 285.859 -0.676313 1.70582 0
M  V30 2968 H 284.241 -3.2405 2.27612 0
M  V30 2969 H 285.415 -1.33736 4.40966 0
M  V30 2970 H 283.73 -1.35901 3.93599 0
M  V30 2971 H 286.327 -4.09534 3.43781 0
M  V30 2972 H 286.67 -3.77471 1.75559 0
M  V30 2973 H 287.203 -2.61543 2.99733 0
M  V30 2974 H 283.942 -2.65168 5.99472 0
M  V30 2975 H 283.462 -3.7503 4.68095 0
M  V30 2976 H 285.141 -3.74592 5.27532 0
M  V30 2977 N 285.273 -1.31445 -0.869486 0
M  V30 2978 C 286.203 -1.21727 -1.99261 0
M  V30 2979 C 287.184 -0.104359 -1.6978 0
M  V30 2980 O 288.369 -0.289038 -1.92037 0
M  V30 2981 C 285.499 -0.924317 -3.34774 0
M  V30 2982 C 284.453 -1.99685 -3.78563 0
M  V30 2983 C 283.779 -1.55658 -5.11541 0
M  V30 2984 C 285.079 -3.41003 -3.95619 0
M  V30 2985 H 286.773 -2.1569 -2.07649 0
M  V30 2986 H 284.319 -1.03839 -0.997675 0
M  V30 2987 H 286.272 -0.842934 -4.12883 0
M  V30 2988 H 284.996 0.0509793 -3.2656 0
M  V30 2989 H 283.655 -2.06813 -3.02694 0
M  V30 2990 H 283.303 -0.569132 -4.9977 0
M  V30 2991 H 283.003 -2.27409 -5.41811 0
M  V30 2992 H 284.527 -1.48928 -5.92159 0
M  V30 2993 H 285.941 -3.36547 -4.64122 0
M  V30 2994 H 284.338 -4.10975 -4.37286 0
M  V30 2995 H 285.408 -3.81754 -2.98985 0
M  V30 2996 N 286.751 1.08385 -1.14413 0
M  V30 2997 C 287.698 2.15311 -0.831265 0
M  V30 2998 C 288.668 1.64751 0.211292 0
M  V30 2999 O 289.853 1.90627 0.0811674 0
M  V30 3000 C 286.993 3.43658 -0.315143 0
M  V30 3001 C 286.106 4.08064 -1.41802 0
M  V30 3002 C 285.241 5.24207 -0.859126 0
M  V30 3003 C 284.28 5.80554 -1.93967 0
M  V30 3004 N 283.417 6.88042 -1.39793 0
M  V30 3005 H 288.257 2.41415 -1.74708 0
M  V30 3006 H 285.794 1.18474 -0.871909 0
M  V30 3007 H 287.752 4.172 0.00230884 0
M  V30 3008 H 286.382 3.17839 0.56378 0
M  V30 3009 H 285.434 3.3228 -1.85187 0
M  V30 3010 H 286.746 4.45962 -2.23427 0
M  V30 3011 H 285.9 6.04689 -0.49359 0
M  V30 3012 H 284.639 4.87699 -0.011932 0
M  V30 3013 H 283.644 4.98725 -2.31415 0
M  V30 3014 H 284.869 6.19121 -2.79046 0
M  V30 3015 H 282.815 6.53493 -0.572919 0
M  V30 3016 H 282.732 7.24767 -2.15054 0
M  V30 3017 H 284 7.72255 -1.0603 0
M  V30 3018 N 288.23 0.939286 1.26551 0
M  V30 3019 C 289.478 0.58469 1.93457 0
M  V30 3020 C 289.799 -0.878774 1.74076 0
M  V30 3021 O 289.069 -1.62421 1.09528 0
M  V30 3022 H 287.649 0.21325 0.715914 0
M  V30 3023 H 290.311 1.1942 1.54029 0
M  V30 3024 H 289.407 0.800849 3.0165 0
M  V30 3025 N 289.708 -1.40897 0.706093 0
M  V30 3026 C 290.655 -2.30751 0.0474474 0
M  V30 3027 C 291.625 -1.47678 -0.76029 0
M  V30 3028 O 292.81 -1.76441 -0.726177 0
M  V30 3029 C 289.95 -3.33815 -0.875309 0
M  V30 3030 C 289.063 -4.31961 -0.0580623 0
M  V30 3031 C 288.198 -5.22093 -0.979425 0
M  V30 3032 C 287.237 -6.11902 -0.155706 0
M  V30 3033 N 286.374 -6.94482 -1.03144 0
M  V30 3034 H 291.214 -2.86513 0.819413 0
M  V30 3035 H 288.751 -1.41102 0.415783 0
M  V30 3036 H 290.709 -3.92129 -1.42446 0
M  V30 3037 H 289.339 -2.79579 -1.61356 0
M  V30 3038 H 288.391 -3.75507 0.608147 0
M  V30 3039 H 289.703 -4.95415 0.580082 0
M  V30 3040 H 288.857 -5.85292 -1.59744 0
M  V30 3041 H 287.596 -4.5889 -1.65141 0
M  V30 3042 H 286.601 -5.47742 0.475309 0
M  V30 3043 H 287.826 -6.77162 0.512635 0
M  V30 3044 H 285.772 -6.33877 -1.68924 0
M  V30 3045 H 285.689 -7.54665 -0.449108 0
M  V30 3046 H 286.957 -7.6214 -1.63593 0
M  V30 3047 N 291.186 -0.45159 -1.50991 0
M  V30 3048 C 292.096 0.358431 -2.31846 0
M  V30 3049 C 293.112 1.01438 -1.41373 0
M  V30 3050 O 294.288 1.00663 -1.74439 0
M  V30 3051 C 291.353 1.43704 -3.15515 0
M  V30 3052 C 290.414 0.799742 -4.21785 0
M  V30 3053 C 289.647 1.82696 -5.01456 0
M  V30 3054 O 289.87 3.05105 -4.81941 0
M  V30 3055 O 288.804 1.40958 -5.85162 0
M  V30 3056 H 292.63 -0.302032 -3.02194 0
M  V30 3057 H 290.215 -0.213825 -1.47862 0
M  V30 3058 H 292.097 2.06227 -3.67489 0
M  V30 3059 H 290.772 2.08133 -2.47916 0
M  V30 3060 H 289.679 0.136084 -3.73852 0
M  V30 3061 H 291.012 0.198718 -4.91799 0
M  V30 3062 N 292.664 1.56529 -0.183458 0
M  V30 3063 C 293.894 2.01331 0.463612 0
M  V30 3064 C 294.302 1.06278 1.5653 0
M  V30 3065 O 293.645 0.0577976 1.83609 0
M  V30 3066 C 293.707 3.42547 1.09096 0
M  V30 3067 C 293.371 4.56817 0.129442 0
M  V30 3068 C 294.368 5.15734 -0.656807 0
M  V30 3069 C 292.053 5.02295 0.02174 0
M  V30 3070 C 294.047 6.1857 -1.53784 0
M  V30 3071 C 291.734 6.04978 -0.862864 0
M  V30 3072 C 292.732 6.62988 -1.64123 0
M  V30 3073 O 292.42 7.63677 -2.51103 0
M  V30 3074 H 292.152 0.664917 0.121907 0
M  V30 3075 H 294.706 2.034 -0.285954 0
M  V30 3076 H 292.936 3.37428 1.88889 0
M  V30 3077 H 294.625 3.71228 1.64148 0
M  V30 3078 H 295.391 4.81473 -0.583839 0
M  V30 3079 H 291.27 4.56847 0.617392 0
M  V30 3080 H 294.814 6.63777 -2.14583 0
M  V30 3081 H 290.711 6.38663 -0.93699 0
M  V30 3082 H 291.479 7.81049 -2.44753 0
M  V30 3083 N 294.142 -0.090211 1.57342 0
M  V30 3084 C 295.389 -0.792807 1.86335 0
M  V30 3085 C 295.717 -1.78494 0.772662 0
M  V30 3086 O 294.972 -1.94305 -0.233258 0
M  V30 3087 C 295.271 -1.55222 3.21933 0
M  V30 3088 C 294.937 -0.701765 4.45406 0
M  V30 3089 C 293.599 -0.467334 4.78925 0
M  V30 3090 C 295.951 -0.11086 5.21082 0
M  V30 3091 C 293.279 0.367785 5.85546 0
M  V30 3092 C 295.631 0.711609 6.28585 0
M  V30 3093 C 294.295 0.956086 6.60617 0
M  V30 3094 H 293.565 -0.290109 0.681849 0
M  V30 3095 H 296.212 -0.0541332 1.91423 0
M  V30 3096 H 294.517 -2.3626 3.12551 0
M  V30 3097 H 296.214 -2.10032 3.41595 0
M  V30 3098 H 292.804 -0.894598 4.1916 0
M  V30 3099 H 296.988 -0.279129 4.95514 0
M  V30 3100 H 292.244 0.566128 6.08773 0
M  V30 3101 H 296.418 1.17632 6.86393 0
M  V30 3102 H 294.045 1.60499 7.43064 0
M  V30 3103 N 295.62 -1.53406 -0.361157 0
M  V30 3104 C 296.583 -1.79479 -1.42548 0
M  V30 3105 C 297.583 -0.665327 -1.4639 0
M  V30 3106 O 298.773 -0.933549 -1.47073 0
M  V30 3107 C 295.905 -1.92087 -2.8163 0
M  V30 3108 H 297.098 -2.74538 -1.20701 0
M  V30 3109 H 294.651 -1.4455 -0.594546 0
M  V30 3110 H 295.386 -0.991099 -3.08784 0
M  V30 3111 H 295.171 -2.74241 -2.80239 0
M  V30 3112 H 296.661 -2.13836 -3.58697 0
M  V30 3113 N 297.098 0.621204 -1.44841 0
M  V30 3114 C 298.347 1.37658 -1.47422 0
M  V30 3115 C 298.66 1.95264 -0.114629 0
M  V30 3116 O 299.866 2.71494 -0.0180199 0
M  V30 3117 C 298.322 2.49285 -2.59586 0
M  V30 3118 C 297.93 1.98149 -4.01797 0
M  V30 3119 C 299.674 3.26409 -2.71399 0
M  V30 3120 C 297.581 3.07178 -5.05367 0
M  V30 3121 H 296.511 0.517344 -0.548517 0
M  V30 3122 H 299.162 0.667257 -1.70938 0
M  V30 3123 H 297.544 3.22839 -2.29328 0
M  V30 3124 H 298.718 1.31395 -4.41669 0
M  V30 3125 H 297.033 1.33812 -3.94314 0
M  V30 3126 H 299.63 4.07706 -3.45948 0
M  V30 3127 H 299.973 3.76535 -1.77559 0
M  V30 3128 H 300.506 2.5995 -3.01116 0
M  V30 3129 H 297.245 2.61985 -6.00869 0
M  V30 3130 H 296.765 3.72542 -4.70077 0
M  V30 3131 H 298.444 3.71789 -5.29511 0
M  V30 3132 N 298.576 1.31904 0.862503 0
M  V30 3133 C 299.853 1.12644 1.59908 0
M  V30 3134 C 300.233 -0.316104 2.0872 0
M  V30 3135 O 299.581 -1.31145 1.87118 0
M  V30 3136 C 299.791 2.1472 2.7513 0
M  V30 3137 C 301.139 2.47637 3.44907 0
M  V30 3138 O 302.163 2.13205 2.85346 0
M  V30 3139 O 301.022 3.06632 4.52371 0
M  V30 3140 H 298.116 0.43416 0.703871 0
M  V30 3141 H 300.662 1.43408 0.907314 0
M  V30 3142 H 299.434 3.1172 2.3653 0
M  V30 3143 H 299.057 1.84905 3.51989 0
M  V30 3144 N 300.054 -1.07777 1.14986 0
M  V30 3145 C 301.002 -2.16964 0.838406 0
M  V30 3146 C 301.996 -1.68372 -0.186386 0
M  V30 3147 O 303.202 -1.79951 -0.0418465 0
M  V30 3148 H 299.577 -0.708006 0.253439 0
M  V30 3149 H 301.548 -2.40454 1.76704 0
M  V30 3150 C 300.297 -3.4604 0.339335 0
M  V30 3151 H 299.62 -3.83813 1.11927 0
M  V30 3152 H 301.06 -4.23698 0.160021 0
M  V30 3153 C 299.519 -3.23569 -0.938325 0
M  V30 3154 O 300.049 -3.47752 -2.01077 0
M  V30 3155 N 298.255 -2.77079 -0.876117 0
M  V30 3156 H 297.802 -2.576 -0.00322037 0
M  V30 3157 H 297.76 -2.62422 -1.73153 0
M  V30 3158 N 301.532 -0.945985 -1.26051 0
M  V30 3159 C 302.757 -0.612525 -1.98149 0
M  V30 3160 C 303.182 0.806623 -1.69927 0
M  V30 3161 O 302.54 1.54411 -0.950108 0
M  V30 3162 C 302.588 -0.866981 -3.50023 0
M  V30 3163 O 301.692 0.0585333 -4.12358 0
M  V30 3164 H 301.033 -0.23379 -0.621481 0
M  V30 3165 H 303.563 -1.27023 -1.60395 0
M  V30 3166 H 303.573 -0.789792 -4.00283 0
M  V30 3167 H 302.248 -1.90135 -3.69894 0
M  V30 3168 H 300.825 -0.0701241 -3.72834 0
M  V30 3169 N 303.011 1.40521 -0.713556 0
M  V30 3170 C 304.259 2.00527 -0.251692 0
M  V30 3171 C 304.58 1.56857 1.15848 0
M  V30 3172 O 303.85 0.807127 1.785 0
M  V30 3173 H 302.43 0.741551 -0.0900646 0
M  V30 3174 H 305.092 1.71887 -0.918733 0
M  V30 3175 H 304.188 3.10813 -0.283192 0
M  V30 3176 N 304.489 0.459591 1.5075 0
M  V30 3177 C 305.905 0.113092 1.59199 0
M  V30 3178 C 306.105 -1.37951 1.46874 0
M  V30 3179 O 305.161 -2.15168 1.32132 0
M  V30 3180 C 306.474 0.653043 2.93523 0
M  V30 3181 C 308.022 0.615449 3.0689 0
M  V30 3182 C 308.497 1.13275 4.43771 0
M  V30 3183 N 309.988 1.09167 4.50152 0
M  V30 3184 C 310.723 1.46256 5.54434 0
M  V30 3185 N 310.219 1.90739 6.66026 0
M  V30 3186 N 312.012 1.37932 5.44914 0
M  V30 3187 H 304.163 1.43049 1.57005 0
M  V30 3188 H 306.426 0.590861 0.741341 0
M  V30 3189 H 306.132 1.69822 3.07983 0
M  V30 3190 H 306.006 0.0902132 3.77092 0
M  V30 3191 H 308.393 -0.420793 2.92084 0
M  V30 3192 H 308.474 1.21495 2.25106 0
M  V30 3193 H 308.118 2.16757 4.59324 0
M  V30 3194 H 308.048 0.509576 5.24129 0
M  V30 3195 H 310.539 0.76528 3.7007 0
M  V30 3196 H 310.852 2.17218 7.41644 0
M  V30 3197 H 309.197 1.94683 6.67176 0
M  V30 3198 H 312.388 1.0303 4.56621 0
M  V30 3199 H 312.561 1.67164 6.26067 0
M  V30 3200 N 305.967 -1.56429 0.191757 0
M  V30 3201 C 307.216 -1.9666 -0.448088 0
M  V30 3202 C 307.529 -1.08136 -1.62991 0
M  V30 3203 O 308.735 -1.38135 -2.33733 0
M  V30 3204 C 307.191 -3.49753 -0.848585 0
M  V30 3205 C 306.799 -4.46935 0.308764 0
M  V30 3206 C 308.543 -3.9876 -1.4557 0
M  V30 3207 C 306.45 -5.91293 -0.112506 0
M  V30 3208 H 305.38 -0.734312 -0.171179 0
M  V30 3209 H 308.031 -1.81301 0.283242 0
M  V30 3210 H 306.413 -3.60604 -1.63649 0
M  V30 3211 H 307.587 -4.47813 1.08627 0
M  V30 3212 H 305.902 -4.08102 0.827158 0
M  V30 3213 H 308.499 -5.04086 -1.78328 0
M  V30 3214 H 308.842 -3.42875 -2.36099 0
M  V30 3215 H 309.375 -3.9101 -0.731836 0
M  V30 3216 H 306.114 -6.51097 0.758514 0
M  V30 3217 H 305.634 -5.93676 -0.854941 0
M  V30 3218 H 307.313 -6.44663 -0.549448 0
M  V30 3219 N 307.445 0.0818655 -1.57387 0
M  V30 3220 C 308.694 0.781681 -1.85937 0
M  V30 3221 C 309.007 1.79246 -0.782957 0
M  V30 3222 O 310.213 2.54112 -0.955987 0
M  V30 3223 C 308.669 1.44109 -3.29789 0
M  V30 3224 C 308.277 0.469396 -4.45534 0
M  V30 3225 C 310.021 2.12386 -3.67549 0
M  V30 3226 C 307.928 1.13415 -5.80423 0
M  V30 3227 H 306.858 0.295682 -0.693605 0
M  V30 3228 H 309.509 0.0348051 -1.83467 0
M  V30 3229 H 307.891 2.23588 -3.2684 0
M  V30 3230 H 309.065 -0.294856 -4.59856 0
M  V30 3231 H 307.38 -0.108383 -4.16259 0
M  V30 3232 H 309.977 2.62878 -4.65617 0
M  V30 3233 H 310.32 2.91877 -2.96839 0
M  V30 3234 H 310.853 1.39751 -3.72444 0
M  V30 3235 H 307.592 0.379771 -6.54399 0
M  V30 3236 H 307.112 1.8695 -5.69921 0
M  V30 3237 H 308.791 1.65686 -6.25426 0
M  V30 3238 N 308.923 1.53595 0.353017 0
M  V30 3239 C 310.151 1.74311 1.1146 0
M  V30 3240 C 310.566 0.477854 1.82653 0
M  V30 3241 O 309.923 -0.549977 1.74016 0
M  V30 3242 C 309.974 2.91694 2.13534 0
M  V30 3243 O 309.695 4.13325 1.45238 0
M  V30 3244 C 311.196 3.24384 3.02142 0
M  V30 3245 H 308.416 0.582669 0.332773 0
M  V30 3246 H 310.96 2.00386 0.408107 0
M  V30 3247 H 309.115 2.67977 2.79763 0
M  V30 3248 H 309.529 4.79148 2.13349 0
M  V30 3249 H 311.003 4.09893 3.69718 0
M  V30 3250 H 311.48 2.40282 3.67643 0
M  V30 3251 H 312.086 3.50073 2.41514 0
M  V30 3252 N 310.401 -0.613514 1.45168 0
M  V30 3253 C 311.65 -1.36874 1.4815 0
M  V30 3254 C 311.963 -1.952 0.124982 0
M  V30 3255 O 313.169 -2.71481 0.0324176 0
M  V30 3256 C 311.625 -2.47905 2.60904 0
M  V30 3257 C 311.233 -1.96016 4.02842 0
M  V30 3258 C 312.977 -3.24965 2.73126 0
M  V30 3259 C 310.884 -3.04494 5.06988 0
M  V30 3260 H 309.814 -0.514428 0.551253 0
M  V30 3261 H 312.465 -0.658182 1.7129 0
M  V30 3262 H 310.847 -3.21618 2.31037 0
M  V30 3263 H 312.021 -1.29051 4.4236 0
M  V30 3264 H 310.336 -1.31719 3.95018 0
M  V30 3265 H 312.933 -4.05865 3.48106 0
M  V30 3266 H 313.276 -3.75588 1.79553 0
M  V30 3267 H 313.809 -2.5835 3.0249 0
M  V30 3268 H 310.548 -2.58795 6.0225 0
M  V30 3269 H 310.068 -3.70044 4.72046 0
M  V30 3270 H 311.747 -3.68976 5.31475 0
M  V30 3271 N 311.879 -1.3236 -0.855495 0
M  V30 3272 C 313.107 -1.2587 -1.64208 0
M  V30 3273 C 313.522 0.173457 -1.88002 0
M  V30 3274 O 312.879 1.11027 -1.44842 0
M  V30 3275 C 312.93 -2.01424 -3.00184 0
M  V30 3276 O 312.651 -3.39051 -2.77445 0
M  V30 3277 C 314.152 -2.01948 -3.94629 0
M  V30 3278 H 311.372 -0.434318 -0.511477 0
M  V30 3279 H 313.916 -1.74469 -1.0668 0
M  V30 3280 H 312.071 -1.56549 -3.5436 0
M  V30 3281 H 312.485 -3.77711 -3.63916 0
M  V30 3282 H 313.959 -2.59297 -4.87308 0
M  V30 3283 H 314.436 -1.00554 -4.27534 0
M  V30 3284 H 315.042 -2.46767 -3.4639 0
M  V30 3285 N 313.357 1.07166 -1.15556 0
M  V30 3286 C 314.304 2.14417 -0.854055 0
M  V30 3287 C 315.274 1.64965 0.193806 0
M  V30 3288 O 316.459 1.90703 0.0609443 0
M  V30 3289 C 313.599 3.43304 -0.351574 0
M  V30 3290 C 312.712 4.06537 -1.46123 0
M  V30 3291 C 311.847 5.23266 -0.914677 0
M  V30 3292 C 310.886 5.78464 -2.00114 0
M  V30 3293 N 310.023 6.86521 -1.47083 0
M  V30 3294 H 314.863 2.39548 -1.77259 0
M  V30 3295 H 312.4 1.17543 -0.884425 0
M  V30 3296 H 314.358 4.17179 -0.0419409 0
M  V30 3297 H 312.988 3.18419 0.530037 0
M  V30 3298 H 312.04 3.30297 -1.88701 0
M  V30 3299 H 313.352 4.43567 -2.28144 0
M  V30 3300 H 312.506 6.04131 -0.557698 0
M  V30 3301 H 311.245 4.87658 -0.0636583 0
M  V30 3302 H 310.25 4.96243 -2.36692 0
M  V30 3303 H 311.475 6.16126 -2.85597 0
M  V30 3304 H 309.421 6.52849 -0.642198 0
M  V30 3305 H 309.338 7.22446 -2.22729 0
M  V30 3306 H 310.606 7.71087 -1.14215 0
M  V30 3307 N 314.835 0.952656 1.25548 0
M  V30 3308 C 316.06 0.623025 1.97821 0
M  V30 3309 C 316.485 -0.7976 1.70352 0
M  V30 3310 O 315.843 -1.53905 0.958283 0
M  V30 3311 C 315.891 0.885532 3.49558 0
M  V30 3312 O 314.995 -0.0366641 4.12384 0
M  V30 3313 H 314.336 0.237082 0.620232 0
M  V30 3314 H 316.866 1.27871 1.59719 0
M  V30 3315 H 316.876 0.811009 3.99858 0
M  V30 3316 H 315.551 1.92094 3.6888 0
M  V30 3317 H 314.128 0.0898954 3.72792 0
M  V30 3318 N 316.313 -1.40141 0.720998 0
M  V30 3319 C 317.243 -2.33339 0.0867621 0
M  V30 3320 C 318.224 -1.53178 -0.739622 0
M  V30 3321 O 319.409 -1.81625 -0.687449 0
M  V30 3322 C 316.539 -3.37194 -0.831728 0
M  V30 3323 C 315.493 -4.27857 -0.110558 0
M  V30 3324 C 314.819 -5.22294 -1.14513 0
M  V30 3325 C 316.119 -5.11872 1.0385 0
M  V30 3326 H 317.813 -2.86626 0.865219 0
M  V30 3327 H 315.359 -1.37814 0.417516 0
M  V30 3328 H 317.312 -4.01335 -1.28485 0
M  V30 3329 H 316.036 -2.82314 -1.64214 0
M  V30 3330 H 314.695 -3.65176 0.322797 0
M  V30 3331 H 314.343 -4.63717 -1.94874 0
M  V30 3332 H 314.043 -5.83797 -0.667446 0
M  V30 3333 H 315.567 -5.89312 -1.59824 0
M  V30 3334 H 316.981 -5.69436 0.664482 0
M  V30 3335 H 315.378 -5.82445 1.4449 0
M  V30 3336 H 316.448 -4.4753 1.86668 0
M  V30 3337 N 317.792 -0.46758 -1.50504 0
M  V30 3338 C 319.069 0.15003 -1.95024 0
M  V30 3339 C 319.449 1.57304 -1.40779 0
M  V30 3340 O 318.797 2.20281 -0.607319 0
M  V30 3341 C 319.007 0.0969324 -3.48865 0
M  V30 3342 C 320.355 0.287565 -4.23625 0
M  V30 3343 O 321.379 0.173678 -3.55776 0
M  V30 3344 O 320.238 0.517186 -5.44047 0
M  V30 3345 H 317.332 0.113582 -0.819163 0
M  V30 3346 H 319.878 -0.52773 -1.61286 0
M  V30 3347 H 318.65 -0.896732 -3.80886 0
M  V30 3348 H 318.273 0.816303 -3.8913 0
M  V30 3349 N 319.27 1.56325 -0.20005 0
M  V30 3350 C 320.686 1.58839 0.155716 0
M  V30 3351 C 320.886 1.21636 1.60645 0
M  V30 3352 O 319.942 0.941437 2.34293 0
M  V30 3353 C 321.255 3.0032 -0.151124 0
M  V30 3354 C 322.803 3.12866 -0.0916284 0
M  V30 3355 C 323.278 4.56488 -0.371845 0
M  V30 3356 N 324.769 4.62089 -0.320641 0
M  V30 3357 C 325.504 5.71116 -0.511243 0
M  V30 3358 N 325 6.88592 -0.762461 0
M  V30 3359 N 326.793 5.60335 -0.445157 0
M  V30 3360 H 318.944 1.78788 -1.14668 0
M  V30 3361 H 321.207 0.829996 -0.458051 0
M  V30 3362 H 320.913 3.32117 -1.15721 0
M  V30 3363 H 320.787 3.73257 0.543986 0
M  V30 3364 H 323.174 2.80878 0.905065 0
M  V30 3365 H 323.255 2.42304 -0.81989 0
M  V30 3366 H 322.899 4.89189 -1.36588 0
M  V30 3367 H 322.829 5.25246 0.377362 0
M  V30 3368 H 325.32 3.77665 -0.13329 0
M  V30 3369 H 325.633 7.67581 -0.896576 0
M  V30 3370 H 323.978 6.90387 -0.799412 0
M  V30 3371 H 327.169 4.67436 -0.249278 0
M  V30 3372 H 327.342 6.45243 -0.597116 0
M  V30 3373 N 320.748 -0.0735177 1.57428 0
M  V30 3374 C 321.658 -1.10547 2.06922 0
M  V30 3375 C 322.674 -1.42506 0.998402 0
M  V30 3376 O 323.85 -1.52717 1.31299 0
M  V30 3377 C 320.915 -2.40019 2.50184 0
M  V30 3378 C 319.976 -2.15046 3.71556 0
M  V30 3379 C 319.209 -3.38345 4.12745 0
M  V30 3380 O 319.432 -4.47399 3.53822 0
M  V30 3381 O 318.366 -3.2666 5.05546 0
M  V30 3382 H 322.192 -0.715013 2.95163 0
M  V30 3383 H 319.777 -0.287531 1.46607 0
M  V30 3384 H 321.659 -3.16218 2.78539 0
M  V30 3385 H 320.334 -2.78447 1.65072 0
M  V30 3386 H 319.241 -1.36558 3.48285 0
M  V30 3387 H 320.574 -1.81499 4.57514 0
M  V30 3388 N 322.226 -1.5378 -0.344866 0
M  V30 3389 C 323.173 -1.81676 -1.42346 0
M  V30 3390 C 324.143 -0.662376 -1.52321 0
M  V30 3391 O 325.328 -0.906675 -1.67881 0
M  V30 3392 C 322.468 -2.03087 -2.79015 0
M  V30 3393 C 321.581 -3.30799 -2.77842 0
M  V30 3394 C 320.716 -3.42285 -4.0622 0
M  V30 3395 C 319.755 -4.6395 -3.9927 0
M  V30 3396 N 318.892 -4.72477 -5.19336 0
M  V30 3397 H 323.732 -2.73703 -1.17858 0
M  V30 3398 H 321.269 -1.35568 -0.570949 0
M  V30 3399 H 323.227 -2.1349 -3.58438 0
M  V30 3400 H 321.857 -1.14375 -3.01858 0
M  V30 3401 H 320.909 -3.29244 -1.90533 0
M  V30 3402 H 322.221 -4.20314 -2.68584 0
M  V30 3403 H 321.375 -3.52113 -4.94066 0
M  V30 3404 H 320.114 -2.50823 -4.18258 0
M  V30 3405 H 319.119 -4.54201 -3.09809 0
M  V30 3406 H 320.344 -5.56775 -3.88817 0
M  V30 3407 H 318.29 -3.83924 -5.3192 0
M  V30 3408 H 318.207 -5.55927 -5.12329 0
M  V30 3409 H 319.475 -4.86613 -6.08957 0
M  V30 3410 N 323.704 0.605807 -1.45491 0
M  V30 3411 C 324.636 1.73031 -1.5031 0
M  V30 3412 C 325.649 1.57968 -0.393687 0
M  V30 3413 O 326.838 1.65817 -0.660839 0
M  V30 3414 C 323.938 3.11049 -1.34543 0
M  V30 3415 C 323.111 3.52334 -2.59189 0
M  V30 3416 C 322.17 4.69323 -2.37954 0
M  V30 3417 O 321.196 4.7635 -3.11575 0
M  V30 3418 N 322.398 5.62705 -1.4263 0
M  V30 3419 H 325.163 1.6936 -2.4726 0
M  V30 3420 H 322.724 0.79114 -1.41254 0
M  V30 3421 H 324.716 3.87071 -1.18144 0
M  V30 3422 H 323.286 3.09217 -0.458623 0
M  V30 3423 H 322.506 2.66256 -2.90691 0
M  V30 3424 H 323.794 3.76677 -3.42041 0
M  V30 3425 H 323.192 5.59744 -0.818758 0
M  V30 3426 H 321.749 6.38252 -1.32202 0
M  V30 3427 N 325.182 1.32811 0.848464 0
M  V30 3428 C 326.145 1.22194 1.9391 0
M  V30 3429 C 327.145 0.143404 1.60159 0
M  V30 3430 O 328.335 0.394253 1.6968 0
M  V30 3431 C 325.467 0.88067 3.29328 0
M  V30 3432 H 326.66 2.19127 2.04752 0
M  V30 3433 H 324.213 1.16731 1.0394 0
M  V30 3434 H 324.948 -0.0865776 3.24184 0
M  V30 3435 H 324.733 1.66052 3.55203 0
M  V30 3436 H 326.223 0.830871 4.09251 0
M  V30 3437 N 326.66 -1.06551 1.16123 0
M  V30 3438 C 328.076 -1.3142 0.905585 0
M  V30 3439 C 328.276 -1.96571 -0.442964 0
M  V30 3440 O 327.332 -2.23068 -1.18308 0
M  V30 3441 C 328.645 -2.19741 2.05267 0
M  V30 3442 C 330.193 -2.33165 2.08813 0
M  V30 3443 C 330.668 -3.24838 3.22868 0
M  V30 3444 N 332.159 -3.32421 3.22568 0
M  V30 3445 C 332.894 -4.0344 4.0746 0
M  V30 3446 N 332.39 -4.77003 5.02434 0
M  V30 3447 N 334.183 -3.99464 3.95456 0
M  V30 3448 H 326.334 -0.626548 2.02949 0
M  V30 3449 H 328.597 -0.338777 0.8854 0
M  V30 3450 H 328.303 -1.79142 3.02657 0
M  V30 3451 H 328.177 -3.20313 1.99198 0
M  V30 3452 H 330.564 -2.73013 1.12018 0
M  V30 3453 H 330.645 -1.3227 2.18948 0
M  V30 3454 H 330.289 -2.85708 4.19921 0
M  V30 3455 H 330.219 -4.25707 3.0997 0
M  V30 3456 H 332.71 -2.79994 2.53795 0
M  V30 3457 H 333.023 -5.28712 5.63634 0
M  V30 3458 H 331.368 -4.75992 5.06415 0
M  V30 3459 H 334.559 -3.4111 3.20564 0
M  V30 3460 H 334.732 -4.54544 4.61837 0
M  V30 3461 N 328.138 -0.959301 -1.25041 0
M  V30 3462 C 329.368 -0.63303 -1.96663 0
M  V30 3463 C 329.776 0.800031 -1.71453 0
M  V30 3464 O 329.119 1.54736 -0.99008 0
M  V30 3465 C 329.181 -0.817523 -3.50081 0
M  V30 3466 C 328.845 -2.22863 -3.98975 0
M  V30 3467 C 329.842 -3.20569 -4.09306 0
M  V30 3468 C 327.527 -2.55407 -4.32519 0
M  V30 3469 C 329.521 -4.4891 -4.52503 0
M  V30 3470 C 327.208 -3.83976 -4.754 0
M  V30 3471 C 328.206 -4.8054 -4.85356 0
M  V30 3472 O 327.894 -6.06817 -5.27284 0
M  V30 3473 H 327.626 -0.235866 -0.633516 0
M  V30 3474 H 330.18 -1.2874 -1.60047 0
M  V30 3475 H 328.41 -0.105992 -3.86555 0
M  V30 3476 H 330.099 -0.491604 -4.02912 0
M  V30 3477 H 330.865 -2.96753 -3.83618 0
M  V30 3478 H 326.744 -1.8097 -4.23994 0
M  V30 3479 H 330.288 -5.24283 -4.60188 0
M  V30 3480 H 326.185 -4.07596 -5.00535 0
M  V30 3481 H 326.953 -6.10262 -5.45457 0
M  V30 3482 N 329.616 1.39756 -0.72842 0
M  V30 3483 C 330.526 2.34444 -0.0855374 0
M  V30 3484 C 331.542 1.57976 0.729356 0
M  V30 3485 O 332.718 1.90301 0.659346 0
M  V30 3486 C 329.783 3.36965 0.815798 0
M  V30 3487 C 328.844 4.29299 -0.0105996 0
M  V30 3488 C 328.077 5.26923 0.84781 0
M  V30 3489 O 328.3 5.30859 2.08673 0
M  V30 3490 O 327.234 6.01249 0.279969 0
M  V30 3491 H 331.06 2.91065 -0.866892 0
M  V30 3492 H 328.645 1.4117 -0.48902 0
M  V30 3493 H 330.527 3.99804 1.33171 0
M  V30 3494 H 329.202 2.82739 1.57608 0
M  V30 3495 H 328.109 3.69703 -0.571877 0
M  V30 3496 H 329.442 4.86712 -0.73295 0
M  V30 3497 N 331.094 0.475555 1.50254 0
M  V30 3498 C 332.343 -0.0795996 2.01543 0
M  V30 3499 C 332.656 -1.4038 1.36209 0
M  V30 3500 O 333.862 -2.04415 1.7868 0
M  V30 3501 C 332.318 -0.192363 3.59386 0
M  V30 3502 C 331.926 1.12367 4.33679 0
M  V30 3503 C 333.67 -0.699238 4.18701 0
M  V30 3504 C 331.577 0.974453 5.83317 0
M  V30 3505 H 330.507 -0.0335228 0.753254 0
M  V30 3506 H 333.158 0.611128 1.73025 0
M  V30 3507 H 331.54 -0.946974 3.84511 0
M  V30 3508 H 332.714 1.88958 4.20276 0
M  V30 3509 H 331.029 1.562 3.85993 0
M  V30 3510 H 333.626 -0.827978 5.28251 0
M  V30 3511 H 333.969 -1.69171 3.80377 0
M  V30 3512 H 334.502 -0.00188807 3.978 0
M  V30 3513 H 331.241 1.94042 6.26121 0
M  V30 3514 H 330.761 0.248998 5.99283 0
M  V30 3515 H 332.44 0.642867 6.43798 0
M  V30 3516 N 332.573 -1.56217 0.208337 0
M  V30 3517 C 333.819 -1.98242 -0.427552 0
M  V30 3518 C 334.152 -1.09554 -1.60348 0
M  V30 3519 O 333.427 -0.15035 -1.93918 0
M  V30 3520 C 333.71 -3.4931 -0.874907 0
M  V30 3521 C 333.563 -4.48773 0.303751 0
M  V30 3522 C 334.882 -4.04424 -1.73577 0
M  V30 3523 H 332.001 -0.720744 -0.153936 0
M  V30 3524 H 334.643 -1.87586 0.30192 0
M  V30 3525 H 332.793 -3.58522 -1.49648 0
M  V30 3526 H 334.465 -4.51586 0.941682 0
M  V30 3527 H 332.708 -4.23194 0.953375 0
M  V30 3528 H 333.379 -5.51976 -0.0519883 0
M  V30 3529 H 335.855 -3.98075 -1.21143 0
M  V30 3530 H 334.731 -5.1047 -2.01771 0
M  V30 3531 H 334.992 -3.50494 -2.69456 0
M  V30 3532 N 334.051 0.0651679 -1.57465 0
M  V30 3533 C 335.297 0.764193 -1.87851 0
M  V30 3534 C 335.63 1.76889 -0.801495 0
M  V30 3535 O 334.905 1.93594 0.187528 0
M  V30 3536 C 335.188 1.46625 -3.28897 0
M  V30 3537 C 335.041 0.477515 -4.47258 0
M  V30 3538 C 336.36 2.4095 -3.68281 0
M  V30 3539 H 333.479 0.276351 -0.683227 0
M  V30 3540 H 336.121 0.0272868 -1.8998 0
M  V30 3541 H 334.271 2.09438 -3.27212 0
M  V30 3542 H 335.943 -0.145922 -4.61069 0
M  V30 3543 H 334.186 -0.206576 -4.33308 0
M  V30 3544 H 334.857 1.0065 -5.42746 0
M  V30 3545 H 337.333 1.88209 -3.71102 0
M  V30 3546 H 336.209 2.87072 -4.67847 0
M  V30 3547 H 336.47 3.26049 -2.98571 0
M  V30 3548 N 335.529 1.53961 0.336706 0
M  V30 3549 C 336.439 1.85432 1.43708 0
M  V30 3550 C 337.455 0.745053 1.57242 0
M  V30 3551 O 338.631 1.03804 1.72588 0
M  V30 3552 C 335.696 2.06349 2.78605 0
M  V30 3553 C 334.757 3.30191 2.74358 0
M  V30 3554 C 333.99 3.50101 4.02822 0
M  V30 3555 O 334.213 2.7371 5.00439 0
M  V30 3556 O 333.147 4.43547 4.06878 0
M  V30 3557 H 336.973 2.78975 1.20028 0
M  V30 3558 H 334.558 1.39701 0.52952 0
M  V30 3559 H 336.44 2.21513 3.58483 0
M  V30 3560 H 335.115 1.15995 3.02203 0
M  V30 3561 H 334.022 3.20425 1.93078 0
M  V30 3562 H 335.355 4.2056 2.55715 0
M  V30 3563 N 337.007 -0.598083 1.45811 0
M  V30 3564 C 337.97 -1.69018 1.54808 0
M  V30 3565 C 338.97 -1.55037 0.426652 0
M  V30 3566 O 340.16 -1.59932 0.690456 0
M  V30 3567 C 337.292 -3.0835 1.45371 0
M  V30 3568 H 338.485 -1.62403 2.52121 0
M  V30 3569 H 336.038 -0.814626 1.33392 0
M  V30 3570 H 336.773 -3.20534 0.492793 0
M  V30 3571 H 336.558 -3.19907 2.26721 0
M  V30 3572 H 338.048 -3.8788 1.54721 0
M  V30 3573 N 338.485 -1.33259 -0.841409 0
M  V30 3574 C 339.901 -1.12538 -1.13169 0
M  V30 3575 C 340.101 0.0854037 -2.01319 0
M  V30 3576 O 339.157 0.766417 -2.40587 0
M  V30 3577 C 340.47 -2.41156 -1.79623 0
M  V30 3578 C 342.018 -2.47038 -1.922 0
M  V30 3579 C 342.493 -3.7561 -2.6207 0
M  V30 3580 N 343.984 -3.76667 -2.69585 0
M  V30 3581 C 344.719 -4.72861 -3.2433 0
M  V30 3582 N 344.215 -5.79428 -3.79783 0
M  V30 3583 N 346.008 -4.6034 -3.22558 0
M  V30 3584 H 338.159 -2.10868 -0.254676 0
M  V30 3585 H 340.422 -0.931615 -0.175493 0
M  V30 3586 H 340.128 -3.29747 -1.22311 0
M  V30 3587 H 340.002 -2.53114 -2.79666 0
M  V30 3588 H 342.389 -1.58898 -2.48667 0
M  V30 3589 H 342.47 -2.39022 -0.911148 0
M  V30 3590 H 342.114 -4.64131 -2.06263 0
M  V30 3591 H 342.044 -3.80902 -3.63622 0
M  V30 3592 H 344.535 -2.99648 -2.30259 0
M  V30 3593 H 344.848 -6.48867 -4.19752 0
M  V30 3594 H 343.193 -5.83166 -3.78078 0
M  V30 3595 H 346.384 -3.76244 -2.78492 0
M  V30 3596 H 346.557 -5.35478 -3.64921 0
M  V30 3597 N 339.963 1.05934 -1.16686 0
M  V30 3598 C 341.24 1.75643 -0.860747 0
M  V30 3599 C 341.62 2.01144 0.640641 0
M  V30 3600 O 340.968 1.64147 1.58959 0
M  V30 3601 C 341.178 3.05493 -1.68745 0
M  V30 3602 C 342.526 3.79581 -1.90271 0
M  V30 3603 O 343.55 3.15344 -1.65641 0
M  V30 3604 O 342.409 4.9499 -2.31618 0
M  V30 3605 H 339.503 0.763426 -0.317977 0
M  V30 3606 H 342.049 1.1217 -1.27342 0
M  V30 3607 H 340.821 2.8264 -2.70611 0
M  V30 3608 H 340.444 3.76702 -1.27206 0
M  V30 3609 N 341.441 0.965919 1.2453 0
M  V30 3610 C 342.404 0.499547 2.2369 0
M  V30 3611 C 343.404 -0.40294 1.5567 0
M  V30 3612 O 344.594 -0.19865 1.73064 0
M  V30 3613 C 341.726 -0.276792 3.39774 0
M  V30 3614 H 342.919 1.37613 2.66463 0
M  V30 3615 H 340.472 0.750324 1.37112 0
M  V30 3616 H 341.207 -1.17055 3.02438 0
M  V30 3617 H 340.992 0.370826 3.90343 0
M  V30 3618 H 342.482 -0.592175 4.1338 0
M  V30 3619 N 342.919 -1.39368 0.735821 0
M  V30 3620 C 343.851 -2.2913 0.0567723 0
M  V30 3621 C 344.864 -1.46859 -0.702589 0
M  V30 3622 O 346.053 -1.69925 -0.546616 0
M  V30 3623 C 343.153 -3.25492 -0.943823 0
M  V30 3624 C 342.326 -4.36709 -0.24581 0
M  V30 3625 C 341.385 -5.13376 -1.15463 0
M  V30 3626 O 340.411 -5.65683 -0.631803 0
M  V30 3627 N 341.613 -5.24656 -2.48427 0
M  V30 3628 H 344.378 -2.88047 0.827582 0
M  V30 3629 H 341.939 -1.50957 0.585112 0
M  V30 3630 H 343.931 -3.73657 -1.55443 0
M  V30 3631 H 342.501 -2.676 -1.61583 0
M  V30 3632 H 341.721 -3.9041 0.545286 0
M  V30 3633 H 343.009 -5.08244 0.237891 0
M  V30 3634 H 342.407 -4.83679 -2.93379 0
M  V30 3635 H 340.964 -5.76258 -3.04582 0
M  V30 3636 N 344.397 -0.483516 -1.5 0
M  V30 3637 C 345.645 0.067027 -2.01989 0
M  V30 3638 C 345.966 1.3909 -1.36671 0
M  V30 3639 O 345.236 1.88978 -0.516152 0
M  V30 3640 H 343.816 0.0277606 -0.746484 0
M  V30 3641 H 346.478 -0.636773 -1.84204 0
M  V30 3642 H 345.574 0.209484 -3.11396 0
M  V30 3643 N 345.875 1.56104 -0.216619 0
M  V30 3644 C 346.805 2.23063 0.690296 0
M  V30 3645 C 347.786 1.20072 1.20485 0
M  V30 3646 O 348.971 1.48643 1.24976 0
M  V30 3647 C 346.101 2.90672 1.90072 0
M  V30 3648 C 345.055 4.00092 1.5202 0
M  V30 3649 C 344.381 4.54972 2.80899 0
M  V30 3650 C 345.681 5.17398 0.71391 0
M  V30 3651 H 347.375 2.99109 0.132038 0
M  V30 3652 H 344.921 1.43866 0.0620664 0
M  V30 3653 H 346.874 3.36204 2.54057 0
M  V30 3654 H 345.598 2.12066 2.48386 0
M  V30 3655 H 344.257 3.55283 0.903839 0
M  V30 3656 H 343.905 3.73102 3.37348 0
M  V30 3657 H 343.605 5.28817 2.56176 0
M  V30 3658 H 345.129 5.0322 3.45836 0
M  V30 3659 H 346.543 5.59342 1.25735 0
M  V30 3660 H 344.94 5.97444 0.563951 0
M  V30 3661 H 346.01 4.84088 -0.280527 0
M  V30 3662 N 347.353 -0.0568162 1.57498 0
M  V30 3663 C 348.769 -0.411933 1.54192 0
M  V30 3664 C 348.969 -1.78287 0.938942 0
M  V30 3665 O 348.025 -2.46483 0.547919 0
M  V30 3666 C 349.338 -0.339244 2.9878 0
M  V30 3667 C 350.886 -0.418348 3.10192 0
M  V30 3668 C 351.361 -0.375407 4.56459 0
M  V30 3669 N 352.852 -0.435038 4.61153 0
M  V30 3670 C 353.587 -0.424265 5.71828 0
M  V30 3671 N 353.083 -0.367418 6.91825 0
M  V30 3672 N 354.876 -0.471938 5.60115 0
M  V30 3673 H 347.027 0.840684 1.95055 0
M  V30 3674 H 349.29 0.316987 0.893433 0
M  V30 3675 H 348.996 0.601742 3.46514 0
M  V30 3676 H 348.87 -1.14371 3.59443 0
M  V30 3677 H 351.257 -1.34976 2.62422 0
M  V30 3678 H 351.338 0.414962 2.52412 0
M  V30 3679 H 350.982 0.552219 5.04889 0
M  V30 3680 H 350.912 -1.22645 5.12119 0
M  V30 3681 H 353.403 -0.482612 3.74806 0
M  V30 3682 H 353.716 -0.363535 7.71944 0
M  V30 3683 H 352.061 -0.333879 6.94198 0
M  V30 3684 H 355.252 -0.514145 4.65268 0
M  V30 3685 H 355.425 -0.460073 6.46365 0
M  V30 3686 N 348.832 -1.54138 -0.328536 0
M  V30 3687 C 350.08 -1.71765 -1.06496 0
M  V30 3688 C 350.401 -0.49149 -1.88704 0
M  V30 3689 O 349.671 0.494539 -1.89555 0
M  V30 3690 H 348.251 -0.633295 -0.396164 0
M  V30 3691 H 350.913 -1.91429 -0.366176 0
M  V30 3692 H 350.009 -2.5951 -1.73381 0
M  V30 3693 N 350.31 0.590341 -1.46126 0
M  V30 3694 C 351.587 1.35029 -1.41515 0
M  V30 3695 C 351.967 2.10888 -0.0946472 0
M  V30 3696 O 351.315 2.08998 0.923693 0
M  V30 3697 C 351.525 2.28269 -2.63997 0
M  V30 3698 C 352.873 2.90338 -3.09821 0
M  V30 3699 O 353.897 2.38585 -2.64492 0
M  V30 3700 O 352.756 3.84321 -3.88535 0
M  V30 3701 H 349.85 0.606317 -0.562413 0
M  V30 3702 H 352.396 0.611994 -1.58281 0
M  V30 3703 H 351.168 1.71591 -3.51671 0
M  V30 3704 H 350.791 3.0945 -2.49652 0
M  V30 3705 N 351.788 1.33704 0.83433 0
M  V30 3706 C 353.013 1.28615 1.62705 0
M  V30 3707 C 353.438 -0.139242 1.87584 0
M  V30 3708 O 352.796 -1.09734 1.4432 0
M  V30 3709 C 352.844 2.07139 2.95171 0
M  V30 3710 O 351.948 1.4331 3.86699 0
M  V30 3711 H 351.289 0.44226 0.49528 0
M  V30 3712 H 353.819 1.76335 1.03766 0
M  V30 3713 H 353.829 2.18073 3.44831 0
M  V30 3714 H 352.504 3.10779 2.76386 0
M  V30 3715 H 351.081 1.4105 3.45195 0
M  V30 3716 N 353.266 -1.05314 1.17247 0
M  V30 3717 C 354.514 -1.77941 0.958194 0
M  V30 3718 C 354.835 -1.88089 -0.514556 0
M  V30 3719 O 354.105 -1.39676 -1.37359 0
M  V30 3720 H 352.685 -0.659116 0.351533 0
M  V30 3721 H 355.347 -1.27166 1.47699 0
M  V30 3722 H 354.443 -2.79663 1.38546 0
M  V30 3723 N 354.744 -0.972509 -1.24016 0
M  V30 3724 C 355.972 -0.654803 -1.96265 0
M  V30 3725 C 356.387 0.776708 -1.72083 0
M  V30 3726 O 355.744 1.52171 -1.00748 0
M  V30 3727 C 355.795 -0.92592 -3.49441 0
M  V30 3728 O 355.516 -2.30116 -3.72798 0
M  V30 3729 C 357.017 -0.623068 -4.38899 0
M  V30 3730 H 354.237 -0.243907 -0.6251 0
M  V30 3731 H 356.781 -1.30175 -1.57717 0
M  V30 3732 H 354.936 -0.325108 -3.86033 0
M  V30 3733 H 355.35 -2.38483 -4.67147 0
M  V30 3734 H 356.824 -0.863189 -5.45209 0
M  V30 3735 H 357.301 0.442754 -4.36963 0
M  V30 3736 H 357.907 -1.204 -4.07902 0
M  V30 3737 N 356.222 1.38976 -0.743202 0
M  V30 3738 C 357.185 2.28901 -0.117014 0
M  V30 3739 C 358.185 1.46698 0.658503 0
M  V30 3740 O 359.375 1.67274 0.486305 0
M  V30 3741 C 356.507 3.30309 0.84315 0
M  V30 3742 H 357.7 2.8578 -0.909373 0
M  V30 3743 H 355.253 1.47761 -0.509547 0
M  V30 3744 H 355.988 2.785 1.66157 0
M  V30 3745 H 355.773 3.91029 0.289594 0
M  V30 3746 H 357.263 3.97577 1.2776 0
M  V30 3747 N 357.7 0.491464 1.49741 0
M  V30 3748 C 358.928 -0.0535151 2.06831 0
M  V30 3749 C 359.343 -1.31683 1.35296 0
M  V30 3750 O 358.7 -1.77402 0.42836 0
M  V30 3751 C 358.751 -0.320835 3.60073 0
M  V30 3752 O 358.472 0.892394 4.28915 0
M  V30 3753 C 359.973 -0.910519 4.33848 0
M  V30 3754 H 357.193 0.0161909 0.670805 0
M  V30 3755 H 359.737 0.68609 1.92647 0
M  V30 3756 H 357.892 -1.0104 3.73991 0
M  V30 3757 H 358.306 0.649401 5.20464 0
M  V30 3758 H 359.78 -1.04721 5.41976 0
M  V30 3759 H 360.257 -1.90589 3.95692 0
M  V30 3760 H 360.863 -0.258712 4.24512 0
M  V30 3761 N 359.178 -1.55987 0.224894 0
M  V30 3762 C 360.424 -1.98684 -0.406502 0
M  V30 3763 C 360.757 -1.11248 -1.59177 0
M  V30 3764 O 360.032 -0.170909 -1.93748 0
M  V30 3765 C 360.315 -3.50218 -0.837808 0
M  V30 3766 C 360.168 -4.48426 0.351332 0
M  V30 3767 C 361.487 -4.06243 -1.69278 0
M  V30 3768 H 358.606 -0.722337 -0.146283 0
M  V30 3769 H 361.248 -1.87255 0.321799 0
M  V30 3770 H 359.398 -3.60089 -1.45837 0
M  V30 3771 H 361.07 -4.50562 0.989526 0
M  V30 3772 H 359.313 -4.22159 0.998207 0
M  V30 3773 H 359.984 -5.52 0.00655905 0
M  V30 3774 H 362.46 -3.99337 -1.16914 0
M  V30 3775 H 361.336 -5.12581 -1.96346 0
M  V30 3776 H 361.597 -3.53332 -2.65723 0
M  V30 3777 N 360.656 0.0484629 -1.57525 0
M  V30 3778 C 361.586 1.0549 -2.08313 0
M  V30 3779 C 362.567 1.38929 -0.981463 0
M  V30 3780 O 363.752 1.48151 -1.25558 0
M  V30 3781 C 360.882 2.36162 -2.54646 0
M  V30 3782 C 359.836 2.17016 -3.68901 0
M  V30 3783 C 359.162 3.53278 -4.01371 0
M  V30 3784 C 360.462 1.57219 -4.98076 0
M  V30 3785 H 362.156 0.632195 -2.92649 0
M  V30 3786 H 359.702 0.302654 -1.40784 0
M  V30 3787 H 361.655 3.06882 -2.88793 0
M  V30 3788 H 360.379 2.80456 -1.67368 0
M  V30 3789 H 359.038 1.48733 -3.35073 0
M  V30 3790 H 358.686 3.95185 -3.11188 0
M  V30 3791 H 358.386 3.41299 -4.78318 0
M  V30 3792 H 359.91 4.25391 -4.38035 0
M  V30 3793 H 361.324 2.17832 -5.30304 0
M  V30 3794 H 359.721 1.55871 -5.79503 0
M  V30 3795 H 360.791 0.535956 -4.81929 0
M  V30 3796 N 362.134 1.5431 0.320358 0
M  V30 3797 C 363.38 1.72924 1.05949 0
M  V30 3798 C 363.713 0.503185 1.87568 0
M  V30 3799 O 362.988 -0.499839 1.87968 0
M  V30 3800 C 363.271 3.00676 1.98156 0
M  V30 3801 C 363.124 4.3354 1.19845 0
M  V30 3802 C 364.443 3.24198 2.9763 0
M  V30 3803 H 361.562 0.629195 0.383774 0
M  V30 3804 H 364.204 1.87008 0.335854 0
M  V30 3805 H 362.354 2.888 2.59859 0
M  V30 3806 H 364.026 4.57305 0.605773 0
M  V30 3807 H 362.269 4.309 0.500784 0
M  V30 3808 H 362.94 5.19156 1.87567 0
M  V30 3809 H 365.416 3.35557 2.4605 0
M  V30 3810 H 364.292 4.14938 3.59329 0
M  V30 3811 H 364.553 2.41577 3.7026 0
M  V30 3812 N 363.613 -0.582584 1.46437 0
M  V30 3813 C 364.841 -1.36682 1.55324 0
M  V30 3814 C 365.256 -1.87796 0.194409 0
M  V30 3815 O 364.613 -1.63623 -0.808318 0
M  V30 3816 C 364.664 -2.55426 2.55812 0
M  V30 3817 O 364.385 -2.0643 3.86417 0
M  V30 3818 C 365.886 -3.47976 2.74641 0
M  V30 3819 H 363.106 -0.417545 0.525259 0
M  V30 3820 H 365.65 -0.708219 1.91845 0
M  V30 3821 H 363.805 -3.17275 2.22295 0
M  V30 3822 H 364.219 -2.83762 4.41111 0
M  V30 3823 H 365.693 -4.27775 3.48874 0
M  V30 3824 H 366.17 -3.99919 1.81553 0
M  V30 3825 H 366.776 -2.91962 3.09255 0
M  V30 3826 N 365.091 -1.34144 -0.827227 0
M  V30 3827 C 366.021 -1.28005 -1.95287 0
M  V30 3828 C 367.002 -0.158321 -1.69362 0
M  V30 3829 O 368.187 -0.349987 -1.9102 0
M  V30 3830 C 365.317 -1.03036 -3.31664 0
M  V30 3831 C 364.271 -2.11628 -3.72019 0
M  V30 3832 C 363.597 -1.71854 -5.0633 0
M  V30 3833 C 364.897 -3.53417 -3.8457 0
M  V30 3834 H 366.591 -2.22187 -2.00682 0
M  V30 3835 H 364.137 -1.0696 -0.964135 0
M  V30 3836 H 366.09 -0.973863 -4.09993 0
M  V30 3837 H 364.814 -0.0529391 -3.26557 0
M  V30 3838 H 363.473 -2.16339 -2.95961 0
M  V30 3839 H 363.121 -0.727841 -4.97706 0
M  V30 3840 H 362.821 -2.44531 -5.34302 0
M  V30 3841 H 364.345 -1.67692 -5.87122 0
M  V30 3842 H 365.759 -3.51142 -4.5318 0
M  V30 3843 H 364.156 -4.24679 -4.2399 0
M  V30 3844 H 365.226 -3.91072 -2.86689 0
M  V30 3845 N 366.569 1.04691 -1.17803 0
M  V30 3846 C 367.501 2.12571 -0.857097 0
M  V30 3847 C 368.514 1.62174 0.142647 0
M  V30 3848 O 369.703 1.78301 -0.0843387 0
M  V30 3849 C 366.803 3.37915 -0.258216 0
M  V30 3850 C 365.976 4.1757 -1.30207 0
M  V30 3851 C 365.035 5.2125 -0.720029 0
M  V30 3852 O 364.061 5.51888 -1.39314 0
M  V30 3853 N 365.263 5.78466 0.485507 0
M  V30 3854 H 368.028 2.40698 -1.78562 0
M  V30 3855 H 365.589 1.20831 -1.07757 0
M  V30 3856 H 367.581 4.04442 0.144584 0
M  V30 3857 H 366.151 3.07281 0.574199 0
M  V30 3858 H 365.371 3.46458 -1.88043 0
M  V30 3859 H 366.659 4.67586 -2.00601 0
M  V30 3860 H 366.057 5.55866 1.05022 0
M  V30 3861 H 364.614 6.4649 0.830307 0
M  V30 3862 N 368.047 0.979072 1.23499 0
M  V30 3863 C 369.324 0.563674 1.87302 0
M  V30 3864 C 369.704 -0.959199 1.88049 0
M  V30 3865 O 369.052 -1.83535 1.36114 0
M  V30 3866 C 369.262 1.16822 3.28867 0
M  V30 3867 C 370.61 1.26014 4.0547 0
M  V30 3868 O 371.634 1.12158 3.38082 0
M  V30 3869 O 370.493 1.48044 5.26066 0
M  V30 3870 H 367.587 0.189602 0.804972 0
M  V30 3871 H 370.133 1.07407 1.31384 0
M  V30 3872 H 368.905 2.21049 3.22883 0
M  V30 3873 H 368.528 0.642564 3.92373 0
M  V30 3874 N 369.525 -1.3858 0.750561 0
M  V30 3875 C 370.774 -1.99424 0.302172 0
M  V30 3876 C 371.087 -1.60254 -1.12152 0
M  V30 3877 O 372.293 -2.14046 -1.67023 0
M  V30 3878 C 370.749 -3.56558 0.489307 0
M  V30 3879 C 370.357 -4.04682 1.92189 0
M  V30 3880 C 372.101 -4.24374 0.103478 0
M  V30 3881 C 370.008 -5.54446 2.05775 0
M  V30 3882 H 368.938 -0.746046 0.10923 0
M  V30 3883 H 371.589 -1.58383 0.92667 0
M  V30 3884 H 369.971 -3.95472 -0.204329 0
M  V30 3885 H 371.145 -3.77065 2.64875 0
M  V30 3886 H 369.46 -3.4958 2.26236 0
M  V30 3887 H 372.057 -5.34384 0.183787 0
M  V30 3888 H 372.4 -4.05468 -0.943481 0
M  V30 3889 H 372.933 -3.90688 0.748854 0
M  V30 3890 H 369.672 -5.78252 3.08714 0
M  V30 3891 H 369.192 -5.83816 1.37546 0
M  V30 3892 H 370.871 -6.20099 1.84626 0
M  V30 3893 N 371.003 -0.499398 -1.49478 0
M  V30 3894 C 371.951 0.293604 -2.3074 0
M  V30 3895 C 372.945 0.96427 -1.39277 0
M  V30 3896 O 374.151 0.892141 -1.56336 0
M  V30 3897 H 370.526 0.113541 -0.743379 0
M  V30 3898 H 372.497 -0.411772 -2.95545 0
M  V30 3899 C 371.246 1.3462 -3.20582 0
M  V30 3900 H 370.569 0.83954 -3.90886 0
M  V30 3901 H 372.009 1.87308 -3.80384 0
M  V30 3902 C 370.468 2.36351 -2.40083 0
M  V30 3903 O 370.998 3.422 -2.10385 0
M  V30 3904 N 369.204 2.0878 -2.02137 0
M  V30 3905 H 368.751 1.22723 -2.26488 0
M  V30 3906 H 368.709 2.77075 -1.48583 0
M  V30 3907 N 372.481 1.55866 -0.233164 0
M  V30 3908 C 373.758 1.90471 0.444988 0
M  V30 3909 C 374.138 1.15209 1.7689 0
M  V30 3910 O 373.486 0.265119 2.26957 0
M  V30 3911 C 373.696 3.4333 0.626559 0
M  V30 3912 C 375.044 4.14319 0.92871 0
M  V30 3913 O 376.068 3.48993 0.712926 0
M  V30 3914 O 374.927 5.29846 1.33887 0
M  V30 3915 H 372.021 0.792347 0.236885 0
M  V30 3916 H 374.567 1.67437 -0.276211 0
M  V30 3917 H 373.339 3.90095 -0.306822 0
M  V30 3918 H 372.962 3.72181 1.39881 0
M  V30 3919 N 373.959 -0.0401083 1.57549 0
M  V30 3920 C 374.907 -1.06264 2.06908 0
M  V30 3921 C 375.901 -1.38132 0.980608 0
M  V30 3922 O 377.107 -1.37167 1.16556 0
M  V30 3923 H 373.482 -0.360166 0.660139 0
M  V30 3924 H 375.453 -0.620445 2.91878 0
M  V30 3925 C 374.202 -2.35846 2.55483 0
M  V30 3926 H 373.525 -2.12183 3.38849 0
M  V30 3927 H 374.965 -3.05765 2.93741 0
M  V30 3928 C 373.424 -3.0404 1.45126 0
M  V30 3929 O 373.954 -3.93424 0.811216 0
M  V30 3930 N 372.16 -2.65184 1.18852 0
M  V30 3931 H 371.707 -1.92584 1.71083 0
M  V30 3932 H 371.665 -3.1113 0.452244 0
M  V30 3933 N 375.437 -1.54477 -0.31217 0
M  V30 3934 C 376.684 -1.73227 -1.04875 0
M  V30 3935 C 377.012 -0.512042 -1.87639 0
M  V30 3936 O 376.267 0.506131 -1.89042 0
M  V30 3937 C 376.566 -2.967 -1.99258 0
M  V30 3938 C 376.232 -4.30974 -1.32559 0
M  V30 3939 C 374.894 -4.67477 -1.141 0
M  V30 3940 C 377.246 -5.14258 -0.847835 0
M  V30 3941 C 374.574 -5.84852 -0.465326 0
M  V30 3942 C 376.926 -6.32327 -0.185931 0
M  V30 3943 C 375.59 -6.67499 0.0107077 0
M  V30 3944 H 374.86 -0.633881 -0.383765 0
M  V30 3945 H 377.507 -1.88727 -0.324731 0
M  V30 3946 H 375.812 -2.75935 -2.7815 0
M  V30 3947 H 377.509 -3.08401 -2.563 0
M  V30 3948 H 374.099 -4.02262 -1.4793 0
M  V30 3949 H 378.283 -4.86565 -0.978192 0
M  V30 3950 H 373.539 -6.10654 -0.301883 0
M  V30 3951 H 377.713 -6.96135 0.192211 0
M  V30 3952 H 375.34 -7.58306 0.536287 0
M  V30 3953 N 376.915 0.57481 -1.46744 0
M  V30 3954 C 378.326 1.15695 -1.46532 0
M  V30 3955 C 378.677 1.95068 -0.210425 0
M  V30 3956 O 377.802 2.05241 0.685944 0
M  V30 3957 C 378.397 2.1048 -2.65487 0
M  V30 3958 C 376.956 2.64002 -2.68291 0
M  V30 3959 C 376.103 1.40026 -2.39349 0
M  V30 3960 H 379.054 0.362325 -1.54509 0
M  V30 3961 H 379.075 2.94074 -2.41455 0
M  V30 3962 H 378.587 1.52683 -3.56805 0
M  V30 3963 H 376.688 3.25646 -1.81067 0
M  V30 3964 H 376.801 3.06197 -3.68483 0
M  V30 3965 H 375.165 1.70106 -1.89568 0
M  V30 3966 H 375.948 0.840485 -3.32852 0
M  V30 3967 N 378.394 1.34581 0.820102 0
M  V30 3968 C 379.641 1.27096 1.57648 0
M  V30 3969 C 379.969 -0.158317 1.93855 0
M  V30 3970 O 379.224 -1.12028 1.60463 0
M  V30 3971 C 379.523 2.10997 2.8847 0
M  V30 3972 C 379.189 3.59966 2.71543 0
M  V30 3973 C 377.851 4.00575 2.66634 0
M  V30 3974 C 380.203 4.54548 2.55021 0
M  V30 3975 C 377.531 5.33953 2.43128 0
M  V30 3976 C 379.883 5.88109 2.33047 0
M  V30 3977 C 378.547 6.27878 2.26552 0
M  V30 3978 H 377.817 0.465078 0.576874 0
M  V30 3979 H 380.464 1.6635 0.948671 0
M  V30 3980 H 378.769 1.6458 3.55557 0
M  V30 3981 H 380.466 2.0255 3.46084 0
M  V30 3982 H 377.056 3.27733 2.76205 0
M  V30 3983 H 381.24 4.24069 2.57835 0
M  V30 3984 H 376.496 5.63781 2.3656 0
M  V30 3985 H 380.67 6.60985 2.19251 0
M  V30 3986 H 378.297 7.31162 2.081 0
M  V30 3987 N 379.872 -1.04064 1.18357 0
M  V30 3988 C 381.119 -1.77265 0.978947 0
M  V30 3989 C 381.447 -1.88189 -0.491428 0
M  V30 3990 O 380.702 -1.38653 -1.38108 0
M  V30 3991 C 381.001 -3.20634 1.57888 0
M  V30 3992 C 380.667 -3.29743 3.07539 0
M  V30 3993 C 379.329 -3.31937 3.48384 0
M  V30 3994 C 381.681 -3.29841 4.03552 0
M  V30 3995 C 379.009 -3.3187 4.83818 0
M  V30 3996 C 381.361 -3.31313 5.38901 0
M  V30 3997 C 380.025 -3.31799 5.79194 0
M  V30 3998 H 379.295 -0.648659 0.358222 0
M  V30 3999 H 381.942 -1.22225 1.47422 0
M  V30 4000 H 380.247 -3.78675 1.00561 0
M  V30 4001 H 381.944 -3.75917 1.39598 0
M  V30 4002 H 378.534 -3.28757 2.74986 0
M  V30 4003 H 382.718 -3.27337 3.73047 0
M  V30 4004 H 377.974 -3.30562 5.14333 0
M  V30 4005 H 382.148 -3.30338 6.13066 0
M  V30 4006 H 379.775 -3.315 6.84114 0
M  V30 4007 N 381.35 -0.985608 -1.22978 0
M  V30 4008 C 382.578 -0.675582 -1.95559 0
M  V30 4009 C 382.993 0.758413 -1.72897 0
M  V30 4010 O 382.35 1.51094 -1.02357 0
M  V30 4011 C 382.401 -0.96293 -3.48439 0
M  V30 4012 O 382.122 -2.34057 -3.70336 0
M  V30 4013 C 383.623 -0.669585 -4.38214 0
M  V30 4014 H 380.843 -0.250523 -0.622478 0
M  V30 4015 H 383.387 -1.3184 -1.56328 0
M  V30 4016 H 381.542 -0.366033 -3.85667 0
M  V30 4017 H 381.956 -2.43424 -4.64591 0
M  V30 4018 H 383.43 -0.920967 -5.44263 0
M  V30 4019 H 383.907 0.396383 -4.37408 0
M  V30 4020 H 384.513 -1.2472 -4.06602 0
M  V30 4021 N 382.828 1.3818 -0.7579 0
M  V30 4022 C 383.76 2.2901 -0.0932177 0
M  V30 4023 C 384.773 1.47958 0.679136 0
M  V30 4024 O 385.962 1.70773 0.519514 0
M  V30 4025 C 383.062 3.26953 0.89192 0
M  V30 4026 C 382.235 4.37045 0.176303 0
M  V30 4027 C 381.294 5.15148 1.07281 0
M  V30 4028 O 380.32 5.66616 0.541728 0
M  V30 4029 N 381.522 5.28542 2.40049 0
M  V30 4030 H 384.287 2.86694 -0.873303 0
M  V30 4031 H 381.848 1.50007 -0.609054 0
M  V30 4032 H 383.84 3.76083 1.49479 0
M  V30 4033 H 382.41 2.70136 1.57306 0
M  V30 4034 H 381.63 3.89493 -0.607328 0
M  V30 4035 H 382.918 5.07801 -0.318718 0
M  V30 4036 H 382.316 4.88285 2.85647 0
M  V30 4037 H 380.873 5.8103 2.95376 0
M  V30 4038 N 384.306 0.507319 1.49211 0
M  V30 4039 C 385.534 -0.0315749 2.06876 0
M  V30 4040 C 385.949 -1.30241 1.36685 0
M  V30 4041 O 385.306 -1.76937 0.447152 0
M  V30 4042 C 385.357 -0.282627 3.60393 0
M  V30 4043 O 385.078 0.937835 4.27944 0
M  V30 4044 C 386.579 -0.864453 4.3479 0
M  V30 4045 H 383.799 0.0233048 0.670595 0
M  V30 4046 H 386.343 0.706484 1.91909 0
M  V30 4047 H 384.498 -0.97068 3.75042 0
M  V30 4048 H 384.912 0.704567 5.19746 0
M  V30 4049 H 386.386 -0.989664 5.43056 0
M  V30 4050 H 386.863 -1.86382 3.97692 0
M  V30 4051 H 387.469 -0.213672 4.24763 0
M  V30 4052 N 385.784 -1.5574 0.241426 0
M  V30 4053 C 386.731 -2.21149 -0.660432 0
M  V30 4054 C 387.701 -1.17356 -1.17545 0
M  V30 4055 O 388.886 -1.45784 -1.23093 0
M  V30 4056 C 386.026 -2.91059 -1.85414 0
M  V30 4057 C 385.139 -4.09495 -1.37616 0
M  V30 4058 C 384.274 -4.67135 -2.529 0
M  V30 4059 C 383.313 -5.77831 -2.01936 0
M  V30 4060 N 382.45 -6.29677 -3.10566 0
M  V30 4061 H 387.29 -2.97845 -0.095955 0
M  V30 4062 H 384.827 -1.47057 -0.0356024 0
M  V30 4063 H 386.785 -3.29788 -2.5553 0
M  V30 4064 H 385.415 -2.16846 -2.39118 0
M  V30 4065 H 384.467 -3.76117 -0.569235 0
M  V30 4066 H 385.779 -4.89423 -0.962618 0
M  V30 4067 H 384.933 -5.08409 -3.31067 0
M  V30 4068 H 383.672 -3.86411 -2.97553 0
M  V30 4069 H 382.677 -5.36039 -1.22238 0
M  V30 4070 H 383.902 -6.60402 -1.58259 0
M  V30 4071 H 381.848 -5.5186 -3.54664 0
M  V30 4072 H 381.765 -7.04783 -2.73526 0
M  V30 4073 H 383.033 -6.75609 -3.88809 0
M  V30 4074 N 387.262 0.0317525 -1.57568 0
M  V30 4075 C 388.492 0.733884 -1.93126 0
M  V30 4076 C 388.9 1.69563 -0.839352 0
M  V30 4077 O 388.243 1.82681 0.193175 0
M  V30 4078 C 388.305 1.54798 -3.24465 0
M  V30 4079 C 387.969 0.751304 -4.50782 0
M  V30 4080 C 388.966 0.0527632 -5.19873 0
M  V30 4081 C 386.651 0.706639 -4.97305 0
M  V30 4082 C 388.645 -0.679774 -6.33765 0
M  V30 4083 C 386.332 -0.0296449 -6.11093 0
M  V30 4084 C 387.33 -0.721614 -6.79177 0
M  V30 4085 O 387.018 -1.44595 -7.90789 0
M  V30 4086 H 386.75 0.211459 -0.642076 0
M  V30 4087 H 389.304 -0.00585615 -2.05399 0
M  V30 4088 H 387.534 2.33147 -3.08512 0
M  V30 4089 H 389.223 2.13247 -3.4537 0
M  V30 4090 H 389.989 0.0783188 -4.84937 0
M  V30 4091 H 385.868 1.23474 -4.44157 0
M  V30 4092 H 389.412 -1.22042 -6.86842 0
M  V30 4093 H 385.309 -0.0571331 -6.45475 0
M  V30 4094 H 386.077 -1.35935 -8.07133 0
M  V30 4095 N 388.74 1.54641 0.303973 0
M  V30 4096 C 389.968 1.77768 1.05858 0
M  V30 4097 C 390.383 0.535722 1.8104 0
M  V30 4098 O 389.74 -0.494337 1.75677 0
M  V30 4099 C 389.791 2.9834 2.04146 0
M  V30 4100 O 389.512 4.17736 1.32015 0
M  V30 4101 C 391.013 3.33832 2.91669 0
M  V30 4102 H 388.233 0.592961 0.314067 0
M  V30 4103 H 390.777 2.01583 0.344149 0
M  V30 4104 H 388.932 2.76742 2.71096 0
M  V30 4105 H 389.346 4.85693 1.97998 0
M  V30 4106 H 390.82 4.21448 3.56491 0
M  V30 4107 H 391.297 2.51857 3.59812 0
M  V30 4108 H 391.903 3.57579 2.30254 0
M  V30 4109 N 390.218 -0.567019 1.47046 0
M  V30 4110 C 391.465 -1.32462 1.53167 0
M  V30 4111 C 391.793 -1.93571 0.189841 0
M  V30 4112 O 391.048 -1.77865 -0.816243 0
M  V30 4113 C 391.347 -2.4623 2.59047 0
M  V30 4114 C 391.013 -2.03014 4.02612 0
M  V30 4115 C 389.675 -1.90944 4.41694 0
M  V30 4116 C 392.027 -1.69895 4.92732 0
M  V30 4117 C 389.355 -1.44035 5.68745 0
M  V30 4118 C 391.707 -1.2446 6.20236 0
M  V30 4119 C 390.371 -1.10979 6.5821 0
M  V30 4120 H 389.641 -0.484713 0.560477 0
M  V30 4121 H 392.288 -0.636888 1.80599 0
M  V30 4122 H 390.593 -3.20517 2.25335 0
M  V30 4123 H 392.29 -3.04427 2.61008 0
M  V30 4124 H 388.88 -2.13348 3.71726 0
M  V30 4125 H 393.064 -1.78098 4.63244 0
M  V30 4126 H 388.32 -1.32254 5.96925 0
M  V30 4127 H 392.494 -0.978924 6.89485 0
M  V30 4128 H 390.121 -0.744078 7.5655 0
M  V30 4129 N 391.696 -1.35014 -0.812953 0
M  V30 4130 C 392.942 -1.2812 -1.57204 0
M  V30 4131 C 393.275 0.145869 -1.93651 0
M  V30 4132 O 392.55 1.0937 -1.60836 0
M  V30 4133 C 392.833 -2.18162 -2.86492 0
M  V30 4134 C 392.686 -3.69454 -2.56561 0
M  V30 4135 C 394.005 -2.07439 -3.88145 0
M  V30 4136 H 391.124 -0.466746 -0.570366 0
M  V30 4137 H 393.766 -1.65357 -0.935783 0
M  V30 4138 H 391.916 -1.86535 -3.40789 0
M  V30 4139 H 393.588 -4.11493 -2.08497 0
M  V30 4140 H 391.831 -3.9005 -1.89851 0
M  V30 4141 H 392.502 -4.27835 -3.48799 0
M  V30 4142 H 394.978 -2.35228 -3.4323 0
M  V30 4143 H 393.854 -2.7265 -4.76396 0
M  V30 4144 H 394.115 -1.05439 -4.29343 0
M  V30 4145 N 393.175 1.03435 -1.18907 0
M  V30 4146 C 394.421 1.77005 -0.989798 0
M  V30 4147 C 394.754 1.88205 0.478816 0
M  V30 4148 O 394.029 1.39481 1.35556 0
M  V30 4149 C 394.312 3.19925 -1.65287 0
M  V30 4150 C 394.165 3.1663 -3.19477 0
M  V30 4151 C 395.484 4.18189 -1.37134 0
M  V30 4152 H 392.603 0.642538 -0.360991 0
M  V30 4153 H 395.245 1.20784 -1.46667 0
M  V30 4154 H 393.395 3.67929 -1.24741 0
M  V30 4155 H 395.067 2.76567 -3.692 0
M  V30 4156 H 393.31 2.54491 -3.51307 0
M  V30 4157 H 393.981 4.1758 -3.61013 0
M  V30 4158 H 396.457 3.78761 -1.72276 0
M  V30 4159 H 395.333 5.16394 -1.86087 0
M  V30 4160 H 395.594 4.41112 -0.295424 0
M  V30 4161 N 394.653 0.992116 1.22453 0
M  V30 4162 C 396.064 0.702776 1.72968 0
M  V30 4163 C 396.415 -0.780399 1.80012 0
M  V30 4164 O 395.54 -1.61007 1.44589 0
M  V30 4165 C 396.135 1.26903 3.14135 0
M  V30 4166 C 394.694 1.02909 3.62059 0
M  V30 4167 C 393.841 1.38969 2.39964 0
M  V30 4168 H 396.792 1.16457 1.07812 0
M  V30 4169 H 396.813 0.647223 3.74955 0
M  V30 4170 H 396.325 2.34851 3.08977 0
M  V30 4171 H 394.426 -0.0337979 3.72585 0
M  V30 4172 H 394.539 1.69191 4.48231 0
M  V30 4173 H 392.903 0.808279 2.41535 0
M  V30 4174 H 393.686 2.4792 2.37467 0
M  V30 4175 N 396.131 -1.37776 0.765217 0
M  V30 4176 C 397.041 -2.34135 0.147666 0
M  V30 4177 C 398.057 -1.59854 -0.687215 0
M  V30 4178 O 399.233 -1.91983 -0.608659 0
M  V30 4179 C 396.298 -3.3901 -0.72617 0
M  V30 4180 C 395.359 -4.2912 0.124417 0
M  V30 4181 C 394.592 -5.28986 -0.707807 0
M  V30 4182 O 394.815 -5.36205 -1.94525 0
M  V30 4183 O 393.749 -6.01779 -0.12046 0
M  V30 4184 H 397.575 -2.88664 0.943758 0
M  V30 4185 H 395.16 -1.39824 0.526277 0
M  V30 4186 H 397.042 -4.03195 -1.22524 0
M  V30 4187 H 395.717 -2.86819 -1.50056 0
M  V30 4188 H 394.624 -3.68057 0.669696 0
M  V30 4189 H 395.957 -4.84598 0.861736 0
M  V30 4190 N 397.609 -0.515225 -1.4894 0
M  V30 4191 C 398.886 0.0879088 -1.95402 0
M  V30 4192 C 399.266 1.52745 -1.45712 0
M  V30 4193 O 398.614 2.18238 -0.677093 0
M  V30 4194 C 398.824 -0.0141055 -3.48997 0
M  V30 4195 C 400.172 0.152646 -4.24326 0
M  V30 4196 O 401.196 0.0604025 -3.56149 0
M  V30 4197 O 400.055 0.34384 -5.45417 0
M  V30 4198 H 397.149 0.0874636 -0.822362 0
M  V30 4199 H 399.695 -0.578775 -1.59525 0
M  V30 4200 H 398.467 -1.01745 -3.77841 0
M  V30 4201 H 398.09 0.692091 -3.9153 0
M  V30 4202 N 399.087 1.5561 -0.249682 0
M  V30 4203 C 400.315 2.03411 0.378352 0
M  V30 4204 C 400.73 1.12886 1.51335 0
M  V30 4205 O 400.087 0.143833 1.81932 0
M  V30 4206 C 400.138 3.50537 0.88351 0
M  V30 4207 O 399.859 4.37614 -0.20626 0
M  V30 4208 C 401.36 4.14113 1.58195 0
M  V30 4209 H 398.58 0.664994 0.08958 0
M  V30 4210 H 401.124 2.01044 -0.374357 0
M  V30 4211 H 399.279 3.5343 1.58639 0
M  V30 4212 H 399.693 5.24199 0.177782 0
M  V30 4213 H 401.167 5.18741 1.8871 0
M  V30 4214 H 401.644 3.60767 2.50487 0
M  V30 4215 H 402.25 4.15151 0.923573 0
M  V30 4216 N 400.565 -0.0233959 1.57583 0
M  V30 4217 C 401.981 -0.379134 1.55031 0
M  V30 4218 C 402.181 -1.76255 0.976548 0
M  V30 4219 O 401.237 -2.45266 0.600078 0
M  V30 4220 C 402.55 -0.275792 2.99433 0
M  V30 4221 C 404.098 -0.352458 3.11009 0
M  V30 4222 C 404.573 -0.278501 4.57152 0
M  V30 4223 N 406.064 -0.337123 4.61972 0
M  V30 4224 C 406.799 -0.302876 5.726 0
M  V30 4225 N 406.295 -0.220589 6.92449 0
M  V30 4226 N 408.088 -0.353023 5.6099 0
M  V30 4227 H 400.239 0.881869 1.93227 0
M  V30 4228 H 402.502 0.335867 0.886509 0
M  V30 4229 H 402.208 0.675108 3.4516 0
M  V30 4230 H 402.082 -1.06721 3.61788 0
M  V30 4231 H 404.469 -1.29379 2.65226 0
M  V30 4232 H 404.55 0.468409 2.51475 0
M  V30 4233 H 404.194 0.659189 5.03604 0
M  V30 4234 H 404.124 -1.11755 5.14605 0
M  V30 4235 H 406.615 -0.403002 3.75745 0
M  V30 4236 H 406.928 -0.199713 7.72542 0
M  V30 4237 H 405.273 -0.186555 6.9475 0
M  V30 4238 H 408.464 -0.415339 4.66254 0
M  V30 4239 H 408.637 -0.322866 6.47195 0
M  V30 4240 N 402.043 -1.548 -0.295768 0
M  V30 4241 C 403.289 -1.74588 -1.03184 0
M  V30 4242 C 403.622 -0.532962 -1.86744 0
M  V30 4243 O 402.897 0.469872 -1.88739 0
M  V30 4244 C 403.18 -3.03791 -1.93347 0
M  V30 4245 C 403.033 -4.35392 -1.12933 0
M  V30 4246 C 404.352 -3.28892 -2.92435 0
M  V30 4247 H 401.471 -0.635221 -0.373715 0
M  V30 4248 H 404.113 -1.87519 -0.30606 0
M  V30 4249 H 402.263 -2.92898 -2.55232 0
M  V30 4250 H 403.935 -4.58211 -0.532943 0
M  V30 4251 H 402.178 -4.31642 -0.432168 0
M  V30 4252 H 402.849 -5.22074 -1.79284 0
M  V30 4253 H 405.325 -3.39429 -2.4068 0
M  V30 4254 H 404.201 -4.20603 -3.52682 0
M  V30 4255 H 404.462 -2.47437 -3.6637 0
M  V30 4256 N 403.521 0.559213 -1.47345 0
M  V30 4257 C 404.769 1.31388 -1.53563 0
M  V30 4258 C 405.09 1.93985 -0.198678 0
M  V30 4259 O 404.36 1.79825 0.777167 0
M  V30 4260 H 402.94 0.487901 -0.565652 0
M  V30 4261 H 405.602 0.65315 -1.8363 0
M  V30 4262 H 404.698 2.10844 -2.30111 0
M  V30 4263 N 404.999 1.35443 0.805782 0
M  V30 4264 C 406.227 1.31878 1.59423 0
M  V30 4265 C 406.642 -0.103562 1.88516 0
M  V30 4266 O 405.999 -1.05575 1.48863 0
M  V30 4267 C 406.05 2.12426 2.92502 0
M  V30 4268 O 405.771 3.49115 2.6467 0
M  V30 4269 C 407.272 2.16455 3.86862 0
M  V30 4270 H 404.492 0.453002 0.495005 0
M  V30 4271 H 407.036 1.78309 1.00131 0
M  V30 4272 H 405.191 1.69593 3.48306 0
M  V30 4273 H 405.605 3.90957 3.49647 0
M  V30 4274 H 407.079 2.77204 4.77349 0
M  V30 4275 H 407.556 1.16352 4.23508 0
M  V30 4276 H 408.162 2.59453 3.36993 0
M  V30 4277 N 406.477 -1.02803 1.19454 0
M  V30 4278 C 407.702 -1.80378 1.02364 0
M  V30 4279 C 408.127 -1.83282 -0.423007 0
M  V30 4280 O 407.485 -1.25945 -1.30413 0
M  V30 4281 C 407.533 -3.23248 1.59821 0
M  V30 4282 O 406.637 -4.04 0.828105 0
M  V30 4283 H 405.978 -0.556799 0.361761 0
M  V30 4284 H 408.508 -1.29385 1.58495 0
M  V30 4285 H 408.518 -3.73994 1.63073 0
M  V30 4286 H 407.193 -3.2045 2.65113 0
M  V30 4287 H 405.77 -3.62635 0.86891 0
M  V30 4288 N 407.956 -0.998596 -1.21925 0
M  V30 4289 C 409.202 -0.678667 -1.91107 0
M  V30 4290 C 409.535 0.78791 -1.77498 0
M  V30 4291 O 408.81 1.57043 -1.1475 0
M  V30 4292 C 409.093 -1.09245 -3.43129 0
M  V30 4293 C 408.946 -2.61801 -3.6576 0
M  V30 4294 C 410.265 -0.649984 -4.35274 0
M  V30 4295 H 407.384 -0.248025 -0.694012 0
M  V30 4296 H 410.026 -1.24314 -1.43688 0
M  V30 4297 H 408.176 -0.612171 -3.83647 0
M  V30 4298 H 409.848 -3.17543 -3.34611 0
M  V30 4299 H 408.091 -3.03609 -3.09845 0
M  V30 4300 H 408.762 -2.85804 -4.7225 0
M  V30 4301 H 411.238 -1.0626 -4.02303 0
M  V30 4302 H 410.114 -0.967743 -5.40302 0
M  V30 4303 H 410.375 0.449139 -4.39813 0
M  V30 4304 N 409.434 1.37368 -0.772513 0
M  V30 4305 C 410.682 1.99279 -0.336516 0
M  V30 4306 C 411.003 1.6163 1.09091 0
M  V30 4307 O 410.273 0.882109 1.74916 0
M  V30 4308 H 408.853 0.737063 -0.121435 0
M  V30 4309 H 411.515 1.67836 -0.990809 0
M  V30 4310 H 410.611 3.09332 -0.414763 0
M  V30 4311 N 410.912 0.523116 1.48665 0
M  V30 4312 C 412.137 -0.0117284 2.07397 0
M  V30 4313 C 412.562 -1.28031 1.37803 0
M  V30 4314 O 411.92 -1.75836 0.441762 0
M  V30 4315 C 411.968 -0.225786 3.59892 0
M  V30 4316 O 411.072 -1.29592 3.91509 0
M  V30 4317 H 410.413 0.0360673 0.66302 0
M  V30 4318 H 412.943 0.729066 1.9117 0
M  V30 4319 H 412.953 -0.450552 4.05505 0
M  V30 4320 H 411.628 0.700944 4.09951 0
M  V30 4321 H 410.205 -1.05436 3.57684 0
M  V30 4322 N 412.39 -1.55475 0.257931 0
M  V30 4323 C 413.32 -2.24815 -0.630912 0
M  V30 4324 C 414.301 -1.23224 -1.17259 0
M  V30 4325 O 415.486 -1.51904 -1.20991 0
M  V30 4326 C 412.616 -2.95609 -1.82298 0
M  V30 4327 C 411.57 -4.03982 -1.41359 0
M  V30 4328 C 410.896 -4.6226 -2.68738 0
M  V30 4329 C 412.196 -5.19109 -0.57648 0
M  V30 4330 H 413.89 -2.99354 -0.0526878 0
M  V30 4331 H 411.436 -1.4398 -0.023901 0
M  V30 4332 H 413.389 -3.42822 -2.45054 0
M  V30 4333 H 412.113 -2.18577 -2.42676 0
M  V30 4334 H 410.772 -3.57555 -0.809324 0
M  V30 4335 H 410.42 -3.81915 -3.27338 0
M  V30 4336 H 410.12 -5.35424 -2.42065 0
M  V30 4337 H 411.644 -5.12212 -3.32372 0
M  V30 4338 H 413.058 -5.62479 -1.10861 0
M  V30 4339 H 411.455 -5.98729 -0.405351 0
M  V30 4340 H 412.525 -4.83174 0.408776 0
M  V30 4341 N 413.868 0.0150385 -1.57593 0
M  V30 4342 C 415.115 0.703001 -1.89906 0
M  V30 4343 C 415.443 1.74604 -0.856944 0
M  V30 4344 O 414.698 1.95197 0.140287 0
M  V30 4345 C 414.997 1.39686 -3.28972 0
M  V30 4346 C 414.663 0.488457 -4.48246 0
M  V30 4347 C 413.325 0.2383 -4.8061 0
M  V30 4348 C 415.677 -0.137881 -5.21018 0
M  V30 4349 C 413.005 -0.646738 -5.83125 0
M  V30 4350 C 415.357 -1.0107 -6.24474 0
M  V30 4351 C 414.021 -1.27019 -6.55303 0
M  V30 4352 H 413.291 0.257246 -0.694914 0
M  V30 4353 H 415.938 -0.037259 -1.91464 0
M  V30 4354 H 414.243 2.21079 -3.23468 0
M  V30 4355 H 415.94 1.93495 -3.51227 0
M  V30 4356 H 412.53 0.693593 -4.22951 0
M  V30 4357 H 416.714 0.0423953 -4.96282 0
M  V30 4358 H 411.97 -0.855937 -6.05379 0
M  V30 4359 H 416.144 -1.50247 -6.79999 0
M  V30 4360 H 413.771 -1.95769 -7.3456 0
M  V30 4361 N 415.346 1.54954 0.287554 0
M  V30 4362 C 416.592 1.75132 1.02257 0
M  V30 4363 C 416.925 0.542858 1.86458 0
M  V30 4364 O 416.2 -0.459856 1.88986 0
M  V30 4365 C 416.483 3.04812 1.91733 0
M  V30 4366 C 416.336 4.35985 1.10622 0
M  V30 4367 C 417.655 3.30438 2.90687 0
M  V30 4368 H 414.774 0.637194 0.370341 0
M  V30 4369 H 417.416 1.87678 0.296111 0
M  V30 4370 H 415.566 2.94247 2.53675 0
M  V30 4371 H 417.238 4.58487 0.508636 0
M  V30 4372 H 415.481 4.31865 0.409271 0
M  V30 4373 H 416.152 5.23017 1.76513 0
M  V30 4374 H 418.628 3.40701 2.38877 0
M  V30 4375 H 417.504 4.22467 3.50447 0
M  V30 4376 H 417.765 2.49377 3.65053 0
M  V30 4377 N 416.824 -0.551391 1.4764 0
M  V30 4378 C 417.734 -1.68525 1.63207 0
M  V30 4379 C 418.75 -1.6621 0.514815 0
M  V30 4380 O 419.926 -1.85551 0.783113 0
M  V30 4381 C 416.991 -3.05025 1.64805 0
M  V30 4382 C 416.052 -3.18362 2.88 0
M  V30 4383 C 415.285 -4.4835 2.89513 0
M  V30 4384 O 415.508 -5.34163 2.00065 0
M  V30 4385 O 414.442 -4.65602 3.81443 0
M  V30 4386 H 418.268 -1.58333 2.59161 0
M  V30 4387 H 415.853 -0.722063 1.30792 0
M  V30 4388 H 417.735 -3.86245 1.68502 0
M  V30 4389 H 416.41 -3.15587 0.720197 0
M  V30 4390 H 415.317 -2.36518 2.89845 0
M  V30 4391 H 416.65 -3.12707 3.80099 0
M  V30 4392 N 418.302 -1.35869 -0.798587 0
M  V30 4393 C 419.579 -1.20145 -1.54352 0
M  V30 4394 C 419.959 0.216161 -2.0999 0
M  V30 4395 O 419.307 1.22068 -1.93162 0
M  V30 4396 C 419.517 -2.27602 -2.64572 0
M  V30 4397 C 420.865 -2.63811 -3.32699 0
M  V30 4398 O 421.889 -2.26576 -2.74849 0
M  V30 4399 O 420.748 -3.27866 -4.37226 0
M  V30 4400 H 417.842 -0.467248 -0.682355 0
M  V30 4401 H 420.388 -1.47574 -0.837859 0
M  V30 4402 H 419.16 -3.2265 -2.21388 0
M  V30 4403 H 418.783 -2.01488 -3.42766 0
M  V30 4404 N 419.78 1.02168 -1.19998 0
M  V30 4405 C 421.191 1.57135 -1.00825 0
M  V30 4406 C 421.542 1.91276 0.436818 0
M  V30 4407 O 420.667 1.71679 1.3174 0
M  V30 4408 C 421.262 2.85514 -1.82393 0
M  V30 4409 C 419.821 3.37027 -1.67601 0
M  V30 4410 C 418.968 2.10388 -1.80644 0
M  V30 4411 H 421.919 0.846106 -1.34264 0
M  V30 4412 H 421.94 3.56711 -1.32429 0
M  V30 4413 H 421.452 2.60634 -2.87561 0
M  V30 4414 H 419.553 3.66878 -0.650485 0
M  V30 4415 H 419.666 4.09572 -2.4857 0
M  V30 4416 H 418.03 2.22601 -1.23778 0
M  V30 4417 H 418.813 1.8794 -2.87286 0
M  V30 4418 N 421.258 1.00505 1.21394 0
M  V30 4419 C 422.535 0.603277 1.86064 0
M  V30 4420 C 422.915 -0.919095 1.90042 0
M  V30 4421 O 422.263 -1.80607 1.39977 0
M  V30 4422 C 422.473 1.23772 3.26315 0
M  V30 4423 C 423.821 1.34586 4.02705 0
M  V30 4424 O 424.845 1.19304 3.35626 0
M  V30 4425 O 423.704 1.59169 5.22807 0
M  V30 4426 H 420.798 0.206634 0.800769 0
M  V30 4427 H 423.344 1.1017 1.29076 0
M  V30 4428 H 422.116 2.27848 3.18121 0
M  V30 4429 H 421.739 0.725648 3.90922 0
M  V30 4430 N 422.737 -1.36956 0.779787 0
M  V30 4431 C 423.647 -2.33965 0.172491 0
M  V30 4432 C 424.663 -1.60574 -0.670222 0
M  V30 4433 O 425.839 -1.92617 -0.588263 0
M  V30 4434 C 422.904 -3.39761 -0.690173 0
M  V30 4435 C 421.965 -4.28964 0.169924 0
M  V30 4436 C 421.198 -5.29707 -0.651662 0
M  V30 4437 O 421.421 -5.38238 -1.88827 0
M  V30 4438 O 420.355 -6.01873 -0.0566264 0
M  V30 4439 H 424.181 -2.87647 0.974321 0
M  V30 4440 H 421.766 -1.39258 0.541078 0
M  V30 4441 H 423.648 -4.04471 -1.1824 0
M  V30 4442 H 422.323 -2.88394 -1.47006 0
M  V30 4443 H 421.23 -3.67326 0.708696 0
M  V30 4444 H 422.563 -4.83656 0.913085 0
M  V30 4445 N 424.215 -0.530993 -1.48385 0
M  V30 4446 C 425.626 -0.0907905 -1.86479 0
M  V30 4447 C 425.977 1.33213 -1.44044 0
M  V30 4448 O 425.102 1.99783 -0.831615 0
M  V30 4449 C 425.697 -0.157987 -3.38431 0
M  V30 4450 C 424.256 0.227026 -3.75715 0
M  V30 4451 C 423.403 -0.5173 -2.72432 0
M  V30 4452 H 426.354 -0.742186 -1.40276 0
M  V30 4453 H 426.375 0.630053 -3.75247 0
M  V30 4454 H 425.887 -1.19372 -3.69286 0
M  V30 4455 H 423.988 1.26486 -3.50474 0
M  V30 4456 H 424.101 -0.113288 -4.78966 0
M  V30 4457 H 422.465 0.0365527 -2.54674 0
M  V30 4458 H 423.248 -1.55368 -3.0613 0
M  V30 4459 N 425.693 1.55336 -0.266172 0
M  V30 4460 C 426.625 2.19544 0.658247 0
M  V30 4461 C 427.638 1.17746 1.12427 0
M  V30 4462 O 428.827 1.44517 1.04772 0
M  V30 4463 C 425.927 2.80032 1.9088 0
M  V30 4464 C 425.1 4.07436 1.59106 0
M  V30 4465 C 424.159 4.52056 2.69317 0
M  V30 4466 O 423.185 5.18023 2.35883 0
M  V30 4467 N 424.387 4.21448 3.99201 0
M  V30 4468 H 427.152 2.99503 0.108754 0
M  V30 4469 H 424.713 1.61667 -0.0869059 0
M  V30 4470 H 426.705 3.06831 2.63888 0
M  V30 4471 H 425.275 2.04119 2.36758 0
M  V30 4472 H 424.495 3.88021 0.695243 0
M  V30 4473 H 425.783 4.90462 1.35367 0
M  V30 4474 H 425.181 3.68528 4.29189 0
M  V30 4475 H 423.738 4.53039 4.68614 0
M  V30 4476 N 427.171 -0.0066808 1.57599 0
M  V30 4477 C 428.119 -1.01851 2.09115 0
M  V30 4478 C 429.113 -1.36021 1.00969 0
M  V30 4479 O 430.319 -1.34663 1.19439 0
M  V30 4480 H 426.694 -0.346083 0.667631 0
M  V30 4481 H 428.665 -0.558394 2.93129 0
M  V30 4482 C 427.414 -2.30374 2.60429 0
M  V30 4483 H 426.737 -2.04947 3.43273 0
M  V30 4484 H 428.177 -2.99466 3.00161 0
M  V30 4485 C 426.636 -3.00893 1.51542 0
M  V30 4486 O 427.166 -3.91614 0.894484 0
M  V30 4487 N 425.372 -2.62603 1.2445 0
M  V30 4488 H 424.919 -1.88911 1.75129 0
M  V30 4489 H 424.877 -3.10101 0.518137 0
M  V30 4490 N 428.649 -1.55105 -0.279332 0
M  V30 4491 C 430.065 -1.46803 -0.626187 0
M  V30 4492 C 430.265 -0.676939 -1.89789 0
M  V30 4493 O 429.321 -0.19326 -2.51759 0
M  V30 4494 C 430.634 -2.90962 -0.759034 0
M  V30 4495 C 432.182 -3.01138 -0.853504 0
M  V30 4496 C 432.657 -4.46539 -1.01818 0
M  V30 4497 N 434.148 -4.50341 -1.08386 0
M  V30 4498 C 434.883 -5.60053 -1.22996 0
M  V30 4499 N 434.379 -6.79645 -1.34366 0
M  V30 4500 N 436.172 -5.47783 -1.26056 0
M  V30 4501 H 428.323 -2.04996 0.555921 0
M  V30 4502 H 430.586 -0.929325 0.187239 0
M  V30 4503 H 430.292 -3.51544 0.104852 0
M  V30 4504 H 430.166 -3.39619 -1.64131 0
M  V30 4505 H 432.553 -2.40658 -1.70786 0
M  V30 4506 H 432.634 -2.55745 0.0532466 0
M  V30 4507 H 432.278 -5.0762 -0.168504 0
M  V30 4508 H 432.208 -4.89583 -1.93948 0
M  V30 4509 H 434.699 -3.64191 -1.00864 0
M  V30 4510 H 435.012 -7.59012 -1.4533 0
M  V30 4511 H 433.357 -6.82469 -1.31382 0
M  V30 4512 H 436.548 -4.53294 -1.168 0
M  V30 4513 H 436.721 -6.33331 -1.37098 0
M  V30 4514 N 430.127 0.543554 -1.4793 0
M  V30 4515 C 431.06 1.66556 -1.55995 0
M  V30 4516 C 432.038 1.57315 -0.411205 0
M  V30 4517 O 433.222 1.7798 -0.620922 0
M  V30 4518 C 430.349 3.04883 -1.47527 0
M  V30 4519 C 429.395 3.32526 -2.67074 0
M  V30 4520 S 430.228 3.20282 -4.29162 0
M  V30 4521 C 431.384 4.61079 -4.23269 0
M  V30 4522 H 431.617 1.59462 -2.50917 0
M  V30 4523 H 429.15 0.725456 -1.36296 0
M  V30 4524 H 431.108 3.84665 -1.43328 0
M  V30 4525 H 429.769 3.09429 -0.539665 0
M  V30 4526 H 428.962 4.33403 -2.5725 0
M  V30 4527 H 428.564 2.60389 -2.68466 0
M  V30 4528 H 430.856 5.52318 -3.92365 0
M  V30 4529 H 431.799 4.75959 -5.24279 0
M  V30 4530 H 432.207 4.39766 -3.5393 0
M  V30 4531 N 431.605 1.3629 0.791371 0
M  V30 4532 C 432.833 1.33562 1.58016 0
M  V30 4533 C 433.248 -0.0835616 1.88615 0
M  V30 4534 O 432.605 -1.0399 1.49974 0
M  V30 4535 C 432.656 2.15517 2.90232 0
M  V30 4536 O 432.377 3.51902 2.60953 0
M  V30 4537 C 433.878 2.20546 3.84544 0
M  V30 4538 H 431.098 0.458226 0.490173 0
M  V30 4539 H 433.642 1.79361 0.982345 0
M  V30 4540 H 431.797 1.73278 3.46487 0
M  V30 4541 H 432.211 3.94644 3.4548 0
M  V30 4542 H 433.685 2.82252 4.74382 0
M  V30 4543 H 434.162 1.20838 4.2225 0
M  V30 4544 H 434.768 2.63013 3.34222 0
M  V30 4545 N 433.083 -1.0153 1.20538 0
M  V30 4546 C 434.03 -2.10098 0.955383 0
M  V30 4547 C 435 -1.65702 -0.114878 0
M  V30 4548 O 436.185 -1.90776 0.0301118 0
M  V30 4549 C 433.325 -3.41236 0.514969 0
M  V30 4550 C 432.438 -3.99102 1.65353 0
M  V30 4551 C 431.573 -5.18306 1.16329 0
M  V30 4552 C 430.612 -5.68258 2.27485 0
M  V30 4553 N 429.749 -6.78722 1.7967 0
M  V30 4554 H 434.589 -2.30818 1.88486 0
M  V30 4555 H 432.126 -1.13189 0.939499 0
M  V30 4556 H 434.084 -4.16504 0.240935 0
M  V30 4557 H 432.714 -3.20585 -0.377512 0
M  V30 4558 H 431.766 -3.20918 2.04245 0
M  V30 4559 H 433.078 -4.32177 2.49047 0
M  V30 4560 H 432.232 -6.00782 0.845302 0
M  V30 4561 H 430.971 -4.86799 0.296254 0
M  V30 4562 H 429.976 -4.84385 2.60099 0
M  V30 4563 H 431.201 -6.01798 3.14667 0
M  V30 4564 H 429.147 -6.49042 0.95295 0
M  V30 4565 H 429.064 -7.10996 2.56944 0
M  V30 4566 H 430.332 -7.64759 1.50875 0
M  V30 4567 N 434.561 -1.01147 -1.20859 0
M  V30 4568 C 435.791 -0.715872 -1.93801 0
M  V30 4569 C 436.199 0.726592 -1.74692 0
M  V30 4570 O 435.542 1.50397 -1.05482 0
M  V30 4571 C 435.604 -0.965269 -3.46299 0
M  V30 4572 C 435.268 -2.39584 -3.89164 0
M  V30 4573 C 436.265 -3.3764 -3.95342 0
M  V30 4574 C 433.95 -2.73522 -4.21297 0
M  V30 4575 C 435.944 -4.67698 -4.33056 0
M  V30 4576 C 433.631 -4.03794 -4.58687 0
M  V30 4577 C 434.629 -5.00693 -4.64538 0
M  V30 4578 O 434.317 -6.28635 -5.01072 0
M  V30 4579 H 434.049 -0.262524 -0.622942 0
M  V30 4580 H 436.603 -1.35413 -1.54443 0
M  V30 4581 H 434.833 -0.269847 -3.85757 0
M  V30 4582 H 436.522 -0.662051 -4.00464 0
M  V30 4583 H 437.288 -3.12757 -3.70686 0
M  V30 4584 H 433.167 -1.9879 -4.15937 0
M  V30 4585 H 436.711 -5.4333 -4.37537 0
M  V30 4586 H 432.608 -4.28459 -4.82797 0
M  V30 4587 H 433.376 -6.32847 -5.19083 0
M  V30 4588 N 436.039 1.36541 -0.78704 0
M  V30 4589 C 437.264 2.0409 -0.369053 0
M  V30 4590 C 437.689 1.58957 1.00569 0
M  V30 4591 O 437.047 0.756926 1.64743 0
M  V30 4592 C 437.095 3.57924 -0.438466 0
M  V30 4593 O 436.199 4.08642 0.555479 0
M  V30 4594 H 435.54 0.645142 -0.157122 0
M  V30 4595 H 438.07 1.74545 -1.06749 0
M  V30 4596 H 438.08 4.06887 -0.301218 0
M  V30 4597 H 436.755 3.90127 -1.44132 0
M  V30 4598 H 435.332 3.70958 0.380088 0
M  V30 4599 N 437.518 0.538854 1.48102 0
M  V30 4600 C 438.767 0.0059532 2.01699 0
M  V30 4601 C 439.08 -1.34476 1.42041 0
M  V30 4602 O 440.286 -1.96653 1.87189 0
M  V30 4603 C 438.742 -0.0397627 3.59878 0
M  V30 4604 C 438.35 1.30659 4.28523 0
M  V30 4605 C 440.094 -0.521024 4.2129 0
M  V30 4606 C 438.001 1.22098 5.78659 0
M  V30 4607 H 436.931 -0.00154456 0.753998 0
M  V30 4608 H 439.582 0.683963 1.70277 0
M  V30 4609 H 437.964 -0.783037 3.88181 0
M  V30 4610 H 439.138 2.06613 4.11883 0
M  V30 4611 H 437.453 1.7243 3.79021 0
M  V30 4612 H 440.05 -0.603184 5.31287 0
M  V30 4613 H 440.393 -1.52885 3.8721 0
M  V30 4614 H 440.926 0.166834 3.9745 0
M  V30 4615 H 437.665 2.20424 6.17328 0
M  V30 4616 H 437.185 0.50295 5.97688 0
M  V30 4617 H 438.864 0.915345 6.40492 0
M  V30 4618 N 438.996 -1.55193 0.274407 0
M  V30 4619 C 439.926 -2.25471 -0.607032 0
M  V30 4620 C 440.907 -1.24461 -1.15946 0
M  V30 4621 O 442.092 -1.53179 -1.19373 0
M  V30 4622 C 439.222 -2.97526 -1.79153 0
M  V30 4623 C 438.176 -4.05459 -1.37067 0
M  V30 4624 C 437.502 -4.65084 -2.6382 0
M  V30 4625 C 438.802 -5.19691 -0.521389 0
M  V30 4626 H 440.496 -2.99393 -0.0209343 0
M  V30 4627 H 438.042 -1.43997 -0.00862866 0
M  V30 4628 H 439.995 -3.45402 -2.41404 0
M  V30 4629 H 438.719 -2.21138 -2.40344 0
M  V30 4630 H 437.378 -3.58393 -0.771355 0
M  V30 4631 H 437.026 -3.85365 -3.23268 0
M  V30 4632 H 436.726 -5.37961 -2.36372 0
M  V30 4633 H 438.25 -5.15708 -3.26921 0
M  V30 4634 H 439.664 -5.63623 -1.04889 0
M  V30 4635 H 438.061 -5.99126 -0.341825 0
M  V30 4636 H 439.131 -4.82713 0.46 0
M  V30 4637 N 440.474 -0.00167713 -1.576 0
M  V30 4638 C 441.89 0.354422 -1.55615 0
M  V30 4639 C 442.09 1.74679 -1.00447 0
M  V30 4640 O 441.146 2.4428 -0.639022 0
M  V30 4641 C 442.459 0.22812 -2.99833 0
M  V30 4642 C 444.007 0.302934 -3.11531 0
M  V30 4643 C 444.482 0.205737 -4.57538 0
M  V30 4644 N 445.973 0.263584 -4.62449 0
M  V30 4645 C 446.708 0.211742 -5.73009 0
M  V30 4646 N 446.204 0.110399 -6.92712 0
M  V30 4647 N 447.997 0.263729 -5.61481 0
M  V30 4648 H 440.148 -0.912498 -1.918 0
M  V30 4649 H 442.411 -0.349928 -0.881053 0
M  V30 4650 H 442.117 -0.729934 -3.44042 0
M  V30 4651 H 441.991 1.00951 -3.6344 0
M  V30 4652 H 444.378 1.25143 -2.67251 0
M  V30 4653 H 444.459 -0.508357 -2.50698 0
M  V30 4654 H 444.103 -0.739225 -5.02492 0
M  V30 4655 H 444.033 1.03554 -5.16318 0
M  V30 4656 H 446.524 0.343173 -3.76339 0
M  V30 4657 H 446.837 0.0767828 -7.72762 0
M  V30 4658 H 445.182 0.0760025 -6.94958 0
M  V30 4659 H 448.373 0.34111 -4.66855 0
M  V30 4660 H 448.546 0.219862 -6.47627 0
M  V30 4661 N 441.952 1.55251 0.271103 0
M  V30 4662 C 443.2 1.75599 1.00047 0
M  V30 4663 C 443.521 0.561188 1.8675 0
M  V30 4664 O 442.791 -0.423846 1.9126 0
M  V30 4665 H 441.371 0.647562 0.372387 0
M  V30 4666 H 444.033 1.92656 0.294876 0
M  V30 4667 H 443.129 2.65766 1.6363 0
M  V30 4668 N 443.43 -0.535701 1.48216 0
M  V30 4669 C 444.707 -1.29683 1.46429 0
M  V30 4670 C 445.087 -2.10391 0.172852 0
M  V30 4671 O 444.435 -2.12282 -0.845488 0
M  V30 4672 C 444.645 -2.18313 2.72287 0
M  V30 4673 C 445.993 -2.78639 3.20383 0
M  V30 4674 O 447.017 -2.28604 2.73164 0
M  V30 4675 O 445.876 -3.69636 4.02531 0
M  V30 4676 H 442.97 -0.585026 0.584529 0
M  V30 4677 H 445.516 -0.552827 1.60443 0
M  V30 4678 H 444.288 -1.58421 3.57797 0
M  V30 4679 H 443.911 -2.99971 2.60966 0
M  V30 4680 N 444.908 -1.36708 -0.784132 0
M  V30 4681 C 446.138 -1.34203 -1.57077 0
M  V30 4682 C 446.546 0.0774945 -1.89041 0
M  V30 4683 O 445.889 1.04628 -1.50992 0
M  V30 4684 C 445.951 -2.10351 -2.91535 0
M  V30 4685 C 445.615 -3.59405 -2.82272 0
M  V30 4686 C 446.612 -4.53545 -2.54151 0
M  V30 4687 C 444.297 -4.02362 -3.00683 0
M  V30 4688 C 446.291 -5.8862 -2.44551 0
M  V30 4689 C 443.978 -5.37526 -2.90704 0
M  V30 4690 C 444.976 -6.30468 -2.62677 0
M  V30 4691 O 444.664 -7.63149 -2.52702 0
M  V30 4692 H 444.396 -0.461791 -0.493685 0
M  V30 4693 H 446.95 -1.80475 -0.980712 0
M  V30 4694 H 445.18 -1.5875 -3.52612 0
M  V30 4695 H 446.869 -2.00636 -3.52845 0
M  V30 4696 H 447.635 -4.21669 -2.39625 0
M  V30 4697 H 443.514 -3.30389 -3.21503 0
M  V30 4698 H 447.058 -6.61133 -2.22596 0
M  V30 4699 H 442.955 -5.69008 -3.04795 0
M  V30 4700 H 443.723 -7.73331 -2.68144 0
M  V30 4701 N 446.386 1.0089 -1.21074 0
M  V30 4702 C 447.318 2.09737 -0.924291 0
M  V30 4703 C 448.331 1.62546 0.0909809 0
M  V30 4704 O 449.52 1.77942 -0.141021 0
M  V30 4705 C 446.62 3.36922 -0.36559 0
M  V30 4706 C 445.793 4.13216 -1.43426 0
M  V30 4707 C 444.852 5.18696 -0.885496 0
M  V30 4708 O 443.878 5.47176 -1.56801 0
M  V30 4709 N 445.08 5.79718 0.301227 0
M  V30 4710 H 447.845 2.34895 -1.8613 0
M  V30 4711 H 445.406 1.17341 -1.11546 0
M  V30 4712 H 447.398 4.04697 0.0158407 0
M  V30 4713 H 445.968 3.08952 0.476149 0
M  V30 4714 H 445.188 3.40301 -1.9897 0
M  V30 4715 H 446.476 4.60967 -2.15376 0
M  V30 4716 H 445.874 5.58926 0.872849 0
M  V30 4717 H 444.431 6.48804 0.624211 0
M  V30 4718 N 447.864 1.01787 1.20321 0
M  V30 4719 C 449.141 0.622978 1.85414 0
M  V30 4720 C 449.521 -0.898887 1.91006 0
M  V30 4721 O 448.869 -1.79112 1.41884 0
M  V30 4722 C 449.079 1.27226 3.24984 0
M  V30 4723 C 450.427 1.3885 4.01255 0
M  V30 4724 O 451.451 1.22857 3.34342 0
M  V30 4725 O 450.31 1.64705 5.2109 0
M  V30 4726 H 447.404 0.215116 0.798533 0
M  V30 4727 H 449.95 1.11533 1.27901 0
M  V30 4728 H 448.722 2.31209 3.15687 0
M  V30 4729 H 448.345 0.767069 3.90131 0
M  V30 4730 N 449.342 -1.36122 0.79427 0
M  V30 4731 C 450.305 -2.28309 0.201889 0
M  V30 4732 C 451.305 -1.49041 -0.603603 0
M  V30 4733 O 452.495 -1.68964 -0.423888 0
M  V30 4734 C 449.627 -3.3321 -0.719978 0
M  V30 4735 H 450.82 -2.82208 1.01481 0
M  V30 4736 H 448.373 -1.45768 0.564037 0
M  V30 4737 H 449.108 -2.84475 -1.55706 0
M  V30 4738 H 448.893 -3.91835 -0.144266 0
M  V30 4739 H 450.383 -4.02044 -1.12916 0
M  V30 4740 N 450.82 -0.546701 -1.47814 0
M  V30 4741 C 452.067 -0.0187407 -2.02491 0
M  V30 4742 C 452.395 1.32685 -1.42215 0
M  V30 4743 O 451.65 1.87413 -0.563454 0
M  V30 4744 C 451.949 0.134869 -3.57145 0
M  V30 4745 C 451.615 -1.13849 -4.3629 0
M  V30 4746 C 450.277 -1.48743 -4.57634 0
M  V30 4747 C 452.629 -1.98277 -4.82012 0
M  V30 4748 C 449.957 -2.67932 -5.21948 0
M  V30 4749 C 452.309 -3.16659 -5.4764 0
M  V30 4750 C 450.973 -3.51879 -5.67219 0
M  V30 4751 H 450.243 -0.0068577 -0.740968 0
M  V30 4752 H 452.89 -0.716097 -1.77607 0
M  V30 4753 H 451.195 0.915118 -3.80963 0
M  V30 4754 H 452.892 0.558556 -3.97091 0
M  V30 4755 H 449.482 -0.856767 -4.19949 0
M  V30 4756 H 453.666 -1.72628 -4.6531 0
M  V30 4757 H 448.922 -2.95401 -5.35302 0
M  V30 4758 H 453.096 -3.82374 -5.82033 0
M  V30 4759 H 450.723 -4.44331 -6.16825 0
M  V30 4760 N 452.299 1.55045 -0.282633 0
M  V30 4761 C 453.527 2.04168 0.33512 0
M  V30 4762 C 453.942 1.16071 1.48906 0
M  V30 4763 O 453.299 0.182391 1.81586 0
M  V30 4764 C 453.35 3.52332 0.808957 0
M  V30 4765 O 453.071 4.37078 -0.299038 0
M  V30 4766 C 454.572 4.17375 1.49375 0
M  V30 4767 H 451.792 0.666744 0.0754543 0
M  V30 4768 H 454.336 2.00205 -0.416918 0
M  V30 4769 H 452.491 3.56715 1.51106 0
M  V30 4770 H 452.905 5.24458 0.0665514 0
M  V30 4771 H 454.379 5.22627 1.77664 0
M  V30 4772 H 454.856 3.65999 2.42778 0
M  V30 4773 H 455.462 4.17016 0.835305 0
M  V30 4774 N 453.777 0.010035 1.57597 0
M  V30 4775 C 455.026 -0.671945 1.90178 0
M  V30 4776 C 455.339 -1.74376 0.886131 0
M  V30 4777 O 456.545 -2.48107 1.10252 0
M  V30 4778 C 455.001 -1.24636 3.3763 0
M  V30 4779 C 454.609 -0.208838 4.47513 0
M  V30 4780 C 456.353 -1.90595 3.79307 0
M  V30 4781 C 454.26 -0.793814 5.86048 0
M  V30 4782 H 453.19 -0.25474 0.709665 0
M  V30 4783 H 455.841 0.0722206 1.83358 0
M  V30 4784 H 454.223 -2.04152 3.3932 0
M  V30 4785 H 455.397 0.562463 4.57354 0
M  V30 4786 H 453.712 0.350889 4.14919 0
M  V30 4787 H 456.309 -2.35284 4.80151 0
M  V30 4788 H 456.652 -2.74074 3.13352 0
M  V30 4789 H 457.185 -1.17798 3.79958 0
M  V30 4790 H 453.924 0.00240855 6.555 0
M  V30 4791 H 453.444 -1.53404 5.79851 0
M  V30 4792 H 455.123 -1.2894 6.34022 0
M  V30 4793 N 455.255 -1.55392 -0.262866 0
M  V30 4794 C 456.165 -1.92077 -1.34698 0
M  V30 4795 C 457.181 -0.819227 -1.53508 0
M  V30 4796 O 458.357 -1.11921 -1.67439 0
M  V30 4797 C 455.422 -2.19407 -2.68443 0
M  V30 4798 C 454.483 -3.42905 -2.58292 0
M  V30 4799 C 453.716 -3.68921 -3.85659 0
M  V30 4800 O 453.939 -2.97275 -4.8681 0
M  V30 4801 O 452.873 -4.62455 -3.85252 0
M  V30 4802 H 456.699 -2.84384 -1.06581 0
M  V30 4803 H 454.284 -1.42069 -0.462264 0
M  V30 4804 H 456.166 -2.38365 -3.47506 0
M  V30 4805 H 454.841 -1.30282 -2.96325 0
M  V30 4806 H 453.748 -3.29272 -1.7757 0
M  V30 4807 H 455.081 -4.32282 -2.35358 0
M  V30 4808 N 456.733 0.527833 -1.48498 0
M  V30 4809 C 457.961 1.30823 -1.6029 0
M  V30 4810 C 458.376 1.86945 -0.263974 0
M  V30 4811 O 457.733 1.6651 0.747034 0
M  V30 4812 C 457.784 2.45756 -2.65116 0
M  V30 4813 O 457.505 1.91946 -3.93813 0
M  V30 4814 C 459.006 3.37543 -2.87367 0
M  V30 4815 H 456.226 0.397763 -0.540394 0
M  V30 4816 H 458.77 0.636529 -1.94341 0
M  V30 4817 H 456.925 3.08806 -2.33917 0
M  V30 4818 H 457.339 2.67195 -4.51339 0
M  V30 4819 H 458.813 4.14532 -3.6451 0
M  V30 4820 H 459.29 3.92905 -1.9627 0
M  V30 4821 H 459.896 2.80283 -3.19878 0
M  V30 4822 N 458.211 1.37122 0.776871 0
M  V30 4823 C 459.159 1.32549 1.91138 0
M  V30 4824 C 460.153 0.215119 1.68029 0
M  V30 4825 O 461.359 0.382852 1.75881 0
M  V30 4826 H 457.734 0.412952 0.62847 0
M  V30 4827 H 459.705 2.28332 1.92112 0
M  V30 4828 C 458.454 1.14422 3.28333 0
M  V30 4829 H 457.777 1.99115 3.46689 0
M  V30 4830 H 459.217 1.15272 4.0803 0
M  V30 4831 C 457.676 -0.150434 3.36564 0
M  V30 4832 O 458.206 -1.13584 3.85307 0
M  V30 4833 N 456.412 -0.19939 2.89915 0
M  V30 4834 H 455.959 0.603142 2.5044 0
M  V30 4835 H 455.917 -1.06526 2.95803 0
M  V30 4836 N 459.689 -1.00246 1.21608 0
M  V30 4837 C 461.1 -1.55511 1.03312 0
M  V30 4838 C 461.451 -1.91946 -0.406332 0
M  V30 4839 O 460.576 -1.73753 -1.28992 0
M  V30 4840 C 461.171 -2.82576 1.86913 0
M  V30 4841 C 459.73 -3.34318 1.72941 0
M  V30 4842 C 458.877 -2.07487 1.83968 0
M  V30 4843 H 461.828 -0.824638 1.35593 0
M  V30 4844 H 461.849 -3.54559 1.38087 0
M  V30 4845 H 461.361 -2.56026 2.91672 0
M  V30 4846 H 459.462 -3.65797 0.70877 0
M  V30 4847 H 459.575 -4.05566 2.55055 0
M  V30 4848 H 457.939 -2.20603 1.27304 0
M  V30 4849 H 458.722 -1.83346 2.9024 0
M  V30 4850 N 461.167 -1.02423 -1.1978 0
M  V30 4851 C 462.13 -0.605703 -2.21052 0
M  V30 4852 C 463.13 0.328209 -1.57415 0
M  V30 4853 O 464.32 0.115853 -1.73814 0
M  V30 4854 C 461.452 0.114366 -3.40708 0
M  V30 4855 H 462.645 -1.5017 -2.59594 0
M  V30 4856 H 460.198 -0.814888 -1.33376 0
M  V30 4857 H 460.933 1.02492 -3.07678 0
M  V30 4858 H 460.718 -0.556641 -3.88129 0
M  V30 4859 H 462.208 0.394272 -4.15735 0
M  V30 4860 N 462.645 1.35699 -0.801477 0
M  V30 4861 C 463.595 2.2728 -0.181073 0
M  V30 4862 C 464.579 1.47533 0.642098 0
M  V30 4863 O 465.771 1.69785 0.500193 0
M  V30 4864 C 462.9 3.36626 0.673612 0
M  V30 4865 C 461.986 4.23802 -0.159008 0
M  V30 4866 N 462.377 4.90879 -1.2195 0
M  V30 4867 C 460.675 4.45959 0.0602005 0
M  V30 4868 C 461.376 5.5546 -1.72738 0
M  V30 4869 N 460.352 5.33663 -1.03465 0
M  V30 4870 H 464.154 2.76632 -0.992582 0
M  V30 4871 H 461.668 1.49166 -0.642127 0
M  V30 4872 H 463.665 4.01179 1.13408 0
M  V30 4873 H 462.325 2.88828 1.48353 0
M  V30 4874 H 463.336 4.92497 -1.60209 0
M  V30 4875 H 460.013 4.08969 0.839664 0
M  V30 4876 H 461.403 6.18991 -2.61342 0
M  V30 4877 N 464.123 0.554532 1.47522 0
M  V30 4878 C 465.071 -0.207765 2.3167 0
M  V30 4879 C 466.065 -0.911914 1.4276 0
M  V30 4880 O 467.271 -0.833504 1.59539 0
M  V30 4881 H 463.646 -0.0858726 0.747081 0
M  V30 4882 H 465.617 0.521178 2.93813 0
M  V30 4883 C 464.366 -1.2263 3.25357 0
M  V30 4884 H 463.689 -0.693887 3.93732 0
M  V30 4885 H 465.129 -1.73062 3.87073 0
M  V30 4886 C 463.588 -2.27278 2.4869 0
M  V30 4887 O 464.118 -3.34156 2.22941 0
M  V30 4888 N 462.324 -2.01134 2.09746 0
M  V30 4889 H 461.871 -1.14232 2.30887 0
M  V30 4890 H 461.829 -2.71369 1.58765 0
M  V30 4891 N 465.601 -1.54893 0.290851 0
M  V30 4892 C 466.511 -2.26812 -0.59945 0
M  V30 4893 C 467.527 -1.29963 -1.15696 0
M  V30 4894 O 468.703 -1.62928 -1.18391 0
M  V30 4895 C 465.768 -2.98716 -1.75982 0
M  V30 4896 C 464.829 -4.1108 -1.2374 0
M  V30 4897 C 464.062 -4.79546 -2.34246 0
M  V30 4898 O 464.285 -4.47309 -3.53936 0
M  V30 4899 O 463.219 -5.67165 -2.01512 0
M  V30 4900 H 467.045 -3.03696 -0.0163561 0
M  V30 4901 H 464.63 -1.49289 0.0576755 0
M  V30 4902 H 466.512 -3.43851 -2.43607 0
M  V30 4903 H 465.187 -2.24737 -2.3297 0
M  V30 4904 H 464.094 -3.70367 -0.527163 0
M  V30 4905 H 465.427 -4.87007 -0.71307 0
M  V30 4906 N 467.08 -0.0183926 -1.57589 0
M  V30 4907 C 468.328 0.661253 -1.90976 0
M  V30 4908 C 468.649 1.73281 -0.894353 0
M  V30 4909 O 467.919 1.9579 0.0656788 0
M  V30 4910 H 466.499 0.247233 -0.704901 0
M  V30 4911 H 469.161 -0.0636639 -1.94796 0
M  V30 4912 H 468.257 1.12083 -2.9128 0
M  V30 4913 N 468.558 1.5553 0.254621 0
M  V30 4914 C 469.807 1.76202 0.981612 0
M  V30 4915 C 470.12 0.580883 1.86776 0
M  V30 4916 O 471.326 0.670448 2.63092 0
M  V30 4917 C 469.782 3.11921 1.79537 0
M  V30 4918 C 469.39 4.37659 0.956991 0
M  V30 4919 C 471.134 3.41936 2.51555 0
M  V30 4920 C 469.041 5.64411 1.76619 0
M  V30 4921 H 467.971 0.656841 0.370237 0
M  V30 4922 H 470.622 1.81969 0.236556 0
M  V30 4923 H 469.004 3.00241 2.58208 0
M  V30 4924 H 470.178 4.60307 0.21315 0
M  V30 4925 H 468.493 4.14922 0.350497 0
M  V30 4926 H 471.09 4.33849 3.12536 0
M  V30 4927 H 471.433 2.62905 3.22779 0
M  V30 4928 H 471.966 3.54797 1.799 0
M  V30 4929 H 468.705 6.46241 1.09783 0
M  V30 4930 H 468.225 5.45877 2.48551 0
M  V30 4931 H 469.904 6.03386 2.33527 0
M  V30 4932 N 470.036 -0.519951 1.48776 0
M  V30 4933 C 471.285 -1.27175 1.56555 0
M  V30 4934 C 471.598 -1.9401 0.248869 0
M  V30 4935 O 472.804 -2.70725 0.205004 0
M  V30 4936 C 471.26 -2.30811 2.76142 0
M  V30 4937 C 470.868 -1.7 4.14493 0
M  V30 4938 C 472.612 -3.06937 2.9324 0
M  V30 4939 C 470.519 -2.71635 5.25327 0
M  V30 4940 H 469.449 -0.478329 0.582853 0
M  V30 4941 H 472.1 -0.547916 1.75129 0
M  V30 4942 H 470.482 -3.06274 2.51023 0
M  V30 4943 H 471.656 -1.00658 4.49672 0
M  V30 4944 H 469.971 -1.06331 4.02595 0
M  V30 4945 H 472.568 -3.82905 3.73213 0
M  V30 4946 H 472.911 -3.63409 2.03075 0
M  V30 4947 H 473.444 -2.38589 3.18308 0
M  V30 4948 H 470.183 -2.1997 6.1749 0
M  V30 4949 H 469.703 -3.39275 4.94624 0
M  V30 4950 H 471.382 -3.34429 5.53865 0
M  V30 4951 N 471.514 -1.37532 -0.769588 0
M  V30 4952 C 472.461 -1.3347 -1.88293 0
M  V30 4953 C 473.431 -0.199891 -1.64893 0
M  V30 4954 O 474.616 -0.389594 -1.8678 0
M  V30 4955 C 471.756 -1.14968 -3.25387 0
M  V30 4956 C 470.869 -2.37698 -3.60727 0
M  V30 4957 C 470.004 -2.12051 -4.8704 0
M  V30 4958 C 469.043 -3.30636 -5.15117 0
M  V30 4959 N 468.18 -3.04527 -6.3262 0
M  V30 4960 H 473.02 -2.28658 -1.911 0
M  V30 4961 H 470.557 -1.13622 -0.934257 0
M  V30 4962 H 472.515 -1.02261 -4.04473 0
M  V30 4963 H 471.145 -0.234263 -3.21949 0
M  V30 4964 H 470.197 -2.61137 -2.76608 0
M  V30 4965 H 471.509 -3.26131 -3.77413 0
M  V30 4966 H 470.663 -1.96388 -5.74035 0
M  V30 4967 H 469.402 -1.20959 -4.72462 0
M  V30 4968 H 468.407 -3.46836 -4.26597 0
M  V30 4969 H 469.632 -4.22582 -5.31603 0
M  V30 4970 H 467.578 -2.16067 -6.19396 0
M  V30 4971 H 467.495 -3.86503 -6.49732 0
M  V30 4972 H 468.763 -2.92485 -7.22546 0
M  V30 4973 N 472.992 0.995999 -1.22138 0
M  V30 4974 C 474.403 1.54961 -1.04135 0
M  V30 4975 C 474.754 1.92159 0.396147 0
M  V30 4976 O 473.879 1.74435 1.28069 0
M  V30 4977 C 474.474 2.81581 -1.88408 0
M  V30 4978 C 473.033 3.33396 -1.74712 0
M  V30 4979 C 472.18 2.06509 -1.85066 0
M  V30 4980 H 475.131 0.817436 -1.36028 0
M  V30 4981 H 475.152 3.53822 -1.39966 0
M  V30 4982 H 474.664 2.54476 -2.93025 0
M  V30 4983 H 472.765 3.65416 -0.728159 0
M  V30 4984 H 472.878 4.04208 -2.57202 0
M  V30 4985 H 471.242 2.19925 -1.28472 0
M  V30 4986 H 472.025 1.81804 -2.91208 0
M  V30 4987 N 474.47 1.03057 1.19235 0
M  V30 4988 C 475.403 0.557384 2.21288 0
M  V30 4989 C 476.381 -0.402675 1.57535 0
M  V30 4990 O 477.565 -0.319376 1.85775 0
M  V30 4991 C 474.692 -0.187041 3.38183 0
M  V30 4992 C 473.738 0.72471 4.20298 0
M  V30 4993 S 474.571 2.20187 4.88137 0
M  V30 4994 C 475.727 1.46801 6.08441 0
M  V30 4995 H 475.96 1.42207 2.61083 0
M  V30 4996 H 473.493 0.840651 1.29508 0
M  V30 4997 H 475.451 -0.610405 4.05936 0
M  V30 4998 H 474.112 -1.02748 2.96819 0
M  V30 4999 H 473.305 0.149911 5.03777 0
M  V30 5000 H 472.907 1.08647 3.57871 0
M  V30 5001 H 475.199 0.755522 6.73274 0
M  V30 5002 H 476.142 2.27946 6.70407 0
M  V30 5003 H 476.55 0.964762 5.56195 0
M  V30 5004 N 475.948 -1.35272 0.808662 0
M  V30 5005 C 476.895 -2.29764 0.218482 0
M  V30 5006 C 477.865 -1.52911 -0.648652 0
M  V30 5007 O 479.05 -1.81341 -0.593297 0
M  V30 5008 C 476.19 -3.39388 -0.625282 0
M  V30 5009 C 475.303 -4.31202 0.262516 0
M  V30 5010 C 474.438 -5.27919 -0.589451 0
M  V30 5011 C 473.477 -6.11371 0.298617 0
M  V30 5012 N 472.614 -7.0022 -0.513443 0
M  V30 5013 H 477.454 -2.79645 1.02968 0
M  V30 5014 H 474.991 -1.37629 0.519303 0
M  V30 5015 H 476.949 -4.01615 -1.12966 0
M  V30 5016 H 475.579 -2.90777 -1.40173 0
M  V30 5017 H 474.631 -3.69962 0.885013 0
M  V30 5018 H 475.943 -4.89748 0.945971 0
M  V30 5019 H 475.097 -5.95529 -1.15888 0
M  V30 5020 H 473.836 -4.69875 -1.30647 0
M  V30 5021 H 472.841 -5.42707 0.880301 0
M  V30 5022 H 474.066 -6.71494 1.01352 0
M  V30 5023 H 472.012 -6.44662 -1.21439 0
M  V30 5024 H 471.929 -7.55917 0.111922 0
M  V30 5025 H 473.197 -7.72175 -1.06608 0
M  V30 5026 N 477.426 -0.562348 -1.47226 0
M  V30 5027 C 478.837 -0.130325 -1.86245 0
M  V30 5028 C 479.188 1.30128 -1.46838 0
M  V30 5029 O 478.313 1.97974 -0.873805 0
M  V30 5030 C 478.908 -0.229738 -3.3802 0
M  V30 5031 C 477.467 0.14728 -3.76112 0
M  V30 5032 C 476.614 -0.574971 -2.71274 0
M  V30 5033 H 479.565 -0.771773 -1.3867 0
M  V30 5034 H 479.586 0.550316 -3.76499 0
M  V30 5035 H 479.098 -1.27178 -3.66671 0
M  V30 5036 H 477.199 1.19023 -3.53078 0
M  V30 5037 H 477.312 -0.214858 -4.78618 0
M  V30 5038 H 475.676 -0.0174756 -2.54694 0
M  V30 5039 H 476.459 -1.61827 -3.02766 0
M  V30 5040 N 478.904 1.54736 -0.299062 0
M  V30 5041 C 479.834 2.26409 0.571085 0
M  V30 5042 C 480.815 1.2629 1.13951 0
M  V30 5043 O 482 1.55059 1.16921 0
M  V30 5044 C 479.13 3.00338 1.74396 0
M  V30 5045 C 478.084 4.07588 1.30599 0
M  V30 5046 C 477.41 4.69222 2.56387 0
M  V30 5047 C 478.71 5.20455 0.438645 0
M  V30 5048 H 480.404 2.99388 -0.0266991 0
M  V30 5049 H 477.95 1.43993 -0.0142812 0
M  V30 5050 H 479.903 3.49198 2.35878 0
M  V30 5051 H 478.627 2.24934 2.36796 0
M  V30 5052 H 477.286 3.59575 0.71424 0
M  V30 5053 H 476.934 3.9046 3.17097 0
M  V30 5054 H 476.634 5.41653 2.27784 0
M  V30 5055 H 478.158 5.20844 3.18675 0
M  V30 5056 H 479.572 5.65221 0.959085 0
M  V30 5057 H 477.969 5.99594 0.246466 0
M  V30 5058 H 479.039 4.8192 -0.536738 0
M  V30 5059 N 480.382 0.0267497 1.57577 0
M  V30 5060 C 481.659 -0.690926 1.82991 0
M  V30 5061 C 482.039 -1.90471 0.910164 0
M  V30 5062 O 481.387 -2.28474 -0.0347985 0
M  V30 5063 C 481.597 -1.07139 3.32148 0
M  V30 5064 C 482.945 -1.46402 3.98562 0
M  V30 5065 O 483.969 -1.16443 3.36629 0
M  V30 5066 O 482.828 -2.02214 5.07712 0
M  V30 5067 H 479.922 -0.338747 0.75444 0
M  V30 5068 H 482.468 0.0542506 1.69613 0
M  V30 5069 H 481.24 -0.207394 3.9075 0
M  V30 5070 H 480.863 -1.87481 3.50623 0
M  V30 5071 N 481.861 -1.55662 -0.24637 0
M  V30 5072 C 483.091 -1.81312 -0.990438 0
M  V30 5073 C 483.499 -0.600234 -1.79426 0
M  V30 5074 O 482.842 0.440537 -1.78339 0
M  V30 5075 C 482.904 -3.0032 -1.97607 0
M  V30 5076 C 482.568 -4.36322 -1.35912 0
M  V30 5077 C 483.565 -5.14295 -0.761348 0
M  V30 5078 C 481.25 -4.83019 -1.37833 0
M  V30 5079 C 483.244 -6.37114 -0.190998 0
M  V30 5080 C 480.931 -6.05786 -0.804128 0
M  V30 5081 C 481.929 -6.82672 -0.211489 0
M  V30 5082 O 481.617 -8.03121 0.353845 0
M  V30 5083 H 481.349 -0.607233 -0.297058 0
M  V30 5084 H 483.903 -2.0356 -0.274351 0
M  V30 5085 H 482.133 -2.73829 -2.73047 0
M  V30 5086 H 483.822 -3.13057 -2.58361 0
M  V30 5087 H 484.588 -4.79337 -0.739013 0
M  V30 5088 H 480.467 -4.23165 -1.829 0
M  V30 5089 H 484.011 -6.97069 0.272206 0
M  V30 5090 H 479.908 -6.40222 -0.823792 0
M  V30 5091 H 480.676 -8.18131 0.245761 0
M  V30 5092 N 483.339 0.512053 -1.4905 0
M  V30 5093 C 484.249 1.64139 -1.67617 0
M  V30 5094 C 485.265 1.64786 -0.558701 0
M  V30 5095 O 486.441 1.8341 -0.832034 0
M  V30 5096 C 483.506 3.00548 -1.72835 0
M  V30 5097 C 482.567 3.10615 -2.96339 0
M  V30 5098 C 481.8 4.40517 -3.01298 0
M  V30 5099 O 482.023 5.28671 -2.14157 0
M  V30 5100 O 480.957 4.55325 -3.93653 0
M  V30 5101 H 484.783 1.51407 -2.63267 0
M  V30 5102 H 482.368 0.687131 -1.32661 0
M  V30 5103 H 484.25 3.81641 -1.78683 0
M  V30 5104 H 482.925 3.13566 -0.803616 0
M  V30 5105 H 481.832 2.2875 -2.96014 0
M  V30 5106 H 483.165 3.0252 -3.88256 0
M  V30 5107 N 484.817 1.37938 0.762283 0
M  V30 5108 C 486.047 1.36685 1.54922 0
M  V30 5109 C 486.455 -0.0474099 1.89141 0
M  V30 5110 O 485.798 -1.02213 1.52638 0
M  V30 5111 C 485.86 2.14963 2.88152 0
M  V30 5112 C 485.524 3.6385 2.76518 0
M  V30 5113 C 486.521 4.57531 2.46904 0
M  V30 5114 C 484.206 4.07095 2.94243 0
M  V30 5115 C 486.2 5.92436 2.35156 0
M  V30 5116 C 483.887 5.42083 2.82116 0
M  V30 5117 C 484.885 6.34567 2.52614 0
M  V30 5118 O 484.573 7.67073 2.40529 0
M  V30 5119 H 484.305 0.469586 0.486276 0
M  V30 5120 H 486.859 1.82012 0.951876 0
M  V30 5121 H 485.089 1.6434 3.50042 0
M  V30 5122 H 486.778 2.06224 3.49609 0
M  V30 5123 H 487.544 4.25428 2.32886 0
M  V30 5124 H 483.423 3.35462 3.16206 0
M  V30 5125 H 486.967 6.64591 2.12049 0
M  V30 5126 H 482.864 5.73785 2.95704 0
M  V30 5127 H 483.632 7.77499 2.55807 0
M  V30 5128 N 486.295 -0.989507 1.22664 0
M  V30 5129 C 487.544 -1.72375 1.04737 0
M  V30 5130 C 487.857 -1.91096 -0.417316 0
M  V30 5131 O 489.063 -2.6188 -0.716334 0
M  V30 5132 C 487.519 -3.10161 1.82561 0
M  V30 5133 C 487.127 -2.99358 3.333 0
M  V30 5134 C 488.871 -3.87607 1.73093 0
M  V30 5135 C 486.778 -4.32319 4.03552 0
M  V30 5136 H 485.708 -0.646326 0.388302 0
M  V30 5137 H 488.359 -1.10437 1.46546 0
M  V30 5138 H 486.741 -3.728 1.33552 0
M  V30 5139 H 487.915 -2.45863 3.89728 0
M  V30 5140 H 486.23 -2.35392 3.43481 0
M  V30 5141 H 488.827 -4.86025 2.22899 0
M  V30 5142 H 489.17 -4.10509 0.691976 0
M  V30 5143 H 489.703 -3.31652 2.19663 0
M  V30 5144 H 486.442 -4.14616 5.07714 0
M  V30 5145 H 485.962 -4.85714 3.51911 0
M  V30 5146 H 487.641 -5.01051 4.09337 0
M  V30 5147 N 487.773 -1.03688 -1.18687 0
M  V30 5148 C 488.705 -0.582696 -2.21669 0
M  V30 5149 C 489.718 0.345656 -1.59088 0
M  V30 5150 O 490.907 0.140776 -1.77944 0
M  V30 5151 C 488.007 0.169204 -3.38477 0
M  V30 5152 C 487.18 -0.766079 -4.30639 0
M  V30 5153 C 486.239 -0.0581541 -5.26168 0
M  V30 5154 O 485.265 -0.687346 -5.65035 0
M  V30 5155 N 486.467 1.20981 -5.67753 0
M  V30 5156 H 489.232 -1.46843 -2.61261 0
M  V30 5157 H 486.793 -0.916896 -1.33434 0
M  V30 5158 H 488.785 0.652543 -3.99405 0
M  V30 5159 H 487.355 0.956435 -2.97609 0
M  V30 5160 H 486.575 -1.42935 -3.67373 0
M  V30 5161 H 487.863 -1.40146 -4.89118 0
M  V30 5162 H 487.261 1.74159 -5.38224 0
M  V30 5163 H 485.818 1.6375 -6.30896 0
M  V30 5164 N 489.251 1.34841 -0.815825 0
M  V30 5165 C 490.183 2.28409 -0.190265 0
M  V30 5166 C 491.196 1.50705 0.615771 0
M  V30 5167 O 492.385 1.72822 0.446616 0
M  V30 5168 C 489.485 3.30441 0.752446 0
M  V30 5169 C 488.658 4.37399 -0.00922152 0
M  V30 5170 C 487.717 5.19234 0.853351 0
M  V30 5171 O 486.743 5.68404 0.300919 0
M  V30 5172 N 487.945 5.38248 2.17416 0
M  V30 5173 H 490.71 2.82732 -0.994114 0
M  V30 5174 H 488.271 1.47289 -0.672129 0
M  V30 5175 H 490.263 3.82084 1.33394 0
M  V30 5176 H 488.833 2.76565 1.45707 0
M  V30 5177 H 488.053 3.86567 -0.771979 0
M  V30 5178 H 489.341 5.05992 -0.533807 0
M  V30 5179 H 488.739 4.99961 2.6468 0
M  V30 5180 H 487.296 5.93035 2.70467 0
M  V30 5181 N 490.729 0.570148 1.46925 0
M  V30 5182 C 491.959 0.0561151 2.06524 0
M  V30 5183 C 492.367 -1.24874 1.42137 0
M  V30 5184 O 491.71 -1.76292 0.516417 0
M  V30 5185 C 491.772 -0.197035 3.5896 0
M  V30 5186 C 491.436 1.02033 4.45464 0
M  V30 5187 C 492.433 1.92921 4.82781 0
M  V30 5188 C 490.118 1.23864 4.86788 0
M  V30 5189 C 492.112 3.03999 5.60235 0
M  V30 5190 C 489.799 2.35249 5.64004 0
M  V30 5191 C 490.797 3.25146 6.0064 0
M  V30 5192 O 490.485 4.34598 6.76299 0
M  V30 5193 H 490.217 0.0487409 0.674241 0
M  V30 5194 H 492.771 0.786915 1.89728 0
M  V30 5195 H 491.001 -0.982299 3.74016 0
M  V30 5196 H 492.69 -0.658032 4.00531 0
M  V30 5197 H 493.456 1.77265 4.51444 0
M  V30 5198 H 489.335 0.54805 4.57731 0
M  V30 5199 H 492.879 3.74192 5.8875 0
M  V30 5200 H 488.776 2.50873 5.94755 0
M  V30 5201 H 489.544 4.32808 6.94708 0
M  V30 5202 N 492.207 -1.54576 0.307264 0
M  V30 5203 C 493.432 -2.05139 -0.305379 0
M  V30 5204 C 493.857 -1.18278 -1.46259 0
M  V30 5205 O 493.215 -0.188243 -1.8032 0
M  V30 5206 C 493.263 -3.53066 -0.733283 0
M  V30 5207 O 492.367 -3.69206 -1.83741 0
M  V30 5208 H 491.708 -0.661444 -0.0582105 0
M  V30 5209 H 494.238 -1.99569 0.450931 0
M  V30 5210 H 494.248 -3.95034 -1.02039 0
M  V30 5211 H 492.923 -4.15746 0.113198 0
M  V30 5212 H 491.5 -3.39143 -1.55037 0
M  V30 5213 N 493.685 -0.035106 -1.57561 0
M  V30 5214 C 494.932 0.642229 -1.92046 0
M  V30 5215 C 495.26 1.7179 -0.91206 0
M  V30 5216 O 494.515 1.95544 0.0781153 0
M  V30 5217 C 494.814 1.29149 -3.3325 0
M  V30 5218 C 494.48 0.345604 -4.49574 0
M  V30 5219 C 493.142 0.0852775 -4.81124 0
M  V30 5220 C 495.494 -0.303569 -5.20315 0
M  V30 5221 C 492.822 -0.831927 -5.80772 0
M  V30 5222 C 495.174 -1.20886 -6.20942 0
M  V30 5223 C 493.838 -1.47802 -6.50931 0
M  V30 5224 H 493.108 0.235008 -0.702746 0
M  V30 5225 H 495.755 -0.0981529 -1.91248 0
M  V30 5226 H 494.06 2.10676 -3.30337 0
M  V30 5227 H 495.757 1.82223 -3.57205 0
M  V30 5228 H 492.347 0.558683 -4.24943 0
M  V30 5229 H 496.531 -0.115515 -4.96166 0
M  V30 5230 H 491.787 -1.0481 -6.02349 0
M  V30 5231 H 495.961 -1.71804 -6.74875 0
M  V30 5232 H 493.588 -2.19039 -7.2796 0
M  V30 5233 N 495.163 1.55791 0.238111 0
M  V30 5234 C 496.412 1.77234 0.962868 0
M  V30 5235 C 496.725 0.600661 1.86149 0
M  V30 5236 O 497.931 0.698315 2.62366 0
M  V30 5237 C 496.387 3.13808 1.76218 0
M  V30 5238 C 495.995 4.3865 0.910518 0
M  V30 5239 C 497.739 3.44585 2.47914 0
M  V30 5240 C 495.646 5.66252 1.70623 0
M  V30 5241 H 494.576 0.660731 0.36325 0
M  V30 5242 H 497.227 1.8221 0.217242 0
M  V30 5243 H 495.609 3.02963 2.55009 0
M  V30 5244 H 496.783 4.60507 0.164316 0
M  V30 5245 H 495.098 4.15271 0.30647 0
M  V30 5246 H 497.695 4.3714 3.07917 0
M  V30 5247 H 498.038 2.66314 3.19973 0
M  V30 5248 H 498.571 3.56685 1.76127 0
M  V30 5249 H 495.31 6.47369 1.02923 0
M  V30 5250 H 494.83 5.48483 2.42748 0
M  V30 5251 H 496.509 6.05829 2.27114 0
M  V30 5252 N 496.642 -0.504142 1.49319 0
M  V30 5253 C 497.888 -1.26033 1.58882 0
M  V30 5254 C 498.221 -1.92268 0.273274 0
M  V30 5255 O 497.496 -1.80567 -0.72291 0
M  V30 5256 C 497.779 -2.32976 2.7458 0
M  V30 5257 C 497.632 -1.71263 4.1592 0
M  V30 5258 C 498.951 -3.34561 2.85932 0
M  V30 5259 H 496.07 -0.456863 0.578312 0
M  V30 5260 H 498.712 -0.558965 1.81592 0
M  V30 5261 H 496.862 -2.92796 2.55348 0
M  V30 5262 H 498.534 -1.15294 4.4666 0
M  V30 5263 H 496.777 -1.01686 4.21714 0
M  V30 5264 H 497.448 -2.48816 4.92742 0
M  V30 5265 H 499.924 -2.84727 3.0343 0
M  V30 5266 H 498.8 -4.06754 3.68568 0
M  V30 5267 H 499.061 -3.96695 1.95154 0
M  V30 5268 N 498.12 -1.38341 -0.754957 0
M  V30 5269 C 499.03 -1.3769 -1.89944 0
M  V30 5270 C 500.046 -0.274194 -1.71826 0
M  V30 5271 O 501.222 -0.512391 -1.94773 0
M  V30 5272 C 498.287 -1.19938 -3.25293 0
M  V30 5273 C 497.348 -2.40001 -3.55946 0
M  V30 5274 C 496.581 -2.23087 -4.84838 0
M  V30 5275 O 496.804 -1.22386 -5.57116 0
M  V30 5276 O 495.738 -3.11646 -5.14937 0
M  V30 5277 H 499.564 -2.3412 -1.93446 0
M  V30 5278 H 497.149 -1.19246 -0.900044 0
M  V30 5279 H 499.031 -1.12093 -4.06218 0
M  V30 5280 H 497.706 -0.265919 -3.22606 0
M  V30 5281 H 496.613 -2.53421 -2.75188 0
M  V30 5282 H 497.946 -3.31973 -3.63394 0
M  V30 5283 N 499.598 0.982988 -1.23187 0
M  V30 5284 C 500.561 2.05649 -1.01198 0
M  V30 5285 C 501.561 1.6078 0.0252464 0
M  V30 5286 O 502.751 1.72878 -0.214243 0
M  V30 5287 C 499.883 3.36744 -0.530656 0
M  V30 5288 H 501.076 2.2659 -1.96461 0
M  V30 5289 H 498.629 1.15602 -1.05195 0
M  V30 5290 H 499.364 3.21492 0.425873 0
M  V30 5291 H 499.149 3.7065 -1.2791 0
M  V30 5292 H 500.639 4.15705 -0.397366 0
M  V30 5293 N 501.076 1.04316 1.18135 0
M  V30 5294 C 502.304 0.768117 1.92113 0
M  V30 5295 C 502.719 -0.675057 1.76319 0
M  V30 5296 O 502.076 -1.46038 1.09449 0
M  V30 5297 C 502.127 1.12808 3.43448 0
M  V30 5298 O 501.848 2.5146 3.58747 0
M  V30 5299 C 503.349 0.8779 4.3452 0
M  V30 5300 H 500.569 0.279937 0.609817 0
M  V30 5301 H 503.113 1.39149 1.49859 0
M  V30 5302 H 501.268 0.549623 3.83481 0
M  V30 5303 H 501.682 2.65313 4.52448 0
M  V30 5304 H 503.156 1.17959 5.39249 0
M  V30 5305 H 503.633 -0.187239 4.38801 0
M  V30 5306 H 504.239 1.43977 4.00188 0
M  V30 5307 N 502.554 -1.34406 0.822964 0
M  V30 5308 C 503.831 -1.92733 0.333641 0
M  V30 5309 C 504.211 -1.75107 -1.17901 0
M  V30 5310 O 503.559 -1.12983 -1.98613 0
M  V30 5311 C 503.769 -3.40557 0.763023 0
M  V30 5312 C 505.117 -4.17709 0.761879 0
M  V30 5313 O 506.141 -3.49141 0.705606 0
M  V30 5314 O 505 -5.40082 0.835109 0
M  V30 5315 H 502.094 -0.821964 0.0911249 0
M  V30 5316 H 504.64 -1.4338 0.907757 0
M  V30 5317 H 503.412 -3.47187 1.8049 0
M  V30 5318 H 503.035 -3.97259 0.164605 0
M  V30 5319 N 504.032 -0.577932 -1.46621 0
M  V30 5320 C 505.443 -0.150071 -1.86096 0
M  V30 5321 C 505.794 1.28563 -1.48209 0
M  V30 5322 O 504.919 1.97036 -0.894754 0
M  V30 5323 C 505.514 -0.265576 -3.37758 0
M  V30 5324 C 504.073 0.10738 -3.76247 0
M  V30 5325 C 503.22 -0.603711 -2.70649 0
M  V30 5326 H 506.171 -0.786438 -1.37844 0
M  V30 5327 H 506.192 0.510352 -3.77062 0
M  V30 5328 H 505.704 -1.3106 -3.65301 0
M  V30 5329 H 503.805 1.15272 -3.54321 0
M  V30 5330 H 503.918 -0.26561 -4.78363 0
M  V30 5331 H 502.282 -0.0444884 -2.54661 0
M  V30 5332 H 503.065 -1.65029 -3.01032 0
M  V30 5333 N 505.51 1.54411 -0.315457 0
M  V30 5334 C 506.738 2.04833 0.291738 0
M  V30 5335 C 507.153 1.19203 1.46411 0
M  V30 5336 O 506.51 0.220867 1.81159 0
M  V30 5337 C 506.561 3.53969 0.73404 0
M  V30 5338 O 506.282 4.36346 -0.391682 0
M  V30 5339 C 507.783 4.2045 1.40489 0
M  V30 5340 H 505.003 0.668195 0.0612947 0
M  V30 5341 H 507.547 1.99276 -0.45929 0
M  V30 5342 H 505.702 3.5984 1.43506 0
M  V30 5343 H 506.116 5.24481 -0.0447088 0
M  V30 5344 H 507.59 5.26278 1.66539 0
M  V30 5345 H 508.067 3.71067 2.3496 0
M  V30 5346 H 508.673 4.18694 0.746662 0
M  V30 5347 N 506.988 0.0434614 1.5754 0
M  V30 5348 C 508.237 -0.631454 1.91561 0
M  V30 5349 C 508.55 -1.72457 0.92292 0
M  V30 5350 O 509.756 -2.45712 1.15489 0
M  V30 5351 C 508.212 -1.17447 3.40197 0
M  V30 5352 C 507.82 -0.113867 4.47855 0
M  V30 5353 C 509.564 -1.82507 3.83264 0
M  V30 5354 C 507.471 -0.669326 5.876 0
M  V30 5355 H 506.401 -0.239629 0.714908 0
M  V30 5356 H 509.052 0.111097 1.83163 0
M  V30 5357 H 507.434 -1.96909 3.43574 0
M  V30 5358 H 508.608 0.659348 4.56058 0
M  V30 5359 H 506.923 0.438821 4.14081 0
M  V30 5360 H 509.52 -2.25047 4.85034 0
M  V30 5361 H 509.863 -2.67365 3.19095 0
M  V30 5362 H 510.396 -1.09712 3.82372 0
M  V30 5363 H 507.135 0.141449 6.55347 0
M  V30 5364 H 506.655 -1.4107 5.82974 0
M  V30 5365 H 508.334 -1.15463 6.36614 0
M  V30 5366 N 508.466 -1.55915 -0.229846 0
M  V30 5367 C 509.743 -1.6932 -0.979295 0
M  V30 5368 C 510.123 -0.588321 -2.02736 0
M  V30 5369 O 509.471 0.40586 -2.24867 0
M  V30 5370 C 509.681 -3.10305 -1.59724 0
M  V30 5371 C 511.029 -3.6945 -2.09264 0
M  V30 5372 O 512.053 -3.13214 -1.69633 0
M  V30 5373 O 510.912 -4.68072 -2.82082 0
M  V30 5374 H 508.006 -0.689314 -0.456919 0
M  V30 5375 H 510.552 -1.68238 -0.222283 0
M  V30 5376 H 509.324 -3.82177 -0.840039 0
M  V30 5377 H 508.947 -3.1547 -2.42001 0
M  V30 5378 N 509.944 0.496216 -1.49584 0
M  V30 5379 C 510.874 1.60576 -1.69521 0
M  V30 5380 C 511.855 1.61169 -0.543933 0
M  V30 5381 O 513.04 1.77834 -0.78031 0
M  V30 5382 C 510.17 2.99038 -1.76616 0
M  V30 5383 C 509.124 3.13312 -2.91581 0
M  V30 5384 C 508.45 4.53172 -2.83794 0
M  V30 5385 C 509.75 2.92886 -4.32452 0
M  V30 5386 H 511.444 1.44146 -2.62416 0
M  V30 5387 H 508.99 0.692024 -1.26282 0
M  V30 5388 H 510.943 3.76564 -1.8915 0
M  V30 5389 H 509.667 3.16568 -0.80324 0
M  V30 5390 H 508.326 2.38213 -2.78658 0
M  V30 5391 H 507.974 4.67585 -1.854 0
M  V30 5392 H 507.674 4.63662 -3.60958 0
M  V30 5393 H 509.198 5.32752 -2.98342 0
M  V30 5394 H 510.612 3.60178 -4.46032 0
M  V30 5395 H 509.009 3.14844 -5.10875 0
M  V30 5396 H 510.079 1.88966 -4.46565 0
M  V30 5397 N 511.423 1.38739 0.74761 0
M  V30 5398 C 512.839 1.20067 1.05148 0
M  V30 5399 C 513.039 0.0534835 2.01429 0
M  V30 5400 O 512.095 -0.59886 2.45296 0
M  V30 5401 C 513.408 2.52957 1.62584 0
M  V30 5402 C 514.956 2.59692 1.74726 0
M  V30 5403 C 515.431 3.92772 2.35573 0
M  V30 5404 N 516.922 3.94343 2.42997 0
M  V30 5405 C 517.657 4.9408 2.90985 0
M  V30 5406 N 517.153 6.04214 3.38965 0
M  V30 5407 N 518.946 4.81466 2.9008 0
M  V30 5408 H 511.097 2.12121 0.108808 0
M  V30 5409 H 513.36 0.941491 0.110899 0
M  V30 5410 H 513.066 3.37389 0.993051 0
M  V30 5411 H 512.94 2.71779 2.61565 0
M  V30 5412 H 515.327 1.75651 2.3713 0
M  V30 5413 H 515.408 2.44731 0.744326 0
M  V30 5414 H 515.052 4.77238 1.738 0
M  V30 5415 H 514.982 4.05046 3.36519 0
M  V30 5416 H 517.473 3.14799 2.0907 0
M  V30 5417 H 517.786 6.76241 3.74056 0
M  V30 5418 H 516.131 6.07825 3.37007 0
M  V30 5419 H 519.322 3.94535 2.51912 0
M  V30 5420 H 519.495 5.59344 3.27166 0
M  V30 5421 N 512.901 -0.976442 1.23707 0
M  V30 5422 C 514.131 -1.75087 1.09673 0
M  V30 5423 C 514.539 -1.85852 -0.354344 0
M  V30 5424 O 513.882 -1.33985 -1.25673 0
M  V30 5425 C 513.944 -3.19272 1.65245 0
M  V30 5426 C 513.608 -3.32004 3.14042 0
M  V30 5427 C 514.605 -3.18017 4.11292 0
M  V30 5428 C 512.29 -3.56525 3.53829 0
M  V30 5429 C 514.284 -3.28363 5.46312 0
M  V30 5430 C 511.971 -3.6651 4.88993 0
M  V30 5431 C 512.969 -3.52439 5.85043 0
M  V30 5432 O 512.657 -3.62063 7.1775 0
M  V30 5433 H 512.389 -0.556164 0.384262 0
M  V30 5434 H 514.943 -1.23518 1.64111 0
M  V30 5435 H 513.173 -3.72107 1.05231 0
M  V30 5436 H 514.862 -3.7849 1.46629 0
M  V30 5437 H 515.628 -2.98966 3.81896 0
M  V30 5438 H 511.507 -3.66547 2.79579 0
M  V30 5439 H 515.051 -3.17297 6.21263 0
M  V30 5440 H 510.948 -3.85072 5.18063 0
M  V30 5441 H 511.716 -3.78833 7.25553 0
M  V30 5442 N 514.379 -1.04941 -1.1758 0
M  V30 5443 C 515.312 -0.592518 -2.20373 0
M  V30 5444 C 516.29 0.377561 -1.58156 0
M  V30 5445 O 517.474 0.28978 -1.86259 0
M  V30 5446 C 514.601 0.133215 -3.38438 0
M  V30 5447 C 513.647 -0.791484 -4.19092 0
M  V30 5448 S 514.48 -2.27925 -4.84572 0
M  V30 5449 C 515.636 -1.56462 -6.06028 0
M  V30 5450 H 515.869 -1.46342 -2.58788 0
M  V30 5451 H 513.402 -0.861148 -1.28155 0
M  V30 5452 H 515.36 0.545746 -4.06856 0
M  V30 5453 H 514.021 0.980124 -2.98416 0
M  V30 5454 H 513.214 -0.230039 -5.03475 0
M  V30 5455 H 512.816 -1.14326 -3.56098 0
M  V30 5456 H 515.108 -0.862539 -6.71987 0
M  V30 5457 H 516.051 -2.38583 -6.66696 0
M  V30 5458 H 516.459 -1.05313 -5.5459 0
M  V30 5459 N 515.857 1.33968 -0.830081 0
M  V30 5460 C 517.082 2.02813 -0.433796 0
M  V30 5461 C 517.507 1.62076 0.954614 0
M  V30 5462 O 516.865 0.808955 1.62252 0
M  V30 5463 C 516.913 3.56348 -0.552115 0
M  V30 5464 O 516.017 4.10202 0.425191 0
M  V30 5465 H 515.358 0.639817 -0.177567 0
M  V30 5466 H 517.888 1.7106 -1.12248 0
M  V30 5467 H 517.898 4.05722 -0.430513 0
M  V30 5468 H 516.573 3.85344 -1.56471 0
M  V30 5469 H 515.15 3.71979 0.261878 0
M  V30 5470 N 517.335 0.585699 1.46312 0
M  V30 5471 C 518.746 0.159938 1.86014 0
M  V30 5472 C 519.097 -1.27775 1.48889 0
M  V30 5473 O 518.222 -1.96559 0.90519 0
M  V30 5474 C 518.817 0.283485 3.37612 0
M  V30 5475 C 517.376 -0.0874256 3.76298 0
M  V30 5476 C 516.523 0.618055 2.70325 0
M  V30 5477 H 519.474 0.793737 1.37425 0
M  V30 5478 H 519.495 -0.490348 3.77327 0
M  V30 5479 H 519.007 1.32995 3.64601 0
M  V30 5480 H 517.108 -1.13391 3.54927 0
M  V30 5481 H 517.221 0.290975 4.78216 0
M  V30 5482 H 515.585 0.057993 2.54634 0
M  V30 5483 H 516.368 1.66623 3.00153 0
M  V30 5484 N 518.813 -1.54241 0.323641 0
M  V30 5485 C 520.224 -1.85975 -0.164405 0
M  V30 5486 C 520.575 -1.24529 -1.51615 0
M  V30 5487 O 519.7 -0.551351 -2.09258 0
M  V30 5488 C 520.295 -3.37424 -0.305091 0
M  V30 5489 C 518.854 -3.69107 -0.737358 0
M  V30 5490 C 518.001 -2.76942 0.140884 0
M  V30 5491 H 520.952 -1.49088 0.543922 0
M  V30 5492 H 520.973 -3.63147 -1.13598 0
M  V30 5493 H 520.485 -3.82116 0.678876 0
M  V30 5494 H 518.586 -3.29947 -1.73107 0
M  V30 5495 H 518.699 -4.76035 -0.541053 0
M  V30 5496 H 517.063 -2.51795 -0.383572 0
M  V30 5497 H 517.846 -3.24461 1.12162 0
M  V30 5498 N 520.291 -0.0518155 -1.57515 0
M  V30 5499 C 521.254 0.907547 -2.10467 0
M  V30 5500 C 522.254 1.23947 -1.02439 0
M  V30 5501 O 523.444 1.17604 -1.2851 0
M  V30 5502 C 520.576 2.21723 -2.58944 0
M  V30 5503 H 521.769 0.44851 -2.96527 0
M  V30 5504 H 519.322 0.196598 -1.55059 0
M  V30 5505 H 520.057 2.72206 -1.76279 0
M  V30 5506 H 519.842 1.98935 -3.37886 0
M  V30 5507 H 521.332 2.90441 -3.00056 0
M  V30 5508 N 521.769 1.56035 0.221574 0
M  V30 5509 C 523.017 1.78693 0.944102 0
M  V30 5510 C 523.338 0.620317 1.8487 0
M  V30 5511 O 522.608 -0.362784 1.92512 0
M  V30 5512 H 521.188 0.659082 0.351597 0
M  V30 5513 H 523.85 1.93497 0.233435 0
M  V30 5514 H 522.946 2.70837 1.55093 0
M  V30 5515 N 523.247 -0.488276 1.49845 0
M  V30 5516 C 524.195 -1.60917 1.67954 0
M  V30 5517 C 525.189 -1.6038 0.54539 0
M  V30 5518 O 526.395 -1.64736 0.7254 0
M  V30 5519 H 522.77 -0.533658 0.529824 0
M  V30 5520 H 524.741 -1.428 2.62013 0
M  V30 5521 C 523.49 -2.98975 1.77509 0
M  V30 5522 H 522.813 -3.00099 2.6416 0
M  V30 5523 H 524.253 -3.76906 1.9421 0
M  V30 5524 C 522.712 -3.3282 0.522745 0
M  V30 5525 O 523.242 -4.00208 -0.345866 0
M  V30 5526 N 521.448 -2.8808 0.381882 0
M  V30 5527 H 520.995 -2.33415 1.08974 0
M  V30 5528 H 520.953 -3.11091 -0.454929 0
M  V30 5529 N 524.725 -1.39134 -0.740242 0
M  V30 5530 C 526.141 -1.20623 -1.0451 0
M  V30 5531 C 526.341 -0.0641651 -2.01398 0
M  V30 5532 O 525.397 0.585843 -2.4561 0
M  V30 5533 C 526.71 -2.53815 -1.6124 0
M  V30 5534 C 528.258 -2.60615 -1.73346 0
M  V30 5535 C 528.733 -3.94015 -2.33486 0
M  V30 5536 N 530.224 -3.95627 -2.40902 0
M  V30 5537 C 530.959 -4.95616 -2.88361 0
M  V30 5538 N 530.455 -6.06003 -3.35756 0
M  V30 5539 N 532.248 -4.82998 -2.87523 0
M  V30 5540 H 524.399 -2.12176 -0.0975576 0
M  V30 5541 H 526.662 -0.942066 -0.105904 0
M  V30 5542 H 526.368 -3.37911 -0.975144 0
M  V30 5543 H 526.242 -2.73162 -2.6012 0
M  V30 5544 H 528.629 -1.76906 -2.36195 0
M  V30 5545 H 528.71 -2.45123 -0.731336 0
M  V30 5546 H 528.354 -4.78153 -1.71267 0
M  V30 5547 H 528.284 -4.06825 -3.34366 0
M  V30 5548 H 530.775 -3.15903 -2.07398 0
M  V30 5549 H 531.088 -6.78215 -3.70464 0
M  V30 5550 H 529.433 -6.09604 -3.33778 0
M  V30 5551 H 532.624 -3.95866 -2.49816 0
M  V30 5552 H 532.797 -5.61072 -3.24196 0
M  V30 5553 N 526.204 0.969867 -1.24223 0
M  V30 5554 C 527.167 2.04564 -1.03373 0
M  V30 5555 C 528.167 1.60798 0.00819206 0
M  V30 5556 O 529.357 1.72641 -0.232567 0
M  V30 5557 C 526.489 3.36163 -0.566343 0
M  V30 5558 H 527.682 2.24494 -1.98853 0
M  V30 5559 H 525.235 1.1448 -1.06415 0
M  V30 5560 H 525.97 3.21925 0.391751 0
M  V30 5561 H 525.755 3.69273 -1.31834 0
M  V30 5562 H 527.245 4.1526 -0.441435 0
M  V30 5563 N 527.682 1.05563 1.17022 0
M  V30 5564 C 528.614 0.617888 2.20714 0
M  V30 5565 C 529.627 -0.320303 1.59618 0
M  V30 5566 O 530.816 -0.112449 1.78145 0
M  V30 5567 C 527.916 -0.115333 3.38704 0
M  V30 5568 C 527.089 0.834493 4.29366 0
M  V30 5569 C 526.148 0.141855 5.26009 0
M  V30 5570 O 525.174 0.777151 5.6387 0
M  V30 5571 N 526.376 -1.11934 5.69606 0
M  V30 5572 H 529.141 1.50981 2.58892 0
M  V30 5573 H 526.702 0.938008 1.31958 0
M  V30 5574 H 528.694 -0.588918 4.00392 0
M  V30 5575 H 527.264 -0.908967 2.99093 0
M  V30 5576 H 526.484 1.48762 3.65053 0
M  V30 5577 H 527.772 1.4791 4.86827 0
M  V30 5578 H 527.17 -1.65574 5.40927 0
M  V30 5579 H 525.727 -1.53692 6.33421 0
M  V30 5580 N 529.16 -1.33526 0.837174 0
M  V30 5581 C 530.406 -1.9813 0.432704 0
M  V30 5582 C 530.739 -1.66168 -1.00508 0
M  V30 5583 O 530.014 -0.94069 -1.70239 0
M  V30 5584 C 530.297 -3.54151 0.651834 0
M  V30 5585 C 530.15 -3.95806 2.13676 0
M  V30 5586 C 531.469 -4.39993 0.0968937 0
M  V30 5587 H 528.588 -0.719713 0.15869 0
M  V30 5588 H 531.23 -1.58193 1.05237 0
M  V30 5589 H 529.38 -3.88301 0.124369 0
M  V30 5590 H 531.052 -3.71921 2.72896 0
M  V30 5591 H 529.295 -3.45599 2.62191 0
M  V30 5592 H 529.966 -5.0447 2.24084 0
M  V30 5593 H 532.442 -4.12479 0.547733 0
M  V30 5594 H 531.318 -5.48186 0.279917 0
M  V30 5595 H 531.579 -4.3066 -0.9992 0
M  V30 5596 N 530.638 -0.59345 -1.46 0
M  V30 5597 C 531.887 -0.0808084 -2.01538 0
M  V30 5598 C 532.2 1.29112 -1.46934 0
M  V30 5599 O 533.406 1.8957 -1.94359 0
M  V30 5600 C 531.862 -0.0938311 -3.59778 0
M  V30 5601 C 531.47 -1.46474 -4.23379 0
M  V30 5602 C 533.214 0.364306 -4.22934 0
M  V30 5603 C 531.121 -1.4349 -5.73729 0
M  V30 5604 H 530.051 -0.0264407 -0.753536 0
M  V30 5605 H 532.702 -0.746689 -1.67621 0
M  V30 5606 H 531.084 0.638427 -3.9082 0
M  V30 5607 H 532.258 -2.21758 -4.03931 0
M  V30 5608 H 530.573 -1.86379 -3.7236 0
M  V30 5609 H 533.17 0.405584 -5.3316 0
M  V30 5610 H 533.513 1.38409 -3.92618 0
M  V30 5611 H 534.046 -0.31423 -3.96557 0
M  V30 5612 H 530.785 -2.43184 -6.08722 0
M  V30 5613 H 530.305 -0.724431 -5.95409 0
M  V30 5614 H 531.984 -1.15243 -6.36654 0
M  V30 5615 N 532.116 1.54067 -0.331816 0
M  V30 5616 C 533.365 1.99895 0.269209 0
M  V30 5617 C 533.678 1.22371 1.52593 0
M  V30 5618 O 534.884 1.58618 2.20347 0
M  V30 5619 C 533.34 3.55972 0.530244 0
M  V30 5620 C 532.948 4.4234 -0.709901 0
M  V30 5621 C 534.692 4.10247 1.09077 0
M  V30 5622 C 532.599 5.89905 -0.420312 0
M  V30 5623 H 531.529 0.746741 0.104371 0
M  V30 5624 H 534.18 1.78014 -0.445324 0
M  V30 5625 H 532.562 3.73873 1.30518 0
M  V30 5626 H 533.736 4.36215 -1.48504 0
M  V30 5627 H 532.051 3.98997 -1.19123 0
M  V30 5628 H 534.648 5.18095 1.32219 0
M  V30 5629 H 534.991 3.62739 2.0427 0
M  V30 5630 H 535.524 3.96011 0.376824 0
M  V30 5631 H 532.263 6.41623 -1.34164 0
M  V30 5632 H 531.783 5.98962 0.316962 0
M  V30 5633 H 533.462 6.46991 -0.0331956 0
M  V30 5634 N 533.594 0.0601682 1.57485 0
M  V30 5635 C 534.542 -0.928899 2.13247 0
M  V30 5636 C 535.536 -1.31616 1.06647 0
M  V30 5637 O 536.742 -1.29476 1.25043 0
M  V30 5638 H 533.117 -0.317455 0.681708 0
M  V30 5639 H 535.088 -0.433566 2.95233 0
M  V30 5640 C 533.837 -2.19121 2.69965 0
M  V30 5641 H 533.16 -1.90204 3.51657 0
M  V30 5642 H 534.6 -2.86465 3.12592 0
M  V30 5643 C 533.059 -2.94195 1.64168 0
M  V30 5644 O 533.589 -3.87468 1.05978 0
M  V30 5645 N 531.795 -2.57089 1.35476 0
M  V30 5646 H 531.342 -1.81314 1.82984 0
M  V30 5647 H 531.3 -3.07624 0.649196 0
M  V30 5648 N 535.072 -1.5615 -0.213296 0
M  V30 5649 C 536.321 -1.78743 -0.93455 0
M  V30 5650 C 536.634 -0.630199 -1.8517 0
M  V30 5651 O 537.84 -0.739966 -2.61222 0
M  V30 5652 C 536.296 -3.16571 -1.71203 0
M  V30 5653 C 535.904 -4.40043 -0.840617 0
M  V30 5654 C 537.648 -3.48485 -2.42401 0
M  V30 5655 C 535.555 -5.68895 -1.61592 0
M  V30 5656 H 534.485 -0.666426 -0.352692 0
M  V30 5657 H 537.136 -1.82532 -0.188227 0
M  V30 5658 H 535.518 -3.06981 -2.50157 0
M  V30 5659 H 536.692 -4.6071 -0.0910326 0
M  V30 5660 H 535.007 -4.15706 -0.240365 0
M  V30 5661 H 537.604 -4.41983 -3.00924 0
M  V30 5662 H 537.947 -2.71371 -3.15695 0
M  V30 5663 H 538.48 -3.59442 -1.7043 0
M  V30 5664 H 535.219 -6.48925 -0.926106 0
M  V30 5665 H 534.739 -5.52275 -2.33991 0
M  V30 5666 H 536.418 -6.09365 -2.17447 0
M  V30 5667 N 536.55 0.480323 -1.50102 0
M  V30 5668 C 537.778 1.25657 -1.64371 0
M  V30 5669 C 538.193 1.86011 -0.323316 0
M  V30 5670 O 537.55 1.68803 0.693682 0
M  V30 5671 C 537.601 2.37197 -2.728 0
M  V30 5672 O 537.322 1.7932 -3.9972 0
M  V30 5673 C 538.823 3.2823 -2.9796 0
M  V30 5674 H 536.043 0.380369 -0.552775 0
M  V30 5675 H 538.587 0.574379 -1.96268 0
M  V30 5676 H 536.742 3.01208 -2.43623 0
M  V30 5677 H 537.156 2.52701 -4.59611 0
M  V30 5678 H 538.63 4.02725 -3.77513 0
M  V30 5679 H 539.107 3.86462 -2.08671 0
M  V30 5680 H 539.713 2.69964 -3.28633 0
M  V30 5681 N 538.028 1.39524 0.732853 0
M  V30 5682 C 539.305 1.27373 1.48444 0
M  V30 5683 C 539.685 -0.115725 2.10783 0
M  V30 5684 O 539.033 -1.12713 1.98766 0
M  V30 5685 C 539.243 2.39966 2.53412 0
M  V30 5686 C 540.591 2.79384 3.19733 0
M  V30 5687 O 541.615 2.39431 2.63725 0
M  V30 5688 O 540.474 3.48353 4.21085 0
M  V30 5689 H 537.568 0.499272 0.659285 0
M  V30 5690 H 540.114 1.51403 0.766496 0
M  V30 5691 H 538.886 3.32845 2.05742 0
M  V30 5692 H 538.509 2.17612 3.32762 0
M  V30 5693 N 539.506 -0.963266 1.24736 0
M  V30 5694 C 540.752 -1.70933 1.09131 0
M  V30 5695 C 541.085 -1.90676 -0.368273 0
M  V30 5696 O 540.36 -1.47147 -1.27193 0
M  V30 5697 C 540.643 -3.09744 1.83658 0
M  V30 5698 C 540.496 -2.97465 3.37394 0
M  V30 5699 C 541.815 -4.09483 1.61282 0
M  V30 5700 H 538.934 -0.620398 0.397838 0
M  V30 5701 H 541.576 -1.12028 1.53459 0
M  V30 5702 H 539.726 -3.60031 1.4598 0
M  V30 5703 H 541.398 -2.54571 3.84696 0
M  V30 5704 H 539.641 -2.33576 3.65547 0
M  V30 5705 H 540.312 -3.95822 3.84745 0
M  V30 5706 H 542.788 -3.68073 1.94066 0
M  V30 5707 H 541.664 -5.04666 2.15878 0
M  V30 5708 H 541.925 -4.38639 0.552102 0
M  V30 5709 N 540.985 -1.06182 -1.16461 0
M  V30 5710 C 542.262 -0.691364 -1.82974 0
M  V30 5711 C 542.642 0.827377 -1.9421 0
M  V30 5712 O 541.99 1.73723 -1.48434 0
M  V30 5713 C 542.2 -1.39199 -3.20038 0
M  V30 5714 C 543.548 -1.53647 -3.95825 0
M  V30 5715 O 544.572 -1.35181 -3.29552 0
M  V30 5716 O 543.431 -1.83932 -5.14618 0
M  V30 5717 H 540.525 -0.244605 -0.789998 0
M  V30 5718 H 543.071 -1.16203 -1.23673 0
M  V30 5719 H 541.843 -2.42766 -3.06888 0
M  V30 5720 H 541.466 -0.911335 -3.87015 0
M  V30 5721 N 542.463 1.3308 -0.844243 0
M  V30 5722 C 543.373 2.32876 -0.283922 0
M  V30 5723 C 544.389 1.63589 0.592846 0
M  V30 5724 O 545.565 1.95205 0.495693 0
M  V30 5725 C 542.63 3.42667 0.527283 0
M  V30 5726 C 541.691 4.27664 -0.374394 0
M  V30 5727 C 540.924 5.32212 0.39819 0
M  V30 5728 O 541.147 5.46635 1.62932 0
M  V30 5729 O 540.081 6.01458 -0.2306 0
M  V30 5730 H 543.907 2.82671 -1.11045 0
M  V30 5731 H 541.492 1.36518 -0.606903 0
M  V30 5732 H 543.374 4.09652 0.988078 0
M  V30 5733 H 542.049 2.95079 1.33078 0
M  V30 5734 H 540.956 3.63526 -0.883144 0
M  V30 5735 H 542.289 4.78749 -1.1428 0
M  V30 5736 N 543.941 0.601185 1.45683 0
M  V30 5737 C 545.352 0.179659 1.85834 0
M  V30 5738 C 545.703 -1.26189 1.50236 0
M  V30 5739 O 544.828 -1.95587 0.925987 0
M  V30 5740 C 545.423 0.319277 3.37292 0
M  V30 5741 C 543.982 -0.0475092 3.7637 0
M  V30 5742 C 543.129 0.646692 2.69654 0
M  V30 5743 H 546.08 0.808268 1.36575 0
M  V30 5744 H 546.101 -0.4503 3.77826 0
M  V30 5745 H 545.613 1.36855 3.6317 0
M  V30 5746 H 543.714 -1.0962 3.5611 0
M  V30 5747 H 543.827 0.34168 4.7788 0
M  V30 5748 H 542.191 0.0849971 2.54558 0
M  V30 5749 H 542.974 1.69797 2.98369 0
M  V30 5750 N 545.419 -1.53889 0.339982 0
M  V30 5751 C 546.83 -1.86139 -0.144671 0
M  V30 5752 C 547.181 -1.2613 -1.50285 0
M  V30 5753 O 546.306 -0.573515 -2.08662 0
M  V30 5754 C 546.901 -3.37728 -0.269285 0
M  V30 5755 C 545.46 -3.69868 -0.698168 0
M  V30 5756 C 544.607 -2.76777 0.170249 0
M  V30 5757 H 547.558 -1.48503 0.559704 0
M  V30 5758 H 547.579 -3.64331 -1.0974 0
M  V30 5759 H 547.091 -3.81375 0.719366 0
M  V30 5760 H 545.192 -3.31764 -1.69597 0
M  V30 5761 H 545.305 -4.76582 -0.490533 0
M  V30 5762 H 543.669 -2.52188 -0.356844 0
M  V30 5763 H 544.452 -3.23253 1.15597 0
M  V30 5764 N 546.897 -0.0685191 -1.57451 0
M  V30 5765 C 548.146 0.600898 -1.92541 0
M  V30 5766 C 548.459 1.70967 -0.950239 0
M  V30 5767 O 549.665 2.43844 -1.19384 0
M  V30 5768 C 548.121 1.12019 -3.42023 0
M  V30 5769 C 547.729 0.0426028 -4.4798 0
M  V30 5770 C 549.473 1.76386 -3.86119 0
M  V30 5771 C 547.38 0.575759 -5.88591 0
M  V30 5772 H 546.31 0.228225 -0.71863 0
M  V30 5773 H 548.961 -0.140223 -1.82963 0
M  V30 5774 H 547.343 1.91418 -3.46663 0
M  V30 5775 H 548.517 -0.73182 -4.54952 0
M  V30 5776 H 546.832 -0.504642 -4.13331 0
M  V30 5777 H 549.429 2.17302 -4.88553 0
M  V30 5778 H 549.772 2.62255 -3.23308 0
M  V30 5779 H 550.305 1.03615 -3.84069 0
M  V30 5780 H 547.044 -0.245691 -6.55039 0
M  V30 5781 H 546.564 1.31778 -5.85145 0
M  V30 5782 H 548.243 1.0532 -6.3837 0
M  V30 5783 N 548.375 1.56261 0.205012 0
M  V30 5784 C 549.622 1.8004 0.926927 0
M  V30 5785 C 549.95 0.640086 1.83666 0
M  V30 5786 O 549.205 -0.374702 1.92079 0
M  V30 5787 C 549.504 3.09722 1.78345 0
M  V30 5788 C 549.17 4.39082 1.02555 0
M  V30 5789 C 547.832 4.74226 0.816256 0
M  V30 5790 C 550.184 5.18877 0.491559 0
M  V30 5791 C 547.512 5.86668 0.0613287 0
M  V30 5792 C 549.864 6.32105 -0.250107 0
M  V30 5793 C 548.528 6.6584 -0.470508 0
M  V30 5794 H 547.798 0.658812 0.339187 0
M  V30 5795 H 550.445 1.90515 0.19395 0
M  V30 5796 H 548.75 2.9444 2.5848 0
M  V30 5797 H 550.447 3.25324 2.34446 0
M  V30 5798 H 547.037 4.11497 1.19868 0
M  V30 5799 H 551.221 4.92147 0.640684 0
M  V30 5800 H 546.477 6.11283 -0.119501 0
M  V30 5801 H 550.651 6.93157 -0.671307 0
M  V30 5802 H 548.278 7.5281 -1.05739 0
M  V30 5803 N 549.853 -0.472356 1.50355 0
M  V30 5804 C 550.785 -1.58795 1.65278 0
M  V30 5805 C 551.798 -1.53782 0.534313 0
M  V30 5806 O 552.987 -1.59193 0.807446 0
M  V30 5807 C 550.087 -2.97672 1.62001 0
M  V30 5808 C 549.26 -3.27568 2.89859 0
M  V30 5809 C 548.319 -4.45993 2.79242 0
M  V30 5810 O 547.345 -4.46364 3.53197 0
M  V30 5811 N 548.547 -5.47578 1.92713 0
M  V30 5812 H 551.312 -1.46411 2.61503 0
M  V30 5813 H 548.873 -0.660751 1.47803 0
M  V30 5814 H 550.865 -3.74862 1.52513 0
M  V30 5815 H 549.435 -3.03832 0.735159 0
M  V30 5816 H 548.655 -2.39003 3.13483 0
M  V30 5817 H 549.943 -3.44352 3.74565 0
M  V30 5818 H 549.341 -5.50099 1.31939 0
M  V30 5819 H 547.898 -6.23757 1.8913 0
M  V30 5820 N 551.331 -1.39911 -0.725443 0
M  V30 5821 C 552.263 -1.35301 -1.85003 0
M  V30 5822 C 553.276 -0.260102 -1.60709 0
M  V30 5823 O 554.465 -0.519749 -1.70766 0
M  V30 5824 C 551.565 -1.08039 -3.21218 0
M  V30 5825 C 550.738 -2.28793 -3.7279 0
M  V30 5826 C 549.797 -1.97841 -4.87591 0
M  V30 5827 O 548.823 -2.70616 -5.00755 0
M  V30 5828 N 550.025 -0.950367 -5.72668 0
M  V30 5829 H 552.79 -2.32218 -1.89459 0
M  V30 5830 H 550.351 -1.34137 -0.90658 0
M  V30 5831 H 552.343 -0.853354 -3.95601 0
M  V30 5832 H 550.913 -0.198229 -3.11971 0
M  V30 5833 H 550.133 -2.67388 -2.8965 0
M  V30 5834 H 551.421 -3.09317 -4.03981 0
M  V30 5835 H 550.819 -0.347436 -5.64632 0
M  V30 5836 H 549.376 -0.783232 -6.47077 0
M  V30 5837 N 552.809 0.956637 -1.25245 0
M  V30 5838 C 554.22 1.51569 -1.09012 0
M  V30 5839 C 554.571 1.93322 0.334813 0
M  V30 5840 O 553.696 1.78421 1.22454 0
M  V30 5841 C 554.291 2.75444 -1.97271 0
M  V30 5842 C 552.85 3.27669 -1.8523 0
M  V30 5843 C 551.997 2.00517 -1.91542 0
M  V30 5844 H 554.948 0.773746 -1.3856 0
M  V30 5845 H 554.969 3.4919 -1.51151 0
M  V30 5846 H 554.481 2.45024 -3.00973 0
M  V30 5847 H 552.582 3.62914 -0.844045 0
M  V30 5848 H 552.695 3.9582 -2.69932 0
M  V30 5849 H 551.059 2.15727 -1.35404 0
M  V30 5850 H 551.842 1.72448 -2.96844 0
M  V30 5851 N 554.287 1.06798 1.15896 0
M  V30 5852 C 555.534 0.787767 1.86549 0
M  V30 5853 C 555.862 -0.685959 1.82002 0
M  V30 5854 O 555.117 -1.5188 1.23414 0
M  V30 5855 C 555.416 1.23414 3.35416 0
M  V30 5856 C 555.082 2.71285 3.6016 0
M  V30 5857 C 553.744 3.11676 3.66622 0
M  V30 5858 C 556.096 3.6676 3.7032 0
M  V30 5859 C 553.424 4.4637 3.8075 0
M  V30 5860 C 555.776 5.01209 3.8597 0
M  V30 5861 C 554.44 5.41229 3.90676 0
M  V30 5862 H 553.71 0.288264 0.682631 0
M  V30 5863 H 556.357 1.338 1.37003 0
M  V30 5864 H 554.662 0.60319 3.87129 0
M  V30 5865 H 556.359 0.994298 3.88477 0
M  V30 5866 H 552.949 2.39015 3.55767 0
M  V30 5867 H 557.133 3.36685 3.64633 0
M  V30 5868 H 552.389 4.76855 3.82648 0
M  V30 5869 H 556.563 5.75067 3.92773 0
M  V30 5870 H 554.19 6.45602 4.01375 0
M  V30 5871 N 555.766 -1.3263 0.851289 0
M  V30 5872 C 556.996 -2.01271 0.466222 0
M  V30 5873 C 557.404 -1.64156 -0.940714 0
M  V30 5874 O 556.747 -0.857109 -1.62479 0
M  V30 5875 C 556.809 -3.55695 0.521672 0
M  V30 5876 C 556.473 -4.16227 1.88691 0
M  V30 5877 C 557.47 -4.34699 2.85189 0
M  V30 5878 C 555.155 -4.52377 2.18313 0
M  V30 5879 C 557.149 -4.88484 4.09465 0
M  V30 5880 C 554.836 -5.05868 3.42843 0
M  V30 5881 C 555.834 -5.23869 4.38235 0
M  V30 5882 O 555.522 -5.76218 5.6056 0
M  V30 5883 H 555.254 -0.651034 0.18202 0
M  V30 5884 H 557.808 -1.7026 1.14894 0
M  V30 5885 H 556.038 -3.86086 -0.217888 0
M  V30 5886 H 557.727 -4.05613 0.152682 0
M  V30 5887 H 558.493 -4.07107 2.63607 0
M  V30 5888 H 554.372 -4.37652 1.44851 0
M  V30 5889 H 557.916 -5.02451 4.83931 0
M  V30 5890 H 553.813 -5.32891 3.64277 0
M  V30 5891 H 554.581 -5.94616 5.62471 0
M  V30 5892 N 557.244 -0.608902 -1.45362 0
M  V30 5893 C 558.194 0.130616 -2.27626 0
M  V30 5894 C 559.178 0.837323 -1.37396 0
M  V30 5895 O 560.37 0.727096 -1.61376 0
M  V30 5896 C 557.499 1.12646 -3.24293 0
M  V30 5897 C 556.585 0.42052 -4.2201 0
M  V30 5898 N 556.976 -0.538569 -5.02925 0
M  V30 5899 C 555.274 0.667901 -4.40971 0
M  V30 5900 C 555.975 -0.953625 -5.7383 0
M  V30 5901 N 554.951 -0.297097 -5.42788 0
M  V30 5902 H 558.753 -0.605996 -2.87585 0
M  V30 5903 H 556.267 -0.432672 -1.5653 0
M  V30 5904 H 558.264 1.67066 -3.81961 0
M  V30 5905 H 556.924 1.86361 -2.65894 0
M  V30 5906 H 557.935 -0.915375 -5.09746 0
M  V30 5907 H 554.612 1.38963 -3.93695 0
M  V30 5908 H 556.002 -1.74473 -6.48852 0
M  V30 5909 N 558.722 1.53707 -0.348139 0
M  V30 5910 C 559.969 2.00988 0.246966 0
M  V30 5911 C 560.297 1.23586 1.50189 0
M  V30 5912 O 559.552 0.312817 1.93184 0
M  V30 5913 C 559.851 3.52292 0.602061 0
M  V30 5914 C 559.517 4.47453 -0.556509 0
M  V30 5915 C 558.179 4.73188 -0.874446 0
M  V30 5916 C 560.531 5.03851 -1.33354 0
M  V30 5917 C 557.859 5.52577 -1.9717 0
M  V30 5918 C 560.211 5.84437 -2.42108 0
M  V30 5919 C 558.875 6.08465 -2.74456 0
M  V30 5920 H 558.145 0.735469 0.0903712 0
M  V30 5921 H 560.792 1.85464 -0.477001 0
M  V30 5922 H 559.097 3.65672 1.40681 0
M  V30 5923 H 560.794 3.86337 1.07447 0
M  V30 5924 H 557.384 4.27558 -0.298652 0
M  V30 5925 H 561.568 4.8393 -1.10117 0
M  V30 5926 H 556.824 5.69418 -2.22651 0
M  V30 5927 H 560.998 6.27151 -3.02745 0
M  V30 5928 H 558.625 6.69768 -3.59604 0
M  V30 5929 N 560.2 0.0768682 1.57412 0
M  V30 5930 C 561.132 -0.918248 2.10002 0
M  V30 5931 C 562.145 -1.25808 1.03325 0
M  V30 5932 O 563.334 -1.21438 1.30824 0
M  V30 5933 C 560.434 -2.23263 2.54964 0
M  V30 5934 C 559.607 -2.07088 3.8527 0
M  V30 5935 C 558.666 -3.21876 4.16272 0
M  V30 5936 O 557.692 -2.96643 4.8579 0
M  V30 5937 N 558.894 -4.4712 3.70221 0
M  V30 5938 H 561.659 -0.469209 2.96004 0
M  V30 5939 H 559.22 -0.108725 1.61535 0
M  V30 5940 H 561.212 -2.9897 2.72762 0
M  V30 5941 H 559.782 -2.59649 1.74072 0
M  V30 5942 H 559.002 -1.15818 3.76802 0
M  V30 5943 H 560.29 -1.93537 4.70554 0
M  V30 5944 H 559.688 -4.70506 3.1407 0
M  V30 5945 H 558.245 -5.19837 3.93209 0
M  V30 5946 N 561.678 -1.56367 -0.196722 0
M  V30 5947 C 562.608 -1.97442 -1.24655 0
M  V30 5948 C 563.589 -0.846147 -1.47561 0
M  V30 5949 O 564.774 -1.11035 -1.59326 0
M  V30 5950 C 561.904 -2.31253 -2.59112 0
M  V30 5951 C 560.858 -3.46804 -2.50821 0
M  V30 5952 C 560.184 -3.66286 -3.89536 0
M  V30 5953 C 561.484 -4.8104 -2.03465 0
M  V30 5954 H 563.178 -2.85388 -0.905216 0
M  V30 5955 H 560.724 -1.37304 -0.434002 0
M  V30 5956 H 562.677 -2.58583 -3.32736 0
M  V30 5957 H 561.401 -1.40188 -2.94983 0
M  V30 5958 H 560.06 -3.19563 -1.79653 0
M  V30 5959 H 559.708 -2.72555 -4.22756 0
M  V30 5960 H 559.408 -4.4402 -3.84864 0
M  V30 5961 H 560.932 -3.9599 -4.64784 0
M  V30 5962 H 562.346 -5.07411 -2.66846 0
M  V30 5963 H 560.743 -5.62232 -2.09798 0
M  V30 5964 H 561.813 -4.74732 -0.98781 0
M  V30 5965 N 563.156 0.464375 -1.50603 0
M  V30 5966 C 564.103 1.56152 -1.69956 0
M  V30 5967 C 565.073 1.57046 -0.54091 0
M  V30 5968 O 566.258 1.74473 -0.772258 0
M  V30 5969 C 563.398 2.94079 -1.80586 0
M  V30 5970 C 562.511 3.02923 -3.07996 0
M  V30 5971 C 561.646 4.31806 -3.09382 0
M  V30 5972 C 560.685 4.34417 -4.31218 0
M  V30 5973 N 559.822 5.54782 -4.30304 0
M  V30 5974 H 564.662 1.38955 -2.6362 0
M  V30 5975 H 562.199 0.675482 -1.30674 0
M  V30 5976 H 564.157 3.74073 -1.8473 0
M  V30 5977 H 562.787 3.09896 -0.903556 0
M  V30 5978 H 561.839 2.1576 -3.13292 0
M  V30 5979 H 563.151 3.00712 -3.97962 0
M  V30 5980 H 562.305 5.20153 -3.12292 0
M  V30 5981 H 561.044 4.36636 -2.17257 0
M  V30 5982 H 560.049 3.44467 -4.28512 0
M  V30 5983 H 561.274 4.31273 -5.24576 0
M  V30 5984 H 559.22 5.60384 -3.41037 0
M  V30 5985 H 559.137 5.54339 -5.14047 0
M  V30 5986 H 560.405 6.45235 -4.3737 0
M  V30 5987 N 564.634 1.40294 0.718013 0
M  V30 5988 C 565.544 1.42678 1.86226 0
M  V30 5989 C 566.56 0.319655 1.71039 0
M  V30 5990 O 567.736 0.563852 1.93346 0
M  V30 5991 C 564.801 1.2852 3.21999 0
M  V30 5992 C 563.862 2.49354 3.49458 0
M  V30 5993 C 563.095 2.35863 4.78753 0
M  V30 5994 O 563.318 1.37114 5.53675 0
M  V30 5995 O 562.252 3.25189 5.06494 0
M  V30 5996 H 566.078 2.39167 1.87171 0
M  V30 5997 H 563.663 1.2159 0.868112 0
M  V30 5998 H 565.545 1.22824 4.03103 0
M  V30 5999 H 564.22 0.351359 3.21787 0
M  V30 6000 H 563.127 2.60628 2.68373 0
M  V30 6001 H 564.46 3.41491 3.54464 0
M  V30 6002 N 566.112 -0.949982 1.2575 0
M  V30 6003 C 567.06 -2.06869 1.06339 0
M  V30 6004 C 568.054 -1.69399 -0.00708901 0
M  V30 6005 O 569.26 -1.79383 0.148897 0
M  V30 6006 H 565.635 -0.677197 0.326969 0
M  V30 6007 H 567.606 -2.20396 2.01167 0
M  V30 6008 C 566.355 -3.40503 0.703769 0
M  V30 6009 H 565.678 -3.69807 1.51931 0
M  V30 6010 H 567.118 -4.19623 0.607677 0
M  V30 6011 C 565.577 -3.31685 -0.5905 0
M  V30 6012 O 566.107 -3.67085 -1.63131 0
M  V30 6013 N 564.313 -2.84797 -0.577859 0
M  V30 6014 H 563.86 -2.56186 0.26951 0
M  V30 6015 H 563.818 -2.79279 -1.44398 0
M  V30 6016 N 567.59 -1.07411 -1.15328 0
M  V30 6017 C 568.522 -0.652924 -2.19703 0
M  V30 6018 C 569.535 0.294869 -1.60107 0
M  V30 6019 O 570.724 0.0840932 -1.78302 0
M  V30 6020 C 567.824 0.061434 -3.38844 0
M  V30 6021 C 566.997 -0.902696 -4.27984 0
M  V30 6022 C 566.056 -0.225521 -5.25717 0
M  V30 6023 O 565.082 -0.86676 -5.62562 0
M  V30 6024 N 566.284 1.02858 -5.71315 0
M  V30 6025 H 569.049 -1.55081 -2.56457 0
M  V30 6026 H 566.61 -0.958883 -1.30449 0
M  V30 6027 H 568.602 0.525145 -4.01278 0
M  V30 6028 H 567.172 0.861269 -3.00501 0
M  V30 6029 H 566.392 -1.54551 -3.6264 0
M  V30 6030 H 567.68 -1.55636 -4.84412 0
M  V30 6031 H 567.078 1.56948 -5.43492 0
M  V30 6032 H 565.635 1.43596 -6.35786 0
M  V30 6033 N 569.068 1.32177 -0.85831 0
M  V30 6034 C 570.015 2.28794 -0.303607 0
M  V30 6035 C 570.985 1.55213 0.591453 0
M  V30 6036 O 572.17 1.83418 0.525585 0
M  V30 6037 C 569.31 3.41475 0.49889 0
M  V30 6038 C 568.423 4.2993 -0.422373 0
M  V30 6039 C 567.558 5.29743 0.393111 0
M  V30 6040 C 566.597 6.09842 -0.525317 0
M  V30 6041 N 565.734 7.01643 0.253208 0
M  V30 6042 H 570.574 2.75631 -1.13276 0
M  V30 6043 H 568.111 1.35606 -0.570026 0
M  V30 6044 H 570.069 4.05531 0.979826 0
M  V30 6045 H 568.699 2.95779 1.29284 0
M  V30 6046 H 567.751 3.66422 -1.02171 0
M  V30 6047 H 569.063 4.85899 -1.12709 0
M  V30 6048 H 568.217 5.9942 0.937056 0
M  V30 6049 H 566.956 4.744 1.13117 0
M  V30 6050 H 565.961 5.39066 -1.08112 0
M  V30 6051 H 567.186 6.6727 -1.26205 0
M  V30 6052 H 565.132 6.48725 0.974295 0
M  V30 6053 H 565.049 7.54981 -0.392398 0
M  V30 6054 H 566.317 7.756 0.778761 0
M  V30 6055 N 570.547 0.616602 1.45037 0
M  V30 6056 C 571.494 -0.0969439 2.30596 0
M  V30 6057 C 572.464 -0.851151 1.42635 0
M  V30 6058 O 573.649 -0.835092 1.71554 0
M  V30 6059 C 570.789 -1.08234 3.27688 0
M  V30 6060 C 569.902 -0.328072 4.30752 0
M  V30 6061 C 569.037 -1.30399 5.14946 0
M  V30 6062 C 568.076 -0.538049 6.09731 0
M  V30 6063 N 567.213 -1.46371 6.86673 0
M  V30 6064 H 572.053 0.63864 2.91076 0
M  V30 6065 H 569.59 0.326733 1.43425 0
M  V30 6066 H 571.548 -1.66688 3.82454 0
M  V30 6067 H 570.178 -1.78523 2.68941 0
M  V30 6068 H 569.23 0.372136 3.78575 0
M  V30 6069 H 570.542 0.269142 4.98073 0
M  V30 6070 H 569.696 -1.96032 5.74157 0
M  V30 6071 H 568.435 -1.93514 4.47665 0
M  V30 6072 H 567.44 0.131852 5.49642 0
M  V30 6073 H 568.665 0.0881732 6.79043 0
M  V30 6074 H 566.611 -2.08233 6.22073 0
M  V30 6075 H 566.528 -0.920152 7.50379 0
M  V30 6076 H 567.796 -2.10932 7.50418 0
M  V30 6077 N 572.025 -1.5352 0.356285 0
M  V30 6078 C 573.436 -1.86282 -0.12492 0
M  V30 6079 C 573.787 -1.27717 -1.48939 0
M  V30 6080 O 572.912 -0.595614 -2.08042 0
M  V30 6081 C 573.507 -3.37995 -0.23345 0
M  V30 6082 C 572.066 -3.70588 -0.658899 0
M  V30 6083 C 571.213 -2.76581 0.199596 0
M  V30 6084 H 574.164 -1.47901 0.575423 0
M  V30 6085 H 574.185 -3.65475 -1.0587 0
M  V30 6086 H 573.697 -3.8059 0.759776 0
M  V30 6087 H 571.798 -3.33544 -1.66069 0
M  V30 6088 H 571.911 -4.77076 -0.439957 0
M  V30 6089 H 570.275 -2.52552 -0.330076 0
M  V30 6090 H 571.058 -3.22008 1.19019 0
M  V30 6091 N 573.503 -0.0852151 -1.57369 0
M  V30 6092 C 574.433 0.874556 -2.16503 0
M  V30 6093 C 575.414 1.30111 -1.09568 0
M  V30 6094 O 576.599 1.36977 -1.37662 0
M  V30 6095 C 573.729 2.13731 -2.73745 0
M  V30 6096 C 572.683 1.84971 -3.85966 0
M  V30 6097 C 572.009 3.17991 -4.29867 0
M  V30 6098 C 573.309 1.14442 -5.09608 0
M  V30 6099 H 575.003 0.381899 -2.96954 0
M  V30 6100 H 572.549 0.18225 -1.42842 0
M  V30 6101 H 574.502 2.81302 -3.13763 0
M  V30 6102 H 573.226 2.65263 -1.90534 0
M  V30 6103 H 571.885 1.19801 -3.46473 0
M  V30 6104 H 571.533 3.6739 -3.4356 0
M  V30 6105 H 571.233 2.99534 -5.05523 0
M  V30 6106 H 572.757 3.86737 -4.72511 0
M  V30 6107 H 574.171 1.72105 -5.46857 0
M  V30 6108 H 572.568 1.06197 -5.90629 0
M  V30 6109 H 573.638 0.12559 -4.84737 0
M  V30 6110 N 574.981 1.5647 0.188427 0
M  V30 6111 C 576.23 1.80207 0.905995 0
M  V30 6112 C 576.543 0.659579 1.84144 0
M  V30 6113 O 577.749 0.781431 2.60011 0
M  V30 6114 C 576.205 3.19255 1.66145 0
M  V30 6115 C 575.813 4.41324 0.770504 0
M  V30 6116 C 577.557 3.52298 2.36826 0
M  V30 6117 C 575.464 5.71394 1.52521 0
M  V30 6118 H 574.394 0.671953 0.342045 0
M  V30 6119 H 577.045 1.82808 0.159164 0
M  V30 6120 H 575.427 3.10922 2.45242 0
M  V30 6121 H 576.601 4.60797 0.0177261 0
M  V30 6122 H 574.916 4.16035 0.174199 0
M  V30 6123 H 577.513 4.46715 2.93854 0
M  V30 6124 H 577.856 2.76359 3.11338 0
M  V30 6125 H 578.389 3.62108 1.6469 0
M  V30 6126 H 575.128 6.50316 0.82275 0
M  V30 6127 H 574.648 5.55928 2.25175 0
M  V30 6128 H 576.327 6.12747 2.07725 0
M  V30 6129 N 576.459 -0.456382 1.50847 0
M  V30 6130 C 577.707 -1.20497 1.62249 0
M  V30 6131 C 578.028 -1.92156 0.331839 0
M  V30 6132 O 577.298 -1.84751 -0.651443 0
M  V30 6133 H 575.878 -0.447775 0.597918 0
M  V30 6134 H 578.54 -0.525099 1.87693 0
M  V30 6135 H 577.636 -1.94492 2.44089 0
M  V30 6136 N 577.937 -1.40673 -0.710563 0
M  V30 6137 C 579.165 -1.42547 -1.4996 0
M  V30 6138 C 579.58 -0.0265485 -1.88781 0
M  V30 6139 O 578.937 0.950694 -1.55782 0
M  V30 6140 C 578.988 -2.32071 -2.77173 0
M  V30 6141 O 578.709 -3.66518 -2.39992 0
M  V30 6142 C 580.21 -2.42591 -3.71032 0
M  V30 6143 H 577.43 -0.486025 -0.462623 0
M  V30 6144 H 579.974 -1.84783 -0.876102 0
M  V30 6145 H 578.129 -1.93184 -3.35795 0
M  V30 6146 H 578.543 -4.14115 -3.21884 0
M  V30 6147 H 580.017 -3.09429 -4.57119 0
M  V30 6148 H 580.494 -1.4525 -4.14486 0
M  V30 6149 H 581.1 -2.82051 -3.18319 0
M  V30 6150 N 579.415 0.9433 -1.26252 0
M  V30 6151 C 580.661 1.69175 -1.11837 0
M  V30 6152 C 580.994 1.91238 0.337891 0
M  V30 6153 O 580.269 1.49152 1.24836 0
M  V30 6154 C 580.552 3.06783 -1.88563 0
M  V30 6155 C 580.405 2.9206 -3.42083 0
M  V30 6156 C 581.724 4.06865 -1.67776 0
M  V30 6157 H 578.843 0.61399 -0.407658 0
M  V30 6158 H 581.485 1.09572 -1.55222 0
M  V30 6159 H 579.635 3.57663 -1.51689 0
M  V30 6160 H 581.307 2.48419 -3.88698 0
M  V30 6161 H 579.55 2.27731 -3.69217 0
M  V30 6162 H 580.221 3.89651 -3.90994 0
M  V30 6163 H 582.697 3.64939 -1.99897 0
M  V30 6164 H 581.573 5.01168 -2.23879 0
M  V30 6165 H 581.834 4.37705 -0.621816 0
M  V30 6166 N 580.893 1.08022 1.14757 0
M  V30 6167 C 581.823 0.728248 2.21853 0
M  V30 6168 C 582.804 -0.287486 1.67653 0
M  V30 6169 O 583.989 -0.158727 1.9355 0
M  V30 6170 C 581.119 0.132549 3.47047 0
M  V30 6171 C 580.073 1.07619 4.14249 0
M  V30 6172 C 579.399 0.342907 5.33599 0
M  V30 6173 C 580.699 2.41268 4.63235 0
M  V30 6174 H 582.393 1.62365 2.51551 0
M  V30 6175 H 579.939 0.782125 1.20908 0
M  V30 6176 H 581.892 -0.125665 4.21213 0
M  V30 6177 H 580.616 -0.797971 3.16702 0
M  V30 6178 H 579.275 1.31944 3.42033 0
M  V30 6179 H 578.923 -0.59129 4.99513 0
M  V30 6180 H 578.623 0.971955 5.79506 0
M  V30 6181 H 580.147 0.0926538 6.1053 0
M  V30 6182 H 581.561 2.21232 5.28894 0
M  V30 6183 H 579.958 2.9983 5.19829 0
M  V30 6184 H 581.028 3.03079 3.78512 0
M  V30 6185 N 582.371 -1.3172 0.865308 0
M  V30 6186 C 583.334 -2.26918 0.322627 0
M  V30 6187 C 584.334 -1.52031 -0.523751 0
M  V30 6188 O 585.524 -1.70973 -0.333727 0
M  V30 6189 C 582.656 -3.36558 -0.542338 0
M  V30 6190 H 583.849 -2.76432 1.16298 0
M  V30 6191 H 581.402 -1.42573 0.640512 0
M  V30 6192 H 582.137 -2.92329 -1.40407 0
M  V30 6193 H 581.922 -3.92048 0.0636395 0
M  V30 6194 H 583.412 -4.07465 -0.91446 0
M  V30 6195 N 583.85 -0.624285 -1.44708 0
M  V30 6196 C 584.783 0.133905 -2.27807 0
M  V30 6197 C 585.76 0.857794 -1.38133 0
M  V30 6198 O 586.945 0.863277 -1.6757 0
M  V30 6199 C 584.072 1.19541 -3.16903 0
M  V30 6200 C 583.118 0.572813 -4.22636 0
M  V30 6201 S 583.951 -0.631953 -5.31758 0
M  V30 6202 C 585.106 0.429733 -6.24423 0
M  V30 6203 H 585.34 -0.571072 -2.91764 0
M  V30 6204 H 582.873 -0.412261 -1.48794 0
M  V30 6205 H 584.831 1.80293 -3.68788 0
M  V30 6206 H 583.492 1.87255 -2.5218 0
M  V30 6207 H 582.685 1.37205 -4.84965 0
M  V30 6208 H 582.287 0.0400641 -3.73979 0
M  V30 6209 H 584.579 1.30421 -6.64828 0
M  V30 6210 H 585.522 -0.157804 -7.07924 0
M  V30 6211 H 585.93 0.75256 -5.59461 0
M  V30 6212 N 585.328 1.53329 -0.364422 0
M  V30 6213 C 586.605 1.93557 0.281962 0
M  V30 6214 C 586.985 1.29786 1.6649 0
M  V30 6215 O 586.333 0.456512 2.23893 0
M  V30 6216 C 586.543 3.47405 0.333331 0
M  V30 6217 C 587.891 4.20699 0.574231 0
M  V30 6218 O 588.915 3.53779 0.414588 0
M  V30 6219 O 587.774 5.39287 0.885002 0
M  V30 6220 H 584.868 0.809573 0.168881 0
M  V30 6221 H 587.414 1.64494 -0.417121 0
M  V30 6222 H 586.186 3.86091 -0.636326 0
M  V30 6223 H 585.809 3.82697 1.07836 0
M  V30 6224 N 586.806 0.0935595 1.57322 0
M  V30 6225 C 588.217 -0.435807 1.81542 0
M  V30 6226 C 588.568 -1.68263 1.00907 0
M  V30 6227 O 587.693 -2.15087 0.237983 0
M  V30 6228 C 588.288 -0.797436 3.29282 0
M  V30 6229 C 586.847 -1.27155 3.54272 0
M  V30 6230 C 585.994 -0.267455 2.76007 0
M  V30 6231 H 588.945 0.31902 1.5546 0
M  V30 6232 H 588.966 -1.6571 3.42521 0
M  V30 6233 H 588.478 0.110206 3.87943 0
M  V30 6234 H 586.579 -2.19696 3.00939 0
M  V30 6235 H 586.692 -1.23445 4.62923 0
M  V30 6236 H 585.056 -0.749282 2.43429 0
M  V30 6237 H 585.839 0.632839 3.37417 0
M  V30 6238 N 588.284 -1.56567 -0.180126 0
M  V30 6239 C 589.561 -1.7235 -0.924931 0
M  V30 6240 C 589.941 -0.652523 -2.00762 0
M  V30 6241 O 589.289 0.334115 -2.26044 0
M  V30 6242 C 589.499 -3.1523 -1.49771 0
M  V30 6243 C 590.847 -3.75921 -1.97405 0
M  V30 6244 O 591.871 -3.18452 -1.59583 0
M  V30 6245 O 590.73 -4.7681 -2.67048 0
M  V30 6246 H 587.824 -0.703502 -0.434758 0
M  V30 6247 H 590.37 -1.6886 -0.168647 0
M  V30 6248 H 589.142 -3.84656 -0.718027 0
M  V30 6249 H 588.765 -3.23009 -2.31842 0
M  V30 6250 N 589.762 0.448376 -1.51087 0
M  V30 6251 C 590.725 1.52588 -1.71025 0
M  V30 6252 C 591.725 1.49958 -0.580442 0
M  V30 6253 O 592.915 1.52176 -0.847833 0
M  V30 6254 C 590.047 2.92163 -1.75652 0
M  V30 6255 H 591.24 1.36218 -2.67179 0
M  V30 6256 H 588.793 0.676313 -1.4091 0
M  V30 6257 H 589.528 3.13951 -0.812724 0
M  V30 6258 H 589.313 2.95478 -2.57751 0
M  V30 6259 H 590.803 3.70349 -1.92953 0
M  V30 6260 N 591.24 1.41047 0.703093 0
M  V30 6261 C 592.203 1.42036 1.79884 0
M  V30 6262 C 593.203 0.312153 1.57741 0
M  V30 6263 O 594.393 0.571672 1.64553 0
M  V30 6264 C 591.525 1.22437 3.18154 0
M  V30 6265 H 592.718 2.39572 1.80403 0
M  V30 6266 H 590.271 1.27079 0.909977 0
M  V30 6267 H 591.006 0.257112 3.23279 0
M  V30 6268 H 590.791 2.02723 3.35627 0
M  V30 6269 H 592.281 1.25946 3.98155 0
M  V30 6270 N 592.718 -0.936591 1.26751 0
M  V30 6271 C 594.134 -1.21095 1.03963 0
M  V30 6272 C 594.334 -2.00156 -0.232372 0
M  V30 6273 O 593.39 -2.3434 -0.940274 0
M  V30 6274 C 594.703 -1.96775 2.27377 0
M  V30 6275 C 596.251 -2.09749 2.32324 0
M  V30 6276 C 596.726 -2.88832 3.55443 0
M  V30 6277 N 598.217 -2.96404 3.55948 0
M  V30 6278 C 598.952 -3.58036 4.47881 0
M  V30 6279 N 598.448 -4.21132 5.50109 0
M  V30 6280 N 600.241 -3.55353 4.35523 0
M  V30 6281 H 592.392 -0.408173 2.08441 0
M  V30 6282 H 594.655 -0.243139 0.91629 0
M  V30 6283 H 594.361 -1.46094 3.19921 0
M  V30 6284 H 594.235 -2.97424 2.31989 0
M  V30 6285 H 596.622 -2.5962 1.40291 0
M  V30 6286 H 596.703 -1.08347 2.31721 0
M  V30 6287 H 596.347 -2.39647 4.47808 0
M  V30 6288 H 596.277 -3.90499 3.53296 0
M  V30 6289 H 598.768 -2.51552 2.82011 0
M  V30 6290 H 599.081 -4.66071 6.16439 0
M  V30 6291 H 597.426 -4.19705 5.53961 0
M  V30 6292 H 600.617 -3.05256 3.54875 0
M  V30 6293 H 600.79 -4.03097 5.07363 0
M  V30 6294 N 594.196 -1.08629 -1.14182 0
M  V30 6295 C 595.146 -0.687882 -2.17376 0
M  V30 6296 C 596.13 0.293632 -1.58198 0
M  V30 6297 O 597.322 0.105292 -1.76687 0
M  V30 6298 C 594.451 -0.101184 -3.43151 0
M  V30 6299 C 593.537 -1.10862 -4.09354 0
M  V30 6300 N 593.928 -2.29285 -4.50846 0
M  V30 6301 C 592.226 -0.944897 -4.35876 0
M  V30 6302 C 592.927 -2.93305 -5.02342 0
M  V30 6303 N 591.903 -2.20903 -4.96692 0
M  V30 6304 H 595.705 -1.58963 -2.472 0
M  V30 6305 H 593.219 -0.961329 -1.3089 0
M  V30 6306 H 595.216 0.202209 -4.16409 0
M  V30 6307 H 593.876 0.795522 -3.14804 0
M  V30 6308 H 594.887 -2.66927 -4.43813 0
M  V30 6309 H 591.564 -0.102186 -4.17375 0
M  V30 6310 H 592.954 -3.93932 -5.44304 0
M  V30 6311 N 595.674 1.31259 -0.872281 0
M  V30 6312 C 596.899 2.0133 -0.498099 0
M  V30 6313 C 597.324 1.65031 0.902568 0
M  V30 6314 O 596.682 0.860164 1.59596 0
M  V30 6315 C 596.73 3.54411 -0.665205 0
M  V30 6316 O 595.834 4.11347 0.294473 0
M  V30 6317 H 595.175 0.633844 -0.197832 0
M  V30 6318 H 597.705 1.67402 -1.17633 0
M  V30 6319 H 597.715 4.04147 -0.559373 0
M  V30 6320 H 596.39 3.80171 -1.68651 0
M  V30 6321 H 594.967 3.72624 0.143403 0
M  V30 6322 N 597.152 0.631951 1.44375 0
M  V30 6323 C 598.401 0.134214 2.01253 0
M  V30 6324 C 598.714 -1.25171 1.50305 0
M  V30 6325 O 599.92 -1.8435 1.99317 0
M  V30 6326 C 598.376 0.189187 3.59402 0
M  V30 6327 C 597.984 1.57647 4.19346 0
M  V30 6328 C 599.728 -0.252044 4.23751 0
M  V30 6329 C 597.635 1.58651 5.69722 0
M  V30 6330 H 596.565 0.0464101 0.75257 0
M  V30 6331 H 599.216 0.790868 1.65582 0
M  V30 6332 H 597.598 -0.534584 3.92375 0
M  V30 6333 H 598.772 2.32389 3.97909 0
M  V30 6334 H 597.087 1.96186 3.67288 0
M  V30 6335 H 599.684 -0.264084 5.34047 0
M  V30 6336 H 600.027 -1.27951 3.96149 0
M  V30 6337 H 600.56 0.41926 3.95584 0
M  V30 6338 H 597.299 2.59237 6.0206 0
M  V30 6339 H 596.819 0.882039 5.93279 0
M  V30 6340 H 598.498 1.32082 6.33375 0
M  V30 6341 N 598.631 -1.53133 0.372548 0
M  V30 6342 C 599.879 -2.00958 -0.214534 0
M  V30 6343 C 600.2 -1.26135 -1.48711 0
M  V30 6344 O 599.47 -0.376597 -1.92246 0
M  V30 6345 H 598.05 -0.742456 -0.0822664 0
M  V30 6346 H 600.712 -1.88367 0.500385 0
M  V30 6347 H 599.808 -3.09031 -0.436605 0
M  V30 6348 N 600.109 -0.101901 -1.5727 0
M  V30 6349 C 601.339 0.567568 -1.98651 0
M  V30 6350 C 601.747 1.61839 -0.980037 0
M  V30 6351 O 601.09 1.83661 0.0376564 0
M  V30 6352 C 601.152 1.26742 -3.36417 0
M  V30 6353 C 600.816 0.366561 -4.55528 0
M  V30 6354 C 601.813 -0.388022 -5.1845 0
M  V30 6355 C 599.498 0.282629 -5.01504 0
M  V30 6356 C 601.492 -1.21445 -6.25724 0
M  V30 6357 C 599.179 -0.547443 -6.08643 0
M  V30 6358 C 600.177 -1.29462 -6.70618 0
M  V30 6359 O 599.865 -2.11095 -7.7569 0
M  V30 6360 H 599.597 0.156282 -0.657687 0
M  V30 6361 H 602.151 -0.179912 -2.04611 0
M  V30 6362 H 600.381 2.06162 -3.27161 0
M  V30 6363 H 602.07 1.8321 -3.622 0
M  V30 6364 H 602.836 -0.332949 -4.83856 0
M  V30 6365 H 598.715 0.853868 -4.53023 0
M  V30 6366 H 602.259 -1.79814 -6.74027 0
M  V30 6367 H 598.156 -0.603971 -6.42668 0
M  V30 6368 H 598.924 -2.03851 -7.92709 0
M  V30 6369 N 601.587 1.56661 0.17182 0
M  V30 6370 C 602.812 1.86459 0.908165 0
M  V30 6371 C 603.237 0.688181 1.75059 0
M  V30 6372 O 602.595 -0.362753 1.77634 0
M  V30 6373 C 602.643 3.14669 1.76112 0
M  V30 6374 O 601.747 2.96858 2.86268 0
M  V30 6375 H 601.088 0.613318 0.254434 0
M  V30 6376 H 603.618 2.03892 0.170113 0
M  V30 6377 H 603.628 3.46061 2.16115 0
M  V30 6378 H 602.303 3.99905 1.14233 0
M  V30 6379 H 600.88 2.76819 2.49852 0
M  V30 6380 N 603.065 -0.440357 1.51323 0
M  V30 6381 C 604.314 -1.18697 1.63076 0
M  V30 6382 C 604.627 -1.92418 0.35136 0
M  V30 6383 O 605.833 -2.69258 0.348221 0
M  V30 6384 C 604.289 -2.15849 2.87988 0
M  V30 6385 C 603.897 -1.47789 4.22921 0
M  V30 6386 C 605.641 -2.90962 3.09098 0
M  V30 6387 C 603.548 -2.43407 5.38987 0
M  V30 6388 H 602.478 -0.44676 0.607389 0
M  V30 6389 H 605.129 -0.454313 1.77787 0
M  V30 6390 H 603.511 -2.92537 2.66905 0
M  V30 6391 H 604.685 -0.7668 4.54375 0
M  V30 6392 H 603 -0.848404 4.07665 0
M  V30 6393 H 605.597 -3.62584 3.92985 0
M  V30 6394 H 605.94 -3.52133 2.22053 0
M  V30 6395 H 606.473 -2.21381 3.30507 0
M  V30 6396 H 603.212 -1.86929 6.28282 0
M  V30 6397 H 602.732 -3.12579 5.11913 0
M  V30 6398 H 604.411 -3.046 5.70813 0
M  V30 6399 N 604.543 -1.41418 -0.695603 0
M  V30 6400 C 605.959 -1.23887 -1.00619 0
M  V30 6401 C 606.159 -0.128206 -2.01092 0
M  V30 6402 O 605.215 0.507408 -2.47349 0
M  V30 6403 C 606.528 -2.58816 -1.53083 0
M  V30 6404 C 608.076 -2.65998 -1.64967 0
M  V30 6405 C 608.551 -4.01244 -2.20833 0
M  V30 6406 N 610.042 -4.0309 -2.28194 0
M  V30 6407 C 610.777 -5.04539 -2.72448 0
M  V30 6408 N 610.273 -6.16378 -3.16306 0
M  V30 6409 N 612.066 -4.91901 -2.72011 0
M  V30 6410 H 604.217 -2.12379 -0.0300061 0
M  V30 6411 H 606.48 -0.944958 -0.0758797 0
M  V30 6412 H 606.186 -3.40842 -0.867147 0
M  V30 6413 H 606.06 -2.81299 -2.51298 0
M  V30 6414 H 608.447 -1.84331 -2.30448 0
M  V30 6415 H 608.528 -2.47325 -0.652982 0
M  V30 6416 H 608.172 -4.83359 -1.55968 0
M  V30 6417 H 608.102 -4.17257 -3.21254 0
M  V30 6418 H 610.593 -3.22341 -1.97242 0
M  V30 6419 H 610.906 -6.89658 -3.487 0
M  V30 6420 H 609.251 -6.19914 -3.14215 0
M  V30 6421 H 612.442 -4.03613 -2.37095 0
M  V30 6422 H 612.615 -5.71102 -3.06181 0
M  V30 6423 N 606.021 0.929856 -1.27246 0
M  V30 6424 C 607.437 1.20542 -1.04603 0
M  V30 6425 C 607.637 2.00276 0.221754 0
M  V30 6426 O 606.693 2.34835 0.927833 0
M  V30 6427 C 608.006 1.95566 -2.28417 0
M  V30 6428 C 609.554 2.08513 -2.33433 0
M  V30 6429 C 610.029 2.86943 -3.5697 0
M  V30 6430 N 611.52 2.94512 -3.57515 0
M  V30 6431 C 612.255 3.55656 -4.49774 0
M  V30 6432 N 611.751 4.18209 -5.52334 0
M  V30 6433 N 613.544 3.53038 -4.37402 0
M  V30 6434 H 605.695 0.397113 -2.08655 0
M  V30 6435 H 607.958 0.238277 -0.917566 0
M  V30 6436 H 607.664 1.44395 -3.20691 0
M  V30 6437 H 607.538 2.9619 -2.33563 0
M  V30 6438 H 609.925 2.58872 -1.41666 0
M  V30 6439 H 610.006 1.07117 -2.32292 0
M  V30 6440 H 609.65 2.37268 -4.49072 0
M  V30 6441 H 609.58 3.8862 -3.55362 0
M  V30 6442 H 612.071 2.50053 -2.83341 0
M  V30 6443 H 612.384 4.62796 -6.18902 0
M  V30 6444 H 610.729 4.16761 -5.56179 0
M  V30 6445 H 613.92 3.0337 -3.56489 0
M  V30 6446 H 614.093 4.004 -5.09493 0
M  V30 6447 N 607.499 1.09233 1.13605 0
M  V30 6448 C 608.727 0.848908 1.88683 0
M  V30 6449 C 609.142 -0.599667 1.79024 0
M  V30 6450 O 608.499 -1.41265 1.15544 0
M  V30 6451 C 608.55 1.27273 3.38355 0
M  V30 6452 O 608.271 2.66449 3.47759 0
M  V30 6453 C 609.772 1.0614 4.30406 0
M  V30 6454 H 606.992 0.305549 0.597395 0
M  V30 6455 H 609.536 1.4538 1.43823 0
M  V30 6456 H 607.691 0.711776 3.80805 0
M  V30 6457 H 608.105 2.84264 4.40788 0
M  V30 6458 H 609.579 1.40725 5.33761 0
M  V30 6459 H 610.056 -0.000960332 4.392 0
M  V30 6460 H 610.662 1.60821 3.93722 0
M  V30 6461 N 608.977 -1.30795 0.87923 0
M  V30 6462 C 610.202 -2.01063 0.508769 0
M  V30 6463 C 610.627 -1.65508 -0.893803 0
M  V30 6464 O 609.985 -0.868616 -1.59138 0
M  V30 6465 C 610.033 -3.54054 0.683991 0
M  V30 6466 O 609.137 -4.11498 -0.272654 0
M  V30 6467 H 608.478 -0.632786 0.201191 0
M  V30 6468 H 611.008 -1.66776 1.18519 0
M  V30 6469 H 611.018 -4.03845 0.580798 0
M  V30 6470 H 609.693 -3.79271 1.70665 0
M  V30 6471 H 608.27 -3.72695 -0.12364 0
M  V30 6472 N 610.455 -0.639598 -1.44038 0
M  V30 6473 C 611.732 -0.078012 -1.95444 0
M  V30 6474 C 612.112 1.39847 -1.58133 0
M  V30 6475 O 611.46 2.11714 -0.859614 0
M  V30 6476 C 611.67 -0.309832 -3.47622 0
M  V30 6477 C 613.018 -0.207521 -4.24093 0
M  V30 6478 O 614.042 -0.241653 -3.55379 0
M  V30 6479 O 612.901 -0.119641 -5.46369 0
M  V30 6480 H 609.995 0.0174534 -0.826816 0
M  V30 6481 H 612.541 -0.711891 -1.54046 0
M  V30 6482 H 611.313 -1.33401 -3.67858 0
M  V30 6483 H 610.936 0.357777 -3.95987 0
M  V30 6484 N 611.933 1.52934 -0.380664 0
M  V30 6485 C 612.88 2.26197 0.458641 0
M  V30 6486 C 613.85 1.27462 1.06502 0
M  V30 6487 O 615.035 1.56274 1.09467 0
M  V30 6488 C 612.175 3.06571 1.58456 0
M  V30 6489 C 611.288 4.20222 1.00189 0
M  V30 6490 C 610.423 4.88007 2.09815 0
M  V30 6491 C 609.462 5.93665 1.49092 0
M  V30 6492 N 608.599 6.55081 2.52613 0
M  V30 6493 H 613.439 2.975 -0.172595 0
M  V30 6494 H 610.976 1.4678 -0.0969426 0
M  V30 6495 H 612.934 3.51455 2.24801 0
M  V30 6496 H 611.564 2.37494 2.18624 0
M  V30 6497 H 610.616 3.79714 0.228292 0
M  V30 6498 H 611.928 4.96102 0.518064 0
M  V30 6499 H 611.082 5.36151 2.83948 0
M  V30 6500 H 609.821 4.11632 2.61555 0
M  V30 6501 H 608.826 5.44868 0.7348 0
M  V30 6502 H 610.051 6.71969 0.981582 0
M  V30 6503 H 607.997 5.8155 3.03538 0
M  V30 6504 H 607.914 7.26548 2.08961 0
M  V30 6505 H 609.182 7.07871 3.26402 0
M  V30 6506 N 613.412 0.11024 1.57214 0
M  V30 6507 C 614.66 -0.548783 1.94506 0
M  V30 6508 C 614.981 -1.67772 0.99386 0
M  V30 6509 O 614.251 -1.9584 0.0485841 0
M  V30 6510 H 612.831 -0.205715 0.718116 0
M  V30 6511 H 615.493 0.177127 1.94093 0
M  V30 6512 H 614.589 -0.949096 2.97319 0
M  V30 6513 N 614.89 -1.56749 -0.16351 0
M  V30 6514 C 615.822 -1.93587 -1.22705 0
M  V30 6515 C 616.835 -0.829824 -1.40063 0
M  V30 6516 O 618.024 -1.10826 -1.39928 0
M  V30 6517 C 615.124 -2.1803 -2.59454 0
M  V30 6518 C 614.297 -3.4928 -2.63292 0
M  V30 6519 C 613.356 -3.62457 -3.8146 0
M  V30 6520 O 612.382 -4.35004 -3.67096 0
M  V30 6521 N 613.584 -2.97888 -4.9824 0
M  V30 6522 H 616.349 -2.8542 -0.914081 0
M  V30 6523 H 613.91 -1.58 -0.353214 0
M  V30 6524 H 615.902 -2.24102 -3.36987 0
M  V30 6525 H 614.472 -1.32543 -2.8311 0
M  V30 6526 H 613.692 -3.54795 -1.71796 0
M  V30 6527 H 614.98 -4.35632 -2.62873 0
M  V30 6528 H 614.378 -2.38833 -5.12811 0
M  V30 6529 H 612.935 -3.09545 -5.73607 0
M  V30 6530 N 616.368 0.432326 -1.51554 0
M  V30 6531 C 617.615 1.18134 -1.64471 0
M  V30 6532 C 617.943 1.91076 -0.363349 0
M  V30 6533 O 617.198 1.84492 0.65279 0
M  V30 6534 C 617.497 2.21907 -2.80164 0
M  V30 6535 C 617.163 1.65941 -4.19255 0
M  V30 6536 C 615.825 1.50401 -4.57092 0
M  V30 6537 C 618.177 1.24843 -5.06027 0
M  V30 6538 C 615.505 0.922443 -5.79403 0
M  V30 6539 C 617.857 0.68113 -6.28922 0
M  V30 6540 C 616.521 0.512673 -6.65528 0
M  V30 6541 H 615.791 0.432283 -0.601841 0
M  V30 6542 H 618.438 0.471701 -1.856 0
M  V30 6543 H 616.743 2.98928 -2.53277 0
M  V30 6544 H 618.44 2.79691 -2.87357 0
M  V30 6545 H 615.03 1.79014 -3.89425 0
M  V30 6546 H 619.214 1.35667 -4.77397 0
M  V30 6547 H 614.47 0.779733 -6.06408 0
M  V30 6548 H 618.644 0.35418 -6.95499 0
M  V30 6549 H 616.271 0.0599084 -7.60176 0
M  V30 6550 N 617.846 1.41785 0.688094 0
M  V30 6551 C 619.093 1.41544 1.44816 0
M  V30 6552 C 619.421 0.0271746 1.94481 0
M  V30 6553 O 618.676 -0.962235 1.7041 0
M  V30 6554 C 618.975 2.37532 2.67046 0
M  V30 6555 C 618.641 3.84209 2.35996 0
M  V30 6556 C 617.303 4.24165 2.27239 0
M  V30 6557 C 619.655 4.76785 2.10536 0
M  V30 6558 C 616.983 5.54695 1.91128 0
M  V30 6559 C 619.335 6.07644 1.75931 0
M  V30 6560 C 617.999 6.46613 1.65675 0
M  V30 6561 H 617.269 0.517945 0.529919 0
M  V30 6562 H 619.916 1.74635 0.785797 0
M  V30 6563 H 618.221 1.9772 3.38251 0
M  V30 6564 H 619.918 2.34615 3.25203 0
M  V30 6565 H 616.508 3.52567 2.4371 0
M  V30 6566 H 620.692 4.46714 2.16242 0
M  V30 6567 H 615.948 5.83762 1.81746 0
M  V30 6568 H 620.122 6.78874 1.55252 0
M  V30 6569 H 617.749 7.47668 1.37463 0
M  V30 6570 N 619.324 -0.923095 1.27737 0
M  V30 6571 C 620.74 -1.19985 1.05241 0
M  V30 6572 C 620.94 -2.00391 -0.21113 0
M  V30 6573 O 619.996 -2.35324 -0.915366 0
M  V30 6574 C 621.309 -1.94352 2.29451 0
M  V30 6575 C 622.857 -2.07273 2.34536 0
M  V30 6576 C 623.332 -2.85046 3.58487 0
M  V30 6577 N 624.823 -2.92612 3.59072 0
M  V30 6578 C 625.558 -3.53266 4.51654 0
M  V30 6579 N 625.054 -4.15274 5.54545 0
M  V30 6580 N 626.847 -3.50714 4.39268 0
M  V30 6581 H 618.998 -0.386042 2.08862 0
M  V30 6582 H 621.261 -0.233407 0.918817 0
M  V30 6583 H 620.967 -1.42692 3.21453 0
M  V30 6584 H 620.841 -2.94947 2.3513 0
M  V30 6585 H 623.228 -2.58117 1.43037 0
M  V30 6586 H 623.309 -1.05884 2.32857 0
M  V30 6587 H 622.953 -2.34884 4.50324 0
M  V30 6588 H 622.883 -3.8673 3.57418 0
M  V30 6589 H 625.374 -2.48547 2.84663 0
M  V30 6590 H 625.687 -4.59507 6.21348 0
M  V30 6591 H 624.032 -4.13806 5.58382 0
M  V30 6592 H 627.223 -3.01475 3.58093 0
M  V30 6593 H 627.396 -3.97693 5.1161 0
M  V30 6594 N 620.802 -1.09834 -1.13024 0
M  V30 6595 C 622.048 -0.83819 -1.84668 0
M  V30 6596 C 622.381 0.634645 -1.83537 0
M  V30 6597 O 621.656 1.46753 -1.27647 0
M  V30 6598 C 621.939 -1.37933 -3.32636 0
M  V30 6599 C 621.792 -2.91857 -3.42257 0
M  V30 6600 C 623.111 -1.01654 -4.28199 0
M  V30 6601 H 620.23 -0.30595 -0.670495 0
M  V30 6602 H 622.872 -1.36044 -1.32635 0
M  V30 6603 H 621.022 -0.935111 -3.77078 0
M  V30 6604 H 622.694 -3.44759 -3.06495 0
M  V30 6605 H 620.937 -3.28776 -2.83 0
M  V30 6606 H 621.608 -3.24799 -4.46329 0
M  V30 6607 H 624.084 -1.39973 -3.9185 0
M  V30 6608 H 622.96 -1.42217 -5.30156 0
M  V30 6609 H 623.221 0.0747794 -4.42037 0
M  V30 6610 N 622.28 1.30327 -0.886154 0
M  V30 6611 C 623.508 2.00254 -0.520176 0
M  V30 6612 C 623.923 1.66419 0.891637 0
M  V30 6613 O 623.28 0.901951 1.58654 0
M  V30 6614 C 623.331 3.54916 -0.686775 0
M  V30 6615 O 623.052 3.87547 -2.04301 0
M  V30 6616 C 624.553 4.42115 -0.323945 0
M  V30 6617 H 621.773 0.640204 -0.200947 0
M  V30 6618 H 624.317 1.66183 -1.19178 0
M  V30 6619 H 622.472 3.8735 -0.0625273 0
M  V30 6620 H 622.886 4.82247 -2.06249 0
M  V30 6621 H 624.36 5.49808 -0.491407 0
M  V30 6622 H 624.837 4.32953 0.73811 0
M  V30 6623 H 625.443 4.15129 -0.924565 0
M  V30 6624 N 623.758 0.647228 1.43697 0
M  V30 6625 C 624.705 -0.0480092 2.3075 0
M  V30 6626 C 625.675 -0.820705 1.44408 0
M  V30 6627 O 626.86 -0.798515 1.73287 0
M  V30 6628 C 624 -1.01259 3.2991 0
M  V30 6629 C 623.113 -0.236629 4.31351 0
M  V30 6630 C 622.248 -1.19447 5.17596 0
M  V30 6631 C 621.287 -0.408595 6.10735 0
M  V30 6632 N 620.424 -1.31772 6.89623 0
M  V30 6633 H 625.264 0.700238 2.89656 0
M  V30 6634 H 622.801 0.357082 1.427 0
M  V30 6635 H 624.759 -1.58538 3.85903 0
M  V30 6636 H 623.389 -1.72778 2.72667 0
M  V30 6637 H 622.441 0.452353 3.77701 0
M  V30 6638 H 623.753 0.374731 4.9739 0
M  V30 6639 H 622.907 -1.83809 5.78186 0
M  V30 6640 H 621.646 -1.83975 4.51669 0
M  V30 6641 H 620.651 0.24841 5.49239 0
M  V30 6642 H 621.876 0.232188 6.78703 0
M  V30 6643 H 619.822 -1.94991 6.2635 0
M  V30 6644 H 619.739 -0.760779 7.52162 0
M  V30 6645 H 621.007 -1.94967 7.54724 0
M  V30 6646 N 625.236 -1.5273 0.388769 0
M  V30 6647 C 626.183 -2.26437 -0.446639 0
M  V30 6648 C 627.153 -1.28025 -1.05824 0
M  V30 6649 O 628.338 -1.56852 -1.08637 0
M  V30 6650 C 625.478 -3.07407 -1.56828 0
M  V30 6651 C 624.591 -4.20747 -0.979589 0
M  V30 6652 C 623.726 -4.89113 -2.07224 0
M  V30 6653 C 622.765 -5.94447 -1.45942 0
M  V30 6654 N 621.902 -6.56411 -2.49135 0
M  V30 6655 H 626.742 -2.97404 0.18837 0
M  V30 6656 H 624.279 -1.46727 0.104725 0
M  V30 6657 H 626.237 -3.52642 -2.22934 0
M  V30 6658 H 624.867 -2.3865 -2.17361 0
M  V30 6659 H 623.919 -3.7983 -0.208151 0
M  V30 6660 H 625.231 -4.9637 -0.491747 0
M  V30 6661 H 624.385 -5.3765 -2.81101 0
M  V30 6662 H 623.124 -4.13013 -2.59368 0
M  V30 6663 H 622.129 -5.4525 -0.705894 0
M  V30 6664 H 623.354 -6.7248 -0.945932 0
M  V30 6665 H 621.3 -5.83152 -3.00449 0
M  V30 6666 H 621.217 -7.27645 -2.05105 0
M  V30 6667 H 622.485 -7.09592 -3.22644 0
M  V30 6668 N 626.714 -0.118576 -1.57153 0
M  V30 6669 C 627.962 0.538461 -1.94795 0
M  V30 6670 C 628.283 1.67243 -1.00274 0
M  V30 6671 O 627.553 1.95811 -0.0589692 0
M  V30 6672 H 626.133 0.201904 -0.719197 0
M  V30 6673 H 628.795 -0.187418 -1.93997 0
M  V30 6674 H 627.891 0.933315 -2.97818 0
M  V30 6675 N 628.193 1.56834 0.155195 0
M  V30 6676 C 629.47 1.73799 0.897395 0
M  V30 6677 C 629.85 0.684379 1.99698 0
M  V30 6678 O 629.198 -0.298111 2.26547 0
M  V30 6679 C 629.408 3.17572 1.44737 0
M  V30 6680 C 630.756 3.79014 1.91399 0
M  V30 6681 O 631.78 3.20951 1.54496 0
M  V30 6682 O 630.639 4.80998 2.59429 0
M  V30 6683 H 627.733 0.710329 0.423511 0
M  V30 6684 H 630.279 1.69107 0.141761 0
M  V30 6685 H 629.051 3.85749 0.656741 0
M  V30 6686 H 628.674 3.26657 2.26674 0
M  V30 6687 N 629.671 -0.424282 1.51781 0
M  V30 6688 C 630.92 -1.16961 1.64326 0
M  V30 6689 C 631.233 -1.92035 0.371749 0
M  V30 6690 O 632.439 -2.68873 0.37676 0
M  V30 6691 C 630.895 -2.12782 2.90262 0
M  V30 6692 C 630.503 -1.43295 4.24465 0
M  V30 6693 C 632.247 -2.87667 3.12166 0
M  V30 6694 C 630.154 -2.37676 5.41538 0
M  V30 6695 H 629.084 -0.440293 0.612093 0
M  V30 6696 H 631.735 -0.435431 1.78259 0
M  V30 6697 H 630.117 -2.8969 2.69992 0
M  V30 6698 H 631.291 -0.718564 4.55163 0
M  V30 6699 H 629.606 -0.805118 4.08542 0
M  V30 6700 H 632.203 -3.58395 3.96808 0
M  V30 6701 H 632.546 -3.49758 2.25776 0
M  V30 6702 H 633.079 -2.17863 3.32837 0
M  V30 6703 H 629.818 -1.80255 6.30229 0
M  V30 6704 H 629.338 -3.07132 5.15199 0
M  V30 6705 H 631.017 -2.98529 5.74012 0
M  V30 6706 N 631.149 -1.42148 -0.680565 0
M  V30 6707 C 632.379 -1.45485 -1.46689 0
M  V30 6708 C 632.787 -0.0629451 -1.89095 0
M  V30 6709 O 632.13 0.931397 -1.58337 0
M  V30 6710 C 632.192 -2.31397 -2.75129 0
M  V30 6711 C 631.856 -3.79353 -2.54834 0
M  V30 6712 C 632.853 -4.71148 -2.19808 0
M  V30 6713 C 630.538 -4.23557 -2.70008 0
M  V30 6714 C 632.532 -6.05139 -2.00215 0
M  V30 6715 C 630.219 -5.57609 -2.50031 0
M  V30 6716 C 631.217 -6.48216 -2.15187 0
M  V30 6717 O 630.905 -7.79792 -1.95397 0
M  V30 6718 H 630.637 -0.497139 -0.458071 0
M  V30 6719 H 633.191 -1.87252 -0.844139 0
M  V30 6720 H 631.421 -1.84468 -3.39865 0
M  V30 6721 H 633.11 -2.26257 -3.36991 0
M  V30 6722 H 633.876 -4.38282 -2.07686 0
M  V30 6723 H 629.755 -3.53327 -2.96109 0
M  V30 6724 H 633.299 -6.75823 -1.72941 0
M  V30 6725 H 629.196 -5.9005 -2.61748 0
M  V30 6726 H 629.964 -7.91091 -2.10042 0
M  V30 6727 N 632.627 0.916307 -1.28225 0
M  V30 6728 C 633.575 2.03977 -1.11786 0
M  V30 6729 C 634.569 1.69358 -0.0378265 0
M  V30 6730 O 635.775 1.78925 -0.196405 0
M  V30 6731 H 632.15 0.66829 -0.344809 0
M  V30 6732 H 634.121 2.14985 -2.06939 0
M  V30 6733 C 632.87 3.38518 -0.7938 0
M  V30 6734 H 632.193 3.65649 -1.61682 0
M  V30 6735 H 633.633 4.17864 -0.718719 0
M  V30 6736 C 632.092 3.33134 0.502353 0
M  V30 6737 O 632.622 3.71281 1.53341 0
M  V30 6738 N 630.828 2.86229 0.502147 0
M  V30 6739 H 630.375 2.55382 -0.337338 0
M  V30 6740 H 630.333 2.83009 1.36942 0
M  V30 6741 N 634.105 1.10431 1.1244 0
M  V30 6742 C 635.015 0.765502 2.21759 0
M  V30 6743 C 636.031 -0.236966 1.72379 0
M  V30 6744 O 637.207 -0.0757329 2.01258 0
M  V30 6745 C 634.272 0.202316 3.46109 0
M  V30 6746 C 633.333 1.26205 4.1033 0
M  V30 6747 C 632.566 0.725648 5.28744 0
M  V30 6748 O 632.789 -0.447942 5.68638 0
M  V30 6749 O 631.723 1.48555 5.83279 0
M  V30 6750 H 635.549 1.67801 2.53133 0
M  V30 6751 H 633.134 0.879443 1.20773 0
M  V30 6752 H 635.016 -0.107918 4.21262 0
M  V30 6753 H 633.691 -0.683052 3.16411 0
M  V30 6754 H 632.598 1.62514 3.36957 0
M  V30 6755 H 633.931 2.12044 4.44183 0
M  V30 6756 N 635.583 -1.29855 0.893053 0
M  V30 6757 C 636.53 -2.27909 0.364161 0
M  V30 6758 C 637.5 -1.56726 -0.550093 0
M  V30 6759 O 638.685 -1.84747 -0.47677 0
M  V30 6760 C 635.825 -3.42678 -0.408178 0
M  V30 6761 C 634.938 -4.28659 0.536212 0
M  V30 6762 C 634.073 -5.30599 -0.252521 0
M  V30 6763 C 633.112 -6.08234 0.686822 0
M  V30 6764 N 632.249 -7.02068 -0.0670902 0
M  V30 6765 H 637.089 -2.72531 1.20544 0
M  V30 6766 H 634.626 -1.34047 0.605779 0
M  V30 6767 H 636.584 -4.07986 -0.871962 0
M  V30 6768 H 635.214 -2.99103 -1.21397 0
M  V30 6769 H 634.266 -3.63584 1.1185 0
M  V30 6770 H 635.578 -4.8274 1.25552 0
M  V30 6771 H 634.732 -6.01694 -0.777801 0
M  V30 6772 H 633.471 -4.77233 -1.005 0
M  V30 6773 H 632.476 -5.3601 1.22366 0
M  V30 6774 H 633.701 -6.63689 1.43852 0
M  V30 6775 H 631.647 -6.5108 -0.801955 0
M  V30 6776 H 631.564 -7.53675 0.59243 0
M  V30 6777 H 632.832 -7.77392 -0.572851 0
M  V30 6778 N 637.061 -0.65484 -1.43351 0
M  V30 6779 C 637.971 0.0363603 -2.34572 0
M  V30 6780 C 638.987 0.810432 -1.53974 0
M  V30 6781 O 640.163 0.757308 -1.86619 0
M  V30 6782 C 637.228 0.989733 -3.32273 0
M  V30 6783 C 636.289 0.212414 -4.28774 0
M  V30 6784 C 635.522 1.12038 -5.21808 0
M  V30 6785 O 635.745 2.35967 -5.19303 0
M  V30 6786 O 634.679 0.59191 -5.98982 0
M  V30 6787 H 638.505 -0.714527 -2.95175 0
M  V30 6788 H 636.09 -0.415029 -1.4352 0
M  V30 6789 H 637.972 1.53759 -3.92347 0
M  V30 6790 H 636.647 1.72082 -2.74171 0
M  V30 6791 H 635.554 -0.379062 -3.72175 0
M  V30 6792 H 636.887 -0.479138 -4.89862 0
M  V30 6793 N 638.539 1.52521 -0.396863 0
M  V30 6794 C 639.469 2.29582 0.425941 0
M  V30 6795 C 640.45 1.33281 1.05689 0
M  V30 6796 O 641.635 1.62181 1.06823 0
M  V30 6797 C 638.765 3.10821 1.54943 0
M  V30 6798 C 637.719 4.15069 1.04413 0
M  V30 6799 C 637.045 4.84578 2.26028 0
M  V30 6800 C 638.345 5.22191 0.106767 0
M  V30 6801 H 640.039 2.98612 -0.217045 0
M  V30 6802 H 637.585 1.43611 -0.105826 0
M  V30 6803 H 639.538 3.63492 2.13193 0
M  V30 6804 H 638.262 2.39538 2.22011 0
M  V30 6805 H 636.921 3.63389 0.484118 0
M  V30 6806 H 636.569 4.09835 2.91623 0
M  V30 6807 H 636.269 5.55043 1.92876 0
M  V30 6808 H 637.793 5.40056 2.84906 0
M  V30 6809 H 639.207 5.70176 0.597685 0
M  V30 6810 H 637.604 5.99947 -0.135352 0
M  V30 6811 H 638.674 4.77531 -0.842134 0
M  V30 6812 N 640.017 0.126909 1.57088 0
M  V30 6813 C 641.294 -0.573152 1.87014 0
M  V30 6814 C 641.674 -1.84297 1.02945 0
M  V30 6815 O 641.022 -2.28232 0.110573 0
M  V30 6816 C 641.232 -0.857984 3.38289 0
M  V30 6817 C 642.58 -1.20759 4.07066 0
M  V30 6818 O 643.604 -0.947992 3.43353 0
M  V30 6819 O 642.463 -1.69516 5.19545 0
M  V30 6820 H 639.557 -0.290082 0.774456 0
M  V30 6821 H 642.103 0.162008 1.68925 0
M  V30 6822 H 640.875 0.0415286 3.91278 0
M  V30 6823 H 640.498 -1.64803 3.61837 0
M  V30 6824 N 641.495 -1.56914 -0.146875 0
M  V30 6825 C 642.911 -1.51582 -0.499518 0
M  V30 6826 C 643.111 -0.83535 -1.83369 0
M  V30 6827 O 642.167 -0.405932 -2.49216 0
M  V30 6828 C 643.48 -2.96349 -0.509711 0
M  V30 6829 C 645.028 -3.07288 -0.595217 0
M  V30 6830 C 645.503 -4.53562 -0.636071 0
M  V30 6831 N 646.994 -4.57906 -0.69829 0
M  V30 6832 C 647.729 -5.68462 -0.750886 0
M  V30 6833 N 647.225 -6.88588 -0.76282 0
M  V30 6834 N 649.018 -5.56496 -0.791777 0
M  V30 6835 H 641.169 -1.99547 0.727656 0
M  V30 6836 H 643.432 -0.910113 0.265327 0
M  V30 6837 H 643.138 -3.4939 0.402409 0
M  V30 6838 H 643.012 -3.52307 -1.34758 0
M  V30 6839 H 645.399 -2.54266 -1.49776 0
M  V30 6840 H 645.48 -2.54373 0.2698 0
M  V30 6841 H 645.124 -5.07222 0.262313 0
M  V30 6842 H 645.054 -5.04259 -1.51758 0
M  V30 6843 H 647.545 -3.71429 -0.696362 0
M  V30 6844 H 647.858 -7.68598 -0.804804 0
M  V30 6845 H 646.203 -6.91148 -0.730694 0
M  V30 6846 H 649.394 -4.61562 -0.779624 0
M  V30 6847 H 649.567 -6.42671 -0.829301 0
M  V30 6848 N 642.974 0.416227 -1.52004 0
M  V30 6849 C 643.884 1.53147 -1.77717 0
M  V30 6850 C 644.9 1.609 -0.662368 0
M  V30 6851 O 646.076 1.77747 -0.946991 0
M  V30 6852 C 643.141 2.88948 -1.91598 0
M  V30 6853 C 642.202 2.9114 -3.15493 0
M  V30 6854 C 641.435 4.20464 -3.28703 0
M  V30 6855 O 641.658 5.13981 -2.47345 0
M  V30 6856 O 640.592 4.29368 -4.21813 0
M  V30 6857 H 644.418 1.34357 -2.72363 0
M  V30 6858 H 642.003 0.601373 -1.36762 0
M  V30 6859 H 643.885 3.69505 -2.02593 0
M  V30 6860 H 642.56 3.07821 -1.00141 0
M  V30 6861 H 641.467 2.09461 -3.09962 0
M  V30 6862 H 642.8 2.77216 -4.06709 0
M  V30 6863 N 644.452 1.42507 0.673017 0
M  V30 6864 C 645.698 1.43284 1.43519 0
M  V30 6865 C 646.031 0.049668 1.94136 0
M  V30 6866 O 645.306 -0.926369 1.71022 0
M  V30 6867 C 645.589 2.45874 2.63093 0
M  V30 6868 C 645.442 3.93388 2.18096 0
M  V30 6869 C 646.761 2.45431 3.6531 0
M  V30 6870 H 643.88 0.521752 0.520522 0
M  V30 6871 H 646.522 1.73932 0.764701 0
M  V30 6872 H 644.672 2.19869 3.20296 0
M  V30 6873 H 646.344 4.30379 1.66046 0
M  V30 6874 H 644.587 4.07169 1.49652 0
M  V30 6875 H 645.258 4.60752 3.03993 0
M  V30 6876 H 647.734 2.68561 3.17827 0
M  V30 6877 H 646.61 3.19189 4.46553 0
M  V30 6878 H 646.871 1.48092 4.16559 0
M  V30 6879 N 645.93 -0.909495 1.28709 0
M  V30 6880 C 647.16 -1.69027 1.188 0
M  V30 6881 C 647.568 -1.87469 -0.255329 0
M  V30 6882 O 646.911 -1.40458 -1.18394 0
M  V30 6883 C 646.973 -3.10064 1.81936 0
M  V30 6884 C 646.637 -3.14891 3.31199 0
M  V30 6885 C 647.634 -2.95768 4.27571 0
M  V30 6886 C 645.319 -3.37269 3.7223 0
M  V30 6887 C 647.313 -2.98942 5.6295 0
M  V30 6888 C 645 -3.40074 5.07733 0
M  V30 6889 C 645.998 -3.20932 6.02903 0
M  V30 6890 O 645.686 -3.23507 7.35934 0
M  V30 6891 H 645.418 -0.535014 0.413203 0
M  V30 6892 H 647.972 -1.14645 1.70428 0
M  V30 6893 H 646.202 -3.66005 1.24808 0
M  V30 6894 H 647.891 -3.70185 1.66486 0
M  V30 6895 H 648.657 -2.78302 3.97206 0
M  V30 6896 H 644.536 -3.51212 2.98615 0
M  V30 6897 H 648.08 -2.83919 6.37209 0
M  V30 6898 H 643.977 -3.5707 5.37747 0
M  V30 6899 H 644.745 -3.3984 7.44615 0
M  V30 6900 N 647.408 -1.11026 -1.11852 0
M  V30 6901 C 648.819 -0.873203 -1.65021 0
M  V30 6902 C 649.17 0.595364 -1.86949 0
M  V30 6903 O 648.295 1.45645 -1.60051 0
M  V30 6904 C 648.89 -1.57859 -2.99777 0
M  V30 6905 C 647.449 -1.38807 -3.49871 0
M  V30 6906 C 646.596 -1.62403 -2.24768 0
M  V30 6907 H 649.547 -1.26712 -0.955503 0
M  V30 6908 H 649.568 -1.02111 -3.66543 0
M  V30 6909 H 649.08 -2.6474 -2.83786 0
M  V30 6910 H 647.181 -0.341163 -3.71035 0
M  V30 6911 H 647.294 -2.13421 -4.28938 0
M  V30 6912 H 645.658 -1.04714 -2.32179 0
M  V30 6913 H 646.441 -2.70549 -2.11324 0
M  V30 6914 N 648.886 1.2938 -0.899927 0
M  V30 6915 C 650.132 1.96206 -0.536153 0
M  V30 6916 C 650.487 1.69647 0.90761 0
M  V30 6917 O 649.78 0.999089 1.63489 0
M  V30 6918 C 649.974 3.49114 -0.765113 0
M  V30 6919 C 649.803 3.90538 -2.22958 0
M  V30 6920 C 648.573 4.15395 -2.87706 0
M  V30 6921 C 650.771 4.0224 -3.20479 0
M  V30 6922 N 648.753 4.43389 -4.24593 0
M  V30 6923 C 650.124 4.34288 -4.42486 0
M  V30 6924 C 652.179 3.84716 -3.16066 0
M  V30 6925 C 650.882 4.50638 -5.6064 0
M  V30 6926 C 652.908 4.02276 -4.33507 0
M  V30 6927 C 652.27 4.34684 -5.54283 0
M  V30 6928 H 648.369 0.742364 -0.245804 0
M  V30 6929 H 650.953 1.56314 -1.16078 0
M  V30 6930 H 649.124 3.88028 -0.169861 0
M  V30 6931 H 650.856 4.03035 -0.366751 0
M  V30 6932 H 647.611 4.09164 -2.385 0
M  V30 6933 H 648.035 4.61494 -4.95331 0
M  V30 6934 H 652.677 3.58724 -2.23778 0
M  V30 6935 H 650.395 4.75467 -6.5342 0
M  V30 6936 H 653.981 3.90169 -4.31578 0
M  V30 6937 H 652.861 4.47988 -6.43643 0
M  V30 6938 N 650.364 0.662433 1.43002 0
M  V30 6939 C 651.594 0.187343 2.05749 0
M  V30 6940 C 652.002 -1.15582 1.49791 0
M  V30 6941 O 651.345 -1.72651 0.627487 0
M  V30 6942 C 651.407 0.0316493 3.59486 0
M  V30 6943 C 651.071 1.30156 4.38073 0
M  V30 6944 C 652.068 2.23234 4.69535 0
M  V30 6945 C 649.753 1.54572 4.77926 0
M  V30 6946 C 651.747 3.39012 5.39768 0
M  V30 6947 C 649.434 2.70641 5.47902 0
M  V30 6948 C 650.432 3.62687 5.78746 0
M  V30 6949 O 650.12 4.76728 6.47291 0
M  V30 6950 H 649.852 0.0915214 0.669776 0
M  V30 6951 H 652.406 0.905982 1.8434 0
M  V30 6952 H 650.636 -0.742451 3.79506 0
M  V30 6953 H 652.325 -0.401977 4.03905 0
M  V30 6954 H 653.091 2.05616 4.39257 0
M  V30 6955 H 648.97 0.83804 4.53319 0
M  V30 6956 H 652.514 4.10877 5.63761 0
M  V30 6957 H 648.411 2.88189 5.77596 0
M  V30 6958 H 649.179 4.76113 6.65777 0
M  V30 6959 N 651.842 -1.52309 0.404946 0
M  V30 6960 C 652.79 -2.28452 -0.437321 0
M  V30 6961 C 653.784 -1.32975 -1.04948 0
M  V30 6962 O 654.99 -1.50451 -0.988159 0
M  V30 6963 H 651.365 -0.734824 -0.159805 0
M  V30 6964 H 653.336 -2.97542 0.22615 0
M  V30 6965 C 652.085 -3.11536 -1.54404 0
M  V30 6966 H 651.408 -3.84871 -1.08233 0
M  V30 6967 H 652.848 -3.67926 -2.10729 0
M  V30 6968 C 651.307 -2.24833 -2.50902 0
M  V30 6969 O 651.837 -1.88574 -3.54687 0
M  V30 6970 N 650.043 -1.88685 -2.21012 0
M  V30 6971 H 649.59 -2.18371 -1.36646 0
M  V30 6972 H 649.548 -1.30966 -2.85824 0
M  V30 6973 N 653.32 -0.135238 -1.57019 0
M  V30 6974 C 654.25 0.805235 -2.19176 0
M  V30 6975 C 655.231 1.2656 -1.13651 0
M  V30 6976 O 656.416 1.32528 -1.4195 0
M  V30 6977 C 653.546 2.04914 -2.80406 0
M  V30 6978 C 652.5 1.72598 -3.91655 0
M  V30 6979 C 651.826 3.04154 -4.39766 0
M  V30 6980 C 653.126 0.981709 -5.12991 0
M  V30 6981 H 654.82 0.287232 -2.98019 0
M  V30 6982 H 652.366 0.136714 -1.4335 0
M  V30 6983 H 654.319 2.71178 -3.22553 0
M  V30 6984 H 653.043 2.59067 -1.98877 0
M  V30 6985 H 651.702 1.08717 -3.50109 0
M  V30 6986 H 651.35 3.56274 -3.55075 0
M  V30 6987 H 651.05 2.83299 -5.14796 0
M  V30 6988 H 652.574 3.71509 -4.84576 0
M  V30 6989 H 653.988 1.5462 -5.52056 0
M  V30 6990 H 652.385 0.873533 -5.93708 0
M  V30 6991 H 653.455 -0.0286887 -4.84892 0
M  V30 6992 N 654.798 1.5699 0.138552 0
M  V30 6993 C 656.026 1.87976 0.864437 0
M  V30 6994 C 656.441 0.724372 1.74351 0
M  V30 6995 O 655.798 -0.305575 1.79924 0
M  V30 6996 C 655.849 3.18276 1.71414 0
M  V30 6997 O 655.57 4.29365 0.870487 0
M  V30 6998 C 657.071 3.62834 2.54688 0
M  V30 6999 H 654.291 0.622878 0.249528 0
M  V30 7000 H 656.835 2.04094 0.128805 0
M  V30 7001 H 654.99 3.03886 2.40274 0
M  V30 7002 H 655.404 5.03924 1.45466 0
M  V30 7003 H 656.878 4.5682 3.0987 0
M  V30 7004 H 657.355 2.88533 3.31127 0
M  V30 7005 H 657.961 3.79946 1.91105 0
M  V30 7006 N 656.276 -0.40816 1.52223 0
M  V30 7007 C 657.522 -1.15673 1.66576 0
M  V30 7008 C 657.855 -1.90141 0.394996 0
M  V30 7009 O 657.13 -1.84798 -0.606613 0
M  V30 7010 C 657.413 -2.15042 2.88841 0
M  V30 7011 C 657.266 -1.44465 4.25969 0
M  V30 7012 C 658.585 -3.15699 3.0663 0
M  V30 7013 H 655.704 -0.41916 0.606196 0
M  V30 7014 H 658.346 -0.442348 1.84779 0
M  V30 7015 H 656.496 -2.75964 2.73452 0
M  V30 7016 H 658.168 -0.866544 4.53088 0
M  V30 7017 H 656.411 -0.746612 4.27327 0
M  V30 7018 H 657.082 -2.16976 5.07568 0
M  V30 7019 H 659.558 -2.64854 3.20923 0
M  V30 7020 H 658.434 -3.82491 3.9369 0
M  V30 7021 H 658.695 -3.83481 2.19987 0
M  V30 7022 N 657.755 -1.42862 -0.66545 0
M  V30 7023 C 658.665 -1.49491 -1.80803 0
M  V30 7024 C 659.681 -0.382914 -1.69734 0
M  V30 7025 O 660.857 -0.635223 -1.9112 0
M  V30 7026 C 657.922 -1.40383 -3.17007 0
M  V30 7027 C 656.983 -2.62152 -3.39963 0
M  V30 7028 C 656.216 -2.53469 -4.69669 0
M  V30 7029 O 656.439 -1.57568 -5.48205 0
M  V30 7030 O 655.373 -3.43763 -4.94075 0
M  V30 7031 H 659.199 -2.45949 -1.78165 0
M  V30 7032 H 656.784 -1.24728 -0.822387 0
M  V30 7033 H 658.666 -1.377 -3.98267 0
M  V30 7034 H 657.341 -0.470546 -3.20262 0
M  V30 7035 H 656.248 -2.70409 -2.58515 0
M  V30 7036 H 657.581 -3.54411 -3.41546 0
M  V30 7037 N 659.233 0.902656 -1.29189 0
M  V30 7038 C 660.196 1.98797 -1.14071 0
M  V30 7039 C 661.196 1.60615 -0.0770549 0
M  V30 7040 O 662.386 1.71165 -0.323753 0
M  V30 7041 C 659.518 3.32688 -0.743739 0
M  V30 7042 H 660.711 2.13637 -2.10473 0
M  V30 7043 H 658.264 1.08678 -1.12334 0
M  V30 7044 H 658.999 3.23549 0.220554 0
M  V30 7045 H 658.784 3.61765 -1.51223 0
M  V30 7046 H 660.274 4.12337 -0.660935 0
M  V30 7047 N 660.711 1.11618 1.11262 0
M  V30 7048 C 661.658 0.7762 2.17356 0
M  V30 7049 C 662.628 -0.253152 1.6416 0
M  V30 7050 O 663.813 -0.129655 1.90359 0
M  V30 7051 C 660.953 0.227581 3.44349 0
M  V30 7052 C 660.066 1.31372 4.1154 0
M  V30 7053 C 659.201 0.72544 5.26223 0
M  V30 7054 C 658.24 1.7913 5.85302 0
M  V30 7055 N 657.377 1.22237 6.91377 0
M  V30 7056 H 662.217 1.68508 2.45783 0
M  V30 7057 H 659.754 0.841475 1.20655 0
M  V30 7058 H 661.712 -0.108483 4.17059 0
M  V30 7059 H 660.342 -0.644486 3.16301 0
M  V30 7060 H 659.394 1.7667 3.36885 0
M  V30 7061 H 660.706 2.12005 4.51504 0
M  V30 7062 H 659.86 0.339541 6.05749 0
M  V30 7063 H 658.599 -0.112188 4.87571 0
M  V30 7064 H 657.604 2.18648 5.04453 0
M  V30 7065 H 658.829 2.63199 6.26022 0
M  V30 7066 H 656.775 0.406423 6.5474 0
M  V30 7067 H 656.692 1.9654 7.30006 0
M  V30 7068 H 657.96 0.863426 7.74703 0
M  V30 7069 N 662.189 -1.289 0.906776 0
M  V30 7070 C 663.099 -2.31256 0.394707 0
M  V30 7071 C 664.115 -1.66231 -0.514121 0
M  V30 7072 O 665.291 -1.97347 -0.401994 0
M  V30 7073 C 662.356 -3.44792 -0.363191 0
M  V30 7074 C 661.417 -4.25391 0.578012 0
M  V30 7075 C 660.65 -5.33506 -0.143811 0
M  V30 7076 O 660.873 -5.53786 -1.36665 0
M  V30 7077 O 659.807 -5.99673 0.5173 0
M  V30 7078 H 663.633 -2.77051 1.24405 0
M  V30 7079 H 661.218 -1.33466 0.671346 0
M  V30 7080 H 663.1 -4.139 -0.791503 0
M  V30 7081 H 661.775 -3.01093 -1.18848 0
M  V30 7082 H 660.682 -3.58899 1.05558 0
M  V30 7083 H 662.015 -4.72752 1.36992 0
M  V30 7084 N 663.667 -0.670007 -1.42649 0
M  V30 7085 C 664.597 -0.00258501 -2.335 0
M  V30 7086 C 665.578 0.794364 -1.50412 0
M  V30 7087 O 666.763 0.75248 -1.79029 0
M  V30 7088 C 663.893 0.952748 -3.33976 0
M  V30 7089 C 662.847 0.264733 -4.2718 0
M  V30 7090 C 662.173 1.33267 -5.17826 0
M  V30 7091 C 663.473 -0.853289 -5.15283 0
M  V30 7092 H 665.167 -0.761326 -2.89559 0
M  V30 7093 H 662.713 -0.367561 -1.3923 0
M  V30 7094 H 664.666 1.4287 -3.96442 0
M  V30 7095 H 663.39 1.74285 -2.7621 0
M  V30 7096 H 662.049 -0.190938 -3.66102 0
M  V30 7097 H 661.697 2.11464 -4.5639 0
M  V30 7098 H 661.397 0.877476 -5.81011 0
M  V30 7099 H 662.921 1.80965 -5.83167 0
M  V30 7100 H 664.335 -0.458763 -5.71462 0
M  V30 7101 H 662.732 -1.23398 -5.87276 0
M  V30 7102 H 663.802 -1.70412 -4.53969 0
M  V30 7103 N 665.145 1.52092 -0.413018 0
M  V30 7104 C 666.422 1.94356 0.22024 0
M  V30 7105 C 666.802 1.35017 1.62277 0
M  V30 7106 O 666.15 0.527511 2.22328 0
M  V30 7107 C 666.36 3.48289 0.222638 0
M  V30 7108 C 667.708 4.22313 0.440098 0
M  V30 7109 O 668.732 3.54919 0.301826 0
M  V30 7110 O 667.591 5.41829 0.712984 0
M  V30 7111 H 664.685 0.814536 0.14304 0
M  V30 7112 H 667.231 1.63083 -0.469242 0
M  V30 7113 H 666.003 3.83872 -0.758836 0
M  V30 7114 H 665.626 3.85934 0.956057 0
M  V30 7115 N 666.623 0.143563 1.56945 0
M  V30 7116 C 667.848 -0.518701 2.00809 0
M  V30 7117 C 668.273 -1.5785 1.02298 0
M  V30 7118 O 667.631 -1.813 -0.0017839 0
M  V30 7119 C 667.679 -1.09929 3.43436 0
M  V30 7120 O 666.783 -2.21425 3.47915 0
M  V30 7121 H 666.124 -0.127215 0.6517 0
M  V30 7122 H 668.654 0.239283 2.03196 0
M  V30 7123 H 668.664 -1.4288 3.82164 0
M  V30 7124 H 667.339 -0.323162 4.14643 0
M  V30 7125 H 665.916 -1.89728 3.21026 0
M  V30 7126 N 668.101 -1.57061 -0.130224 0
M  V30 7127 C 669.329 -1.88432 -0.854456 0
M  V30 7128 C 669.744 -0.733608 -1.73964 0
M  V30 7129 O 669.101 0.296029 -1.80083 0
M  V30 7130 C 669.152 -3.1918 -1.69724 0
M  V30 7131 O 668.873 -4.2982 -0.847705 0
M  V30 7132 C 670.374 -3.6418 -2.5276 0
M  V30 7133 H 667.594 -0.624193 -0.246221 0
M  V30 7134 H 670.138 -2.04159 -0.11798 0
M  V30 7135 H 668.293 -3.05156 -2.3866 0
M  V30 7136 H 668.707 -5.04689 -1.42792 0
M  V30 7137 H 670.181 -4.58457 -3.07443 0
M  V30 7138 H 670.658 -2.90285 -3.29592 0
M  V30 7139 H 671.264 -3.80954 -1.89087 0
M  V30 7140 N 669.579 0.400081 -1.52437 0
M  V30 7141 C 670.827 1.14392 -1.6661 0
M  V30 7142 C 671.148 1.90792 -0.402927 0
M  V30 7143 O 670.418 1.87042 0.582425 0
M  V30 7144 H 668.998 0.425275 -0.614125 0
M  V30 7145 H 671.66 0.455076 -1.89513 0
M  V30 7146 H 670.756 1.85298 -2.51139 0
M  V30 7147 N 671.057 1.43213 0.657864 0
M  V30 7148 C 672.285 1.48015 1.44566 0
M  V30 7149 C 672.7 0.0965951 1.88553 0
M  V30 7150 O 672.057 -0.892221 1.59203 0
M  V30 7151 C 672.108 2.42199 2.68369 0
M  V30 7152 O 671.829 3.75173 2.26223 0
M  V30 7153 C 673.33 2.56195 3.61772 0
M  V30 7154 H 670.55 0.502861 0.444266 0
M  V30 7155 H 673.094 1.87907 0.806917 0
M  V30 7156 H 671.249 2.05514 3.28394 0
M  V30 7157 H 671.663 4.25776 3.06293 0
M  V30 7158 H 673.137 3.26182 4.4532 0
M  V30 7159 H 673.614 1.60534 4.0881 0
M  V30 7160 H 674.22 2.93671 3.07632 0
M  V30 7161 N 672.536 -0.895792 1.29666 0
M  V30 7162 C 673.947 -1.46195 1.1612 0
M  V30 7163 C 674.298 -1.94699 -0.242195 0
M  V30 7164 O 673.423 -1.8406 -1.13802 0
M  V30 7165 C 674.018 -2.65718 2.10189 0
M  V30 7166 C 672.577 -3.18458 2.00653 0
M  V30 7167 C 671.724 -1.91149 2.00891 0
M  V30 7168 H 674.675 -0.706756 1.42094 0
M  V30 7169 H 674.696 -3.4158 1.6764 0
M  V30 7170 H 674.208 -2.30386 3.12321 0
M  V30 7171 H 672.309 -3.58474 1.01623 0
M  V30 7172 H 672.422 -3.82491 2.88509 0
M  V30 7173 H 670.786 -2.09021 1.45542 0
M  V30 7174 H 671.569 -1.58089 3.04734 0
M  V30 7175 N 674.014 -1.12206 -1.10668 0
M  V30 7176 C 675.242 -0.898635 -1.86366 0
M  V30 7177 C 675.657 0.551991 -1.80551 0
M  V30 7178 O 675.014 1.38152 -1.19249 0
M  V30 7179 C 675.065 -1.36199 -3.34861 0
M  V30 7180 O 674.786 -2.75576 -3.40573 0
M  V30 7181 C 676.287 -1.17515 -4.2744 0
M  V30 7182 H 673.507 -0.321281 -0.589084 0
M  V30 7183 H 676.051 -1.49142 -1.39918 0
M  V30 7184 H 674.206 -0.81249 -3.78784 0
M  V30 7185 H 674.62 -2.95851 -4.33096 0
M  V30 7186 H 676.094 -1.54827 -5.29842 0
M  V30 7187 H 676.571 -0.115486 -4.39048 0
M  V30 7188 H 677.177 -1.71203 -3.89319 0
M  V30 7189 N 675.492 1.28418 -0.913599 0
M  V30 7190 C 676.74 1.94596 -0.545594 0
M  V30 7191 C 677.061 1.7227 0.913668 0
M  V30 7192 O 676.331 1.06233 1.64595 0
M  V30 7193 H 674.911 0.720065 -0.198783 0
M  V30 7194 H 677.573 1.56404 -1.16292 0
M  V30 7195 H 676.669 3.03202 -0.739911 0
M  V30 7196 N 676.97 0.677563 1.42291 0
M  V30 7197 C 677.917 0.000947061 2.308 0
M  V30 7198 C 678.887 -0.789889 1.46116 0
M  V30 7199 O 680.072 -0.761578 1.74942 0
M  V30 7200 C 677.212 -0.942387 3.31984 0
M  V30 7201 C 676.325 -0.14508 4.31756 0
M  V30 7202 C 675.46 -1.08442 5.20013 0
M  V30 7203 C 674.499 -0.278958 6.11464 0
M  V30 7204 N 673.636 -1.17115 6.92263 0
M  V30 7205 H 678.476 0.761521 2.88106 0
M  V30 7206 H 676.013 0.38727 1.41911 0
M  V30 7207 H 677.971 -1.50317 3.89179 0
M  V30 7208 H 676.601 -1.66956 2.76271 0
M  V30 7209 H 675.653 0.532368 3.76656 0
M  V30 7210 H 676.965 0.48015 4.96484 0
M  V30 7211 H 676.119 -1.71504 5.81955 0
M  V30 7212 H 674.858 -1.74353 4.55469 0
M  V30 7213 H 673.863 0.364856 5.48588 0
M  V30 7214 H 675.088 0.376099 6.78058 0
M  V30 7215 H 673.034 -1.81661 6.30345 0
M  V30 7216 H 672.951 -0.601063 7.53607 0
M  V30 7217 H 674.219 -1.78915 7.58689 0
M  V30 7218 N 678.448 -1.51871 0.421078 0
M  V30 7219 C 679.358 -2.31077 -0.405069 0
M  V30 7220 C 680.374 -1.39301 -1.04265 0
M  V30 7221 O 681.55 -1.72376 -1.04157 0
M  V30 7222 C 678.615 -3.12556 -1.50032 0
M  V30 7223 C 677.676 -4.20088 -0.884559 0
M  V30 7224 C 676.909 -4.97673 -1.92762 0
M  V30 7225 O 677.132 -4.75696 -3.14753 0
M  V30 7226 O 676.066 -5.82203 -1.52719 0
M  V30 7227 H 679.892 -3.02742 0.241086 0
M  V30 7228 H 677.477 -1.48263 0.183991 0
M  V30 7229 H 679.359 -3.6326 -2.13589 0
M  V30 7230 H 678.034 -2.43672 -2.13086 0
M  V30 7231 H 676.941 -3.73502 -0.211379 0
M  V30 7232 H 678.274 -4.91298 -0.297763 0
M  V30 7233 N 679.926 -0.151884 -1.56866 0
M  V30 7234 C 681.151 0.508044 -2.01081 0
M  V30 7235 C 681.576 1.57306 -1.03134 0
M  V30 7236 O 680.934 1.81298 -0.0078309 0
M  V30 7237 C 680.982 1.08106 -3.44014 0
M  V30 7238 O 680.086 2.19577 -3.49084 0
M  V30 7239 H 679.427 0.123757 -0.652365 0
M  V30 7240 H 681.957 -0.250055 -2.03066 0
M  V30 7241 H 681.967 1.40851 -3.82916 0
M  V30 7242 H 680.642 0.301168 -4.14808 0
M  V30 7243 H 679.219 1.88023 -3.22027 0
M  V30 7244 N 681.404 1.57128 0.121893 0
M  V30 7245 C 682.653 1.83888 0.828748 0
M  V30 7246 C 682.966 0.737087 1.81181 0
M  V30 7247 O 684.172 0.891007 2.56463 0
M  V30 7248 C 682.628 3.26014 1.52455 0
M  V30 7249 C 682.236 4.44195 0.58263 0
M  V30 7250 C 683.98 3.62025 2.21671 0
M  V30 7251 C 681.887 5.77349 1.28149 0
M  V30 7252 H 680.817 0.685856 0.313238 0
M  V30 7253 H 683.468 1.83319 0.0814851 0
M  V30 7254 H 681.85 3.21044 2.31834 0
M  V30 7255 H 683.024 4.60457 -0.177729 0
M  V30 7256 H 681.339 4.164 -0.00241228 0
M  V30 7257 H 683.936 4.58776 2.74643 0
M  V30 7258 H 684.279 2.89315 2.99337 0
M  V30 7259 H 684.812 3.68767 1.49184 0
M  V30 7260 H 681.551 6.53221 0.546189 0
M  V30 7261 H 681.071 5.64978 2.01394 0
M  V30 7262 H 682.75 6.21006 1.81549 0
M  V30 7263 N 682.882 -0.391992 1.52647 0
M  V30 7264 C 684.128 -1.139 1.67793 0
M  V30 7265 C 684.461 -1.89711 0.41514 0
M  V30 7266 O 683.736 -1.85431 -0.586979 0
M  V30 7267 C 684.019 -2.11966 2.91105 0
M  V30 7268 C 683.872 -1.39939 4.27478 0
M  V30 7269 C 685.191 -3.1243 3.09961 0
M  V30 7270 H 682.31 -0.412707 0.610608 0
M  V30 7271 H 684.952 -0.422725 1.85238 0
M  V30 7272 H 683.102 -2.73048 2.76364 0
M  V30 7273 H 684.774 -0.818439 4.53982 0
M  V30 7274 H 683.017 -0.701246 4.28095 0
M  V30 7275 H 683.688 -2.1158 5.09841 0
M  V30 7276 H 686.164 -2.61435 3.23714 0
M  V30 7277 H 685.04 -3.78294 3.97725 0
M  V30 7278 H 685.301 -3.81127 2.24042 0
M  V30 7279 N 684.36 -1.4356 -0.65026 0
M  V30 7280 C 685.292 -1.44918 -1.77571 0
M  V30 7281 C 686.305 -0.344925 -1.59104 0
M  V30 7282 O 687.494 -0.609537 -1.6777 0
M  V30 7283 C 684.594 -1.24914 -3.15039 0
M  V30 7284 C 683.767 -2.48232 -3.60138 0
M  V30 7285 C 682.826 -2.23409 -4.76419 0
M  V30 7286 O 681.852 -2.9678 -4.85706 0
M  V30 7287 N 683.054 -1.25259 -5.66825 0
M  V30 7288 H 685.819 -2.41935 -1.76883 0
M  V30 7289 H 683.38 -1.38754 -0.834202 0
M  V30 7290 H 685.372 -1.06185 -3.90521 0
M  V30 7291 H 683.942 -0.363319 -3.10481 0
M  V30 7292 H 683.162 -2.82366 -2.75069 0
M  V30 7293 H 684.45 -3.30296 -3.87017 0
M  V30 7294 H 683.848 -0.646246 -5.61997 0
M  V30 7295 H 682.405 -1.12513 -6.42016 0
M  V30 7296 N 685.838 0.888903 -1.30139 0
M  V30 7297 C 687.084 1.6428 -1.18912 0
M  V30 7298 C 687.417 1.92499 0.256477 0
M  V30 7299 O 686.692 1.54312 1.18397 0
M  V30 7300 C 686.975 2.9851 -2.01405 0
M  V30 7301 C 686.828 2.77288 -3.54163 0
M  V30 7302 C 688.147 3.99383 -1.84882 0
M  V30 7303 H 685.266 0.596148 -0.433333 0
M  V30 7304 H 687.908 1.0289 -1.5973 0
M  V30 7305 H 686.058 3.50907 -1.66722 0
M  V30 7306 H 687.73 2.31709 -3.98884 0
M  V30 7307 H 685.973 2.11867 -3.78543 0
M  V30 7308 H 686.644 3.72717 -4.07168 0
M  V30 7309 H 689.12 3.56132 -2.15196 0
M  V30 7310 H 687.996 4.91222 -2.44934 0
M  V30 7311 H 688.257 4.34674 -0.806902 0
M  V30 7312 N 687.317 1.12792 1.10072 0
M  V30 7313 C 688.267 0.768086 2.14673 0
M  V30 7314 C 689.251 -0.234716 1.59179 0
M  V30 7315 O 690.443 -0.039643 1.76956 0
M  V30 7316 C 687.572 0.228472 3.42539 0
M  V30 7317 C 686.658 1.25979 4.04957 0
M  V30 7318 N 687.049 2.4586 4.42025 0
M  V30 7319 C 685.347 1.10602 4.32069 0
M  V30 7320 C 686.048 3.11747 4.9111 0
M  V30 7321 N 685.024 2.39185 4.88151 0
M  V30 7322 H 688.826 1.68029 2.4113 0
M  V30 7323 H 686.34 1.00925 1.27232 0
M  V30 7324 H 688.337 -0.0475216 4.16873 0
M  V30 7325 H 686.997 -0.678136 3.1754 0
M  V30 7326 H 688.008 2.83215 4.33601 0
M  V30 7327 H 684.685 0.257021 4.16708 0
M  V30 7328 H 686.075 4.13862 5.29309 0
M  V30 7329 N 688.795 -1.27931 0.920396 0
M  V30 7330 C 690.044 -1.93975 0.552867 0
M  V30 7331 C 690.357 -1.73193 -0.909035 0
M  V30 7332 O 691.563 -2.33515 -1.38502 0
M  V30 7333 C 690.019 -3.47463 0.937947 0
M  V30 7334 C 689.627 -3.77013 2.42003 0
M  V30 7335 C 691.371 -4.19628 0.64132 0
M  V30 7336 C 689.278 -5.23841 2.74489 0
M  V30 7337 H 688.208 -0.726146 0.203046 0
M  V30 7338 H 690.859 -1.45339 1.12022 0
M  V30 7339 H 689.241 -3.94867 0.299317 0
M  V30 7340 H 690.415 -3.40393 3.10595 0
M  V30 7341 H 688.73 -3.18035 2.6878 0
M  V30 7342 H 691.327 -5.27729 0.860622 0
M  V30 7343 H 691.67 -4.14164 -0.421168 0
M  V30 7344 H 692.203 -3.78022 1.23872 0
M  V30 7345 H 688.942 -5.34388 3.79618 0
M  V30 7346 H 688.462 -5.61634 2.1054 0
M  V30 7347 H 690.141 -5.91647 2.61845 0
M  V30 7348 N 690.273 -0.685099 -1.4193 0
M  V30 7349 C 691.183 -0.013404 -2.34596 0
M  V30 7350 C 692.199 0.777589 -1.55658 0
M  V30 7351 O 693.375 0.717553 -1.88184 0
M  V30 7352 C 690.44 0.919031 -3.34297 0
M  V30 7353 C 689.501 0.121417 -4.29128 0
M  V30 7354 C 688.734 1.00944 -5.24067 0
M  V30 7355 O 688.957 2.24898 -5.24192 0
M  V30 7356 O 687.891 0.464724 -6.00103 0
M  V30 7357 H 691.717 -0.776978 -2.93593 0
M  V30 7358 H 689.302 -0.445379 -1.42607 0
M  V30 7359 H 691.184 1.45402 -3.9552 0
M  V30 7360 H 689.859 1.66228 -2.77759 0
M  V30 7361 H 688.766 -0.45792 -3.71287 0
M  V30 7362 H 690.099 -0.582937 -4.88736 0
M  V30 7363 N 691.751 1.51645 -0.429126 0
M  V30 7364 C 692.997 2.02314 0.140286 0
M  V30 7365 C 693.33 1.31314 1.43074 0
M  V30 7366 O 692.605 0.425531 1.89788 0
M  V30 7367 C 692.888 3.5822 0.36749 0
M  V30 7368 C 692.741 4.39846 -0.941039 0
M  V30 7369 C 694.06 4.25055 1.14089 0
M  V30 7370 H 691.179 0.735335 0.0495112 0
M  V30 7371 H 693.821 1.81358 -0.566514 0
M  V30 7372 H 691.971 3.76207 0.969556 0
M  V30 7373 H 693.643 4.33527 -1.57646 0
M  V30 7374 H 691.886 4.05259 -1.54751 0
M  V30 7375 H 692.557 5.47069 -0.73621 0
M  V30 7376 H 695.033 4.11288 0.630986 0
M  V30 7377 H 693.909 5.34038 1.26863 0
M  V30 7378 H 694.17 3.85358 2.16683 0
M  V30 7379 N 693.229 0.160201 1.56784 0
M  V30 7380 C 694.159 -0.770264 2.2043 0
M  V30 7381 C 695.14 -1.24736 1.15651 0
M  V30 7382 O 696.325 -1.30253 1.44041 0
M  V30 7383 C 693.455 -2.00427 2.83631 0
M  V30 7384 C 692.409 -1.66345 3.94352 0
M  V30 7385 C 691.735 -2.97119 4.4455 0
M  V30 7386 C 693.035 -0.899972 5.14488 0
M  V30 7387 H 694.729 -0.239783 2.98438 0
M  V30 7388 H 692.275 -0.113891 1.43549 0
M  V30 7389 H 694.228 -2.66012 3.26827 0
M  V30 7390 H 692.952 -2.5587 2.02973 0
M  V30 7391 H 691.611 -1.03133 3.51794 0
M  V30 7392 H 691.259 -3.5058 3.60698 0
M  V30 7393 H 690.959 -2.75073 5.19238 0
M  V30 7394 H 692.483 -3.63753 4.90425 0
M  V30 7395 H 693.897 -1.45818 5.54446 0
M  V30 7396 H 692.294 -0.778968 5.95023 0
M  V30 7397 H 693.364 0.105827 4.84785 0
M  V30 7398 N 694.707 -1.5719 -0.113559 0
M  V30 7399 C 695.984 -1.76117 -0.850999 0
M  V30 7400 C 696.364 -0.737085 -1.97814 0
M  V30 7401 O 695.712 0.237942 -2.27258 0
M  V30 7402 C 695.922 -3.21298 -1.36266 0
M  V30 7403 C 697.27 -3.83955 -1.81283 0
M  V30 7404 O 698.294 -3.24934 -1.45933 0
M  V30 7405 O 697.153 -4.87707 -2.46585 0
M  V30 7406 H 694.247 -0.721308 -0.404529 0
M  V30 7407 H 696.793 -1.69423 -0.0968756 0
M  V30 7408 H 695.565 -3.87355 -0.554235 0
M  V30 7409 H 695.188 -3.32552 -2.17933 0
M  V30 7410 N 696.185 0.383891 -1.52853 0
M  V30 7411 C 697.095 1.49343 -1.80925 0
M  V30 7412 C 698.111 1.59458 -0.696348 0
M  V30 7413 O 699.287 1.75698 -0.984481 0
M  V30 7414 C 696.352 2.84819 -1.97684 0
M  V30 7415 C 695.413 2.84382 -3.21598 0
M  V30 7416 C 694.646 4.13397 -3.37548 0
M  V30 7417 O 694.869 5.08619 -2.58192 0
M  V30 7418 O 693.803 4.20325 -4.30826 0
M  V30 7419 H 697.629 1.2855 -2.75152 0
M  V30 7420 H 695.214 0.572229 -1.38007 0
M  V30 7421 H 697.096 3.65125 -2.10385 0
M  V30 7422 H 695.771 3.05627 -1.06647 0
M  V30 7423 H 694.678 2.0284 -3.14336 0
M  V30 7424 H 696.011 2.68526 -4.12498 0
M  V30 7425 N 697.663 1.43903 0.642637 0
M  V30 7426 C 698.611 1.50164 1.77634 0
M  V30 7427 C 699.605 0.374294 1.65213 0
M  V30 7428 O 700.811 0.548748 1.71431 0
M  V30 7429 H 697.186 0.470974 0.586249 0
M  V30 7430 H 699.157 2.45603 1.69474 0
M  V30 7431 C 697.906 1.45196 3.15933 0
M  V30 7432 H 697.229 2.31253 3.26132 0
M  V30 7433 H 698.669 1.53638 3.95185 0
M  V30 7434 C 697.128 0.171043 3.36466 0
M  V30 7435 O 697.658 -0.763413 3.94379 0
M  V30 7436 N 695.864 0.077847 2.90496 0
M  V30 7437 H 695.411 0.8391 2.43551 0
M  V30 7438 H 695.369 -0.778473 3.0461 0
M  V30 7439 N 699.141 -0.881989 1.30609 0
M  V30 7440 C 700.418 -1.61563 1.10258 0
M  V30 7441 C 700.798 -2.08228 -0.347053 0
M  V30 7442 O 700.146 -1.85151 -1.33908 0
M  V30 7443 C 700.356 -2.78287 2.10612 0
M  V30 7444 C 701.704 -3.48545 2.4249 0
M  V30 7445 O 702.728 -2.88479 2.08945 0
M  V30 7446 O 701.587 -4.56873 2.99883 0
M  V30 7447 H 698.681 -0.710238 0.423663 0
M  V30 7448 H 701.227 -0.928503 1.42045 0
M  V30 7449 H 699.999 -2.41131 3.08174 0
M  V30 7450 H 699.622 -3.54695 1.79659 0
M  V30 7451 N 700.619 -1.13374 -1.09472 0
M  V30 7452 C 701.567 -0.806105 -2.18185 0
M  V30 7453 C 702.561 0.21136 -1.68076 0
M  V30 7454 O 703.767 0.0685558 -1.79869 0
M  V30 7455 H 700.142 -0.242901 -0.71169 0
M  V30 7456 H 702.113 -1.73115 -2.43051 0
M  V30 7457 C 700.862 -0.287928 -3.46506 0
M  V30 7458 H 700.185 -1.06217 -3.85432 0
M  V30 7459 H 701.625 -0.0971054 -4.23889 0
M  V30 7460 C 700.084 0.986256 -3.22141 0
M  V30 7461 O 700.614 2.06217 -3.44728 0
M  V30 7462 N 698.82 0.917153 -2.75747 0
M  V30 7463 H 698.367 0.0414609 -2.57567 0
M  V30 7464 H 698.325 1.77029 -2.59823 0
M  V30 7465 N 702.098 1.27442 -0.927168 0
M  V30 7466 C 703.061 2.2512 -0.430525 0
M  V30 7467 C 704.061 1.54357 0.450619 0
M  V30 7468 O 705.251 1.72371 0.251774 0
M  V30 7469 C 702.383 3.38763 0.381144 0
M  V30 7470 H 703.576 2.70569 -1.29354 0
M  V30 7471 H 701.129 1.39355 -0.707806 0
M  V30 7472 H 701.864 2.98695 1.263 0
M  V30 7473 H 701.649 3.91298 -0.250618 0
M  V30 7474 H 703.139 4.11364 0.719012 0
M  V30 7475 N 703.576 0.692616 1.41565 0
M  V30 7476 C 704.987 0.297478 1.84315 0
M  V30 7477 C 705.338 -1.16379 1.57957 0
M  V30 7478 O 704.463 -1.89303 1.0485 0
M  V30 7479 C 705.058 0.533136 3.34579 0
M  V30 7480 C 703.617 0.191944 3.7591 0
M  V30 7481 C 702.764 0.816873 2.64995 0
M  V30 7482 H 705.715 0.893488 1.31158 0
M  V30 7483 H 705.736 -0.209105 3.79925 0
M  V30 7484 H 705.248 1.59674 3.53731 0
M  V30 7485 H 703.349 -0.867512 3.6236 0
M  V30 7486 H 703.462 0.644902 4.7474 0
M  V30 7487 H 701.826 0.246715 2.53502 0
M  V30 7488 H 702.609 1.88429 2.86966 0
M  V30 7489 N 705.054 -1.51416 0.437162 0
M  V30 7490 C 705.964 -2.31493 -0.380537 0
M  V30 7491 C 706.98 -1.40399 -1.02782 0
M  V30 7492 O 708.156 -1.73471 -1.02323 0
M  V30 7493 C 705.221 -3.1413 -1.46709 0
M  V30 7494 C 704.282 -4.21003 -0.839953 0
M  V30 7495 C 703.515 -4.9969 -1.87473 0
M  V30 7496 O 703.738 -4.79008 -3.09689 0
M  V30 7497 O 702.672 -5.8379 -1.46536 0
M  V30 7498 H 706.498 -3.02469 0.273183 0
M  V30 7499 H 704.083 -1.48059 0.199706 0
M  V30 7500 H 705.965 -3.65505 -2.09724 0
M  V30 7501 H 704.64 -2.45919 -2.10489 0
M  V30 7502 H 703.547 -3.73706 -0.171752 0
M  V30 7503 H 704.88 -4.91587 -0.245638 0
M  V30 7504 N 706.532 -0.168513 -1.56696 0
M  V30 7505 C 707.779 0.477158 -1.96798 0
M  V30 7506 C 708.107 1.63442 -1.05437 0
M  V30 7507 O 707.362 1.95503 -0.0878903 0
M  V30 7508 C 707.661 1.00441 -3.42996 0
M  V30 7509 C 707.327 -0.0366556 -4.50885 0
M  V30 7510 C 705.989 -0.322785 -4.80116 0
M  V30 7511 C 708.341 -0.743447 -5.1587 0
M  V30 7512 C 705.669 -1.32114 -5.71632 0
M  V30 7513 C 708.021 -1.73077 -6.08463 0
M  V30 7514 C 706.685 -2.02437 -6.36062 0
M  V30 7515 H 705.955 0.174604 -0.720135 0
M  V30 7516 H 708.602 -0.259884 -1.89728 0
M  V30 7517 H 706.907 1.81922 -3.47004 0
M  V30 7518 H 708.604 1.51294 -3.71364 0
M  V30 7519 H 705.194 0.196532 -4.28149 0
M  V30 7520 H 709.378 -0.535602 -4.93401 0
M  V30 7521 H 704.634 -1.55482 -5.913 0
M  V30 7522 H 708.808 -2.28382 -6.57886 0
M  V30 7523 H 706.435 -2.79946 -7.06777 0
M  V30 7524 N 708.01 1.57248 0.105221 0
M  V30 7525 C 708.973 2.00388 1.11252 0
M  V30 7526 C 709.973 0.89594 1.33527 0
M  V30 7527 O 711.163 1.16166 1.29811 0
M  V30 7528 C 708.295 2.35589 2.46395 0
M  V30 7529 H 709.488 2.90591 0.741424 0
M  V30 7530 H 707.041 1.52332 0.349956 0
M  V30 7531 H 707.776 1.4831 2.884 0
M  V30 7532 H 707.561 3.16408 2.31578 0
M  V30 7533 H 709.051 2.69658 3.18864 0
M  V30 7534 N 709.488 -0.375779 1.53054 0
M  V30 7535 C 710.435 -1.45978 1.78771 0
M  V30 7536 C 711.405 -1.53625 0.631552 0
M  V30 7537 O 712.59 -1.69674 0.872667 0
M  V30 7538 C 709.73 -2.8305 1.97425 0
M  V30 7539 C 708.843 -2.84451 3.25134 0
M  V30 7540 C 707.978 -4.13034 3.34031 0
M  V30 7541 C 707.017 -4.08536 4.55812 0
M  V30 7542 N 706.154 -5.2875 4.61918 0
M  V30 7543 H 710.994 -1.23349 2.71273 0
M  V30 7544 H 708.531 -0.598147 1.3439 0
M  V30 7545 H 710.489 -3.62666 2.06225 0
M  V30 7546 H 709.119 -3.04101 1.0827 0
M  V30 7547 H 708.171 -1.97127 3.25338 0
M  V30 7548 H 709.483 -2.76998 4.14818 0
M  V30 7549 H 708.637 -5.0106 3.42087 0
M  V30 7550 H 707.376 -4.23226 2.42345 0
M  V30 7551 H 706.381 -3.18897 4.47867 0
M  V30 7552 H 707.606 -3.99955 5.48828 0
M  V30 7553 H 705.552 -5.39547 3.73129 0
M  V30 7554 H 705.469 -5.23426 5.45492 0
M  V30 7555 H 706.737 -6.18637 4.74245 0
M  V30 7556 N 710.966 -1.44241 -0.634997 0
M  V30 7557 C 712.377 -1.41622 -1.21655 0
M  V30 7558 C 712.728 -0.129584 -1.95772 0
M  V30 7559 O 711.853 0.770225 -2.02229 0
M  V30 7560 C 712.448 -2.56557 -2.21278 0
M  V30 7561 C 711.007 -2.57145 -2.7487 0
M  V30 7562 C 710.154 -2.33354 -1.49804 0
M  V30 7563 H 713.105 -1.52878 -0.425905 0
M  V30 7564 H 713.126 -2.29089 -3.03807 0
M  V30 7565 H 712.638 -3.50186 -1.67306 0
M  V30 7566 H 710.739 -1.67447 -3.32855 0
M  V30 7567 H 710.852 -3.55507 -3.21172 0
M  V30 7568 H 709.216 -1.82372 -1.77799 0
M  V30 7569 H 709.999 -3.29092 -0.977402 0
M  V30 7570 N 712.444 0.87505 -1.31075 0
M  V30 7571 C 713.674 1.65818 -1.2324 0
M  V30 7572 C 714.082 1.8808 0.205536 0
M  V30 7573 O 713.425 1.43548 1.14628 0
M  V30 7574 C 713.487 3.05131 -1.90093 0
M  V30 7575 C 713.151 3.05999 -3.39432 0
M  V30 7576 C 714.148 2.84328 -4.35263 0
M  V30 7577 C 711.833 3.27281 -3.81041 0
M  V30 7578 C 713.827 2.83912 -5.70678 0
M  V30 7579 C 711.514 3.26493 -5.16571 0
M  V30 7580 C 712.512 3.04834 -6.112 0
M  V30 7581 O 712.2 3.03882 -7.44252 0
M  V30 7582 H 711.932 0.52387 -0.427242 0
M  V30 7583 H 714.486 1.10086 -1.73408 0
M  V30 7584 H 712.716 3.62568 -1.34468 0
M  V30 7585 H 714.405 3.65641 -1.76242 0
M  V30 7586 H 715.171 2.67673 -4.04445 0
M  V30 7587 H 711.05 3.43171 -3.07822 0
M  V30 7588 H 714.594 2.66925 -6.44513 0
M  V30 7589 H 710.491 3.42687 -5.47025 0
M  V30 7590 H 711.259 3.19979 -7.53363 0
M  V30 7591 N 713.922 1.13953 1.08869 0
M  V30 7592 C 714.854 0.779906 2.15523 0
M  V30 7593 C 715.867 -0.20102 1.61554 0
M  V30 7594 O 717.056 0.0200049 1.78489 0
M  V30 7595 C 714.156 0.136226 3.38626 0
M  V30 7596 C 713.329 1.15069 4.21993 0
M  V30 7597 C 712.388 0.531645 5.23507 0
M  V30 7598 O 711.414 1.19327 5.56552 0
M  V30 7599 N 712.616 -0.693734 5.7634 0
M  V30 7600 H 715.381 1.69769 2.46979 0
M  V30 7601 H 712.942 1.03331 1.24637 0
M  V30 7602 H 714.934 -0.290295 4.03658 0
M  V30 7603 H 713.504 -0.684603 3.05011 0
M  V30 7604 H 712.724 1.75431 3.53012 0
M  V30 7605 H 714.012 1.83614 4.74514 0
M  V30 7606 H 713.41 -1.24994 5.51718 0
M  V30 7607 H 711.967 -1.06283 6.43076 0
M  V30 7608 N 715.4 -1.26948 0.933913 0
M  V30 7609 C 716.811 -1.76058 0.621324 0
M  V30 7610 C 717.162 -1.76175 -0.863522 0
M  V30 7611 O 716.287 -1.36921 -1.67576 0
M  V30 7612 C 716.882 -3.19713 1.12111 0
M  V30 7613 C 715.441 -3.66465 0.859074 0
M  V30 7614 C 714.588 -2.46186 1.27624 0
M  V30 7615 H 717.539 -1.13127 1.11301 0
M  V30 7616 H 717.56 -3.77566 0.471608 0
M  V30 7617 H 717.072 -3.19596 2.20182 0
M  V30 7618 H 715.173 -3.72021 -0.207566 0
M  V30 7619 H 715.286 -4.55636 1.48098 0
M  V30 7620 H 713.65 -2.45042 0.694727 0
M  V30 7621 H 714.433 -2.48774 2.36572 0
M  V30 7622 N 716.879 -0.700114 -1.41195 0
M  V30 7623 C 717.826 -0.0376652 -2.30769 0
M  V30 7624 C 718.796 0.766544 -1.47354 0
M  V30 7625 O 719.981 0.73365 -1.76131 0
M  V30 7626 C 717.121 0.889452 -3.33441 0
M  V30 7627 C 716.234 0.076373 -4.31932 0
M  V30 7628 C 715.369 1.00155 -5.21673 0
M  V30 7629 C 714.408 0.181644 -6.1183 0
M  V30 7630 N 713.545 1.06087 -6.94039 0
M  V30 7631 H 718.385 -0.80726 -2.86858 0
M  V30 7632 H 715.922 -0.409798 -1.41277 0
M  V30 7633 H 717.88 1.44107 -3.91522 0
M  V30 7634 H 716.51 1.6254 -2.78892 0
M  V30 7635 H 715.562 -0.592223 -3.75762 0
M  V30 7636 H 716.874 -0.559076 -4.95657 0
M  V30 7637 H 716.028 1.62223 -5.8461 0
M  V30 7638 H 714.767 1.67085 -4.58186 0
M  V30 7639 H 713.772 -0.452085 -5.47938 0
M  V30 7640 H 714.997 -0.483925 -6.77374 0
M  V30 7641 H 712.943 1.7161 -6.33156 0
M  V30 7642 H 712.86 0.481094 -7.54468 0
M  V30 7643 H 714.128 1.66822 -7.6144 0
M  V30 7644 N 718.357 1.51182 -0.445186 0
M  V30 7645 C 719.603 2.02452 0.11882 0
M  V30 7646 C 719.936 1.32824 1.41673 0
M  V30 7647 O 719.211 0.445637 1.89326 0
M  V30 7648 C 719.494 3.5859 0.329475 0
M  V30 7649 C 719.347 4.38823 -0.987638 0
M  V30 7650 C 720.666 4.26241 1.09575 0
M  V30 7651 H 717.785 0.735819 0.0417092 0
M  V30 7652 H 720.427 1.80747 -0.585718 0
M  V30 7653 H 718.577 3.77214 0.9296 0
M  V30 7654 H 720.249 4.3183 -1.62235 0
M  V30 7655 H 718.492 4.03594 -1.59041 0
M  V30 7656 H 719.163 5.46257 -0.794192 0
M  V30 7657 H 721.639 4.11934 0.587328 0
M  V30 7658 H 720.515 5.35354 1.21191 0
M  V30 7659 H 720.776 3.87635 2.12584 0
M  V30 7660 N 719.835 0.176821 1.56605 0
M  V30 7661 C 721.075 -0.469104 1.98944 0
M  V30 7662 C 721.439 -1.60048 1.06059 0
M  V30 7663 O 722.64 -2.30934 1.3756 0
M  V30 7664 C 720.911 -0.934571 3.44965 0
M  V30 7665 S 722.47 -1.58091 4.09332 0
M  V30 7666 H 719.288 -0.150695 0.694847 0
M  V30 7667 H 721.89 0.27558 1.93548 0
M  V30 7668 H 720.594 -0.100814 4.10276 0
M  V30 7669 H 720.125 -1.71316 3.54139 0
M  V30 7670 H 722.14 -2.86922 4.04834 0
M  V30 7671 N 721.313 -1.57302 -0.09688 0
M  V30 7672 C 722.223 -2.05258 -1.13606 0
M  V30 7673 C 723.239 -0.977137 -1.43972 0
M  V30 7674 O 724.415 -1.29018 -1.54649 0
M  V30 7675 C 721.48 -2.46593 -2.43706 0
M  V30 7676 C 720.541 -3.68322 -2.20538 0
M  V30 7677 C 719.774 -4.07676 -3.44435 0
M  V30 7678 O 719.997 -3.47141 -4.52603 0
M  V30 7679 O 718.931 -5.00641 -3.34129 0
M  V30 7680 H 722.757 -2.94069 -0.758752 0
M  V30 7681 H 720.342 -1.46164 -0.309263 0
M  V30 7682 H 722.224 -2.73814 -3.20318 0
M  V30 7683 H 720.899 -1.6092 -2.80867 0
M  V30 7684 H 719.806 -3.4622 -1.41713 0
M  V30 7685 H 721.139 -4.54769 -1.88271 0
M  V30 7686 N 722.791 0.367657 -1.53252 0
M  V30 7687 C 723.739 1.47061 -1.8021 0
M  V30 7688 C 724.733 1.55539 -0.671112 0
M  V30 7689 O 725.939 1.58451 -0.854014 0
M  V30 7690 H 722.314 0.489868 -0.570555 0
M  V30 7691 H 724.285 1.21527 -2.72532 0
M  V30 7692 C 723.034 2.83924 -2.00706 0
M  V30 7693 H 722.357 2.78158 -2.87172 0
M  V30 7694 H 723.797 3.60281 -2.23547 0
M  V30 7695 C 722.256 3.27613 -0.785568 0
M  V30 7696 O 722.786 4.01691 0.0267459 0
M  V30 7697 N 720.992 2.84134 -0.609597 0
M  V30 7698 H 720.539 2.24017 -1.27178 0
M  V30 7699 H 720.497 3.13723 0.206281 0
M  V30 7700 N 724.269 1.44576 0.627338 0
M  V30 7701 C 725.232 1.51372 1.72102 0
M  V30 7702 C 726.232 0.395329 1.55865 0
M  V30 7703 O 727.422 0.658094 1.61291 0
M  V30 7704 C 724.554 1.39129 3.11217 0
M  V30 7705 H 725.747 2.48798 1.6745 0
M  V30 7706 H 723.3 1.31724 0.841336 0
M  V30 7707 H 724.035 0.428114 3.21462 0
M  V30 7708 H 723.82 2.20229 3.24409 0
M  V30 7709 H 725.31 1.46874 3.90919 0
M  V30 7710 N 725.747 -0.868086 1.31537 0
M  V30 7711 C 726.993 -1.62367 1.2151 0
M  V30 7712 C 727.326 -1.92883 -0.225819 0
M  V30 7713 O 726.601 -1.56176 -1.15927 0
M  V30 7714 C 726.884 -2.95268 2.06129 0
M  V30 7715 C 726.737 -2.71619 3.58529 0
M  V30 7716 C 728.056 -3.96391 1.91212 0
M  V30 7717 H 725.175 -0.589178 0.442762 0
M  V30 7718 H 727.817 -1.00336 1.61347 0
M  V30 7719 H 725.967 -3.4821 1.72284 0
M  V30 7720 H 727.639 -2.25334 4.0252 0
M  V30 7721 H 725.882 -2.05817 3.81866 0
M  V30 7722 H 726.553 -3.66192 4.13047 0
M  V30 7723 H 729.029 -3.52663 2.20834 0
M  V30 7724 H 727.905 -4.87263 2.52718 0
M  V30 7725 H 728.166 -4.33335 0.875953 0
M  V30 7726 N 727.225 -1.14528 -1.08264 0
M  V30 7727 C 728.175 -0.802141 -2.13424 0
M  V30 7728 C 729.159 0.209362 -1.59532 0
M  V30 7729 O 730.351 0.0114859 -1.76996 0
M  V30 7730 C 727.48 -0.282938 -3.42132 0
M  V30 7731 C 726.566 -1.32405 -4.02902 0
M  V30 7732 N 726.957 -2.52861 -4.38058 0
M  V30 7733 C 725.255 -1.17462 -4.30254 0
M  V30 7734 C 725.956 -3.1952 -4.86088 0
M  V30 7735 N 724.932 -2.46921 -4.84284 0
M  V30 7736 H 728.734 -1.71843 -2.38426 0
M  V30 7737 H 726.248 -1.02936 -1.2561 0
M  V30 7738 H 728.245 -0.0188053 -4.16896 0
M  V30 7739 H 726.905 0.627533 -3.18578 0
M  V30 7740 H 727.916 -2.90078 -4.2904 0
M  V30 7741 H 724.593 -0.323283 -4.16246 0
M  V30 7742 H 725.983 -4.2223 -5.22658 0
M  V30 7743 N 728.703 1.26451 -0.940633 0
M  V30 7744 C 729.951 1.93395 -0.586748 0
M  V30 7745 C 730.272 1.7417 0.876921 0
M  V30 7746 O 729.542 1.097 1.62304 0
M  V30 7747 H 728.122 0.715687 -0.214012 0
M  V30 7748 H 730.784 1.53902 -1.19584 0
M  V30 7749 H 729.88 3.01565 -0.804059 0
M  V30 7750 N 730.181 0.707592 1.40822 0
M  V30 7751 C 731.113 0.0105968 2.29198 0
M  V30 7752 C 732.126 -0.732035 1.45414 0
M  V30 7753 O 733.315 -0.580741 1.68789 0
M  V30 7754 C 730.415 -1.00921 3.23525 0
M  V30 7755 C 729.588 -0.333747 4.36125 0
M  V30 7756 C 728.647 -1.25783 5.10945 0
M  V30 7757 O 727.673 -0.745646 5.64295 0
M  V30 7758 N 728.875 -2.58947 5.19545 0
M  V30 7759 H 731.64 0.76938 2.89656 0
M  V30 7760 H 729.201 0.554579 1.52105 0
M  V30 7761 H 731.193 -1.6294 3.70449 0
M  V30 7762 H 729.763 -1.66942 2.6429 0
M  V30 7763 H 728.983 0.466518 3.9143 0
M  V30 7764 H 730.271 0.135444 5.0862 0
M  V30 7765 H 729.669 -3.03065 4.7767 0
M  V30 7766 H 728.226 -3.16131 5.70004 0
M  V30 7767 N 731.66 -1.50943 0.453197 0
M  V30 7768 C 732.59 -2.31005 -0.34044 0
M  V30 7769 C 733.571 -1.37112 -1.00669 0
M  V30 7770 O 734.756 -1.66033 -1.0073 0
M  V30 7771 C 731.886 -3.16358 -1.433 0
M  V30 7772 C 730.84 -4.18658 -0.889363 0
M  V30 7773 C 730.166 -4.92633 -2.07887 0
M  V30 7774 C 731.466 -5.22227 0.0871142 0
M  V30 7775 H 733.16 -2.97601 0.327723 0
M  V30 7776 H 730.706 -1.43119 0.159054 0
M  V30 7777 H 732.659 -3.71155 -1.99555 0
M  V30 7778 H 731.383 -2.47613 -2.12968 0
M  V30 7779 H 730.042 -3.64936 -0.348915 0
M  V30 7780 H 729.69 -4.20376 -2.76211 0
M  V30 7781 H 729.39 -5.61819 -1.72143 0
M  V30 7782 H 730.914 -5.50258 -2.64666 0
M  V30 7783 H 732.328 -5.72001 -0.385656 0
M  V30 7784 H 730.725 -5.99032 0.357926 0
M  V30 7785 H 731.795 -4.74077 1.01879 0
M  V30 7786 N 733.138 -0.185124 -1.56509 0
M  V30 7787 C 734.384 0.456934 -1.97585 0
M  V30 7788 C 734.717 1.61957 -1.07161 0
M  V30 7789 O 733.992 1.9412 -0.121546 0
M  V30 7790 C 734.275 0.926666 -3.47973 0
M  V30 7791 C 734.128 -0.237097 -4.49175 0
M  V30 7792 C 735.447 1.79561 -4.01803 0
M  V30 7793 H 732.566 0.164619 -0.71838 0
M  V30 7794 H 735.208 -0.274039 -1.88013 0
M  V30 7795 H 733.358 1.54954 -3.56261 0
M  V30 7796 H 735.03 -0.87454 -4.52934 0
M  V30 7797 H 733.273 -0.890446 -4.24563 0
M  V30 7798 H 733.944 0.133924 -5.51838 0
M  V30 7799 H 736.42 1.27039 -3.96232 0
M  V30 7800 H 735.296 2.09327 -5.07418 0
M  V30 7801 H 735.557 2.74629 -3.46455 0
M  V30 7802 N 734.616 1.57351 0.0885366 0
M  V30 7803 C 735.546 2.05561 1.10757 0
M  V30 7804 C 736.527 0.945789 1.41382 0
M  V30 7805 O 737.712 1.21747 1.51299 0
M  V30 7806 C 734.842 2.48554 2.42566 0
M  V30 7807 C 733.796 3.63259 2.26334 0
M  V30 7808 C 733.122 3.9225 3.63378 0
M  V30 7809 C 734.422 4.93913 1.69844 0
M  V30 7810 H 736.116 2.90946 0.706468 0
M  V30 7811 H 733.662 1.39968 0.338385 0
M  V30 7812 H 735.615 2.8089 3.14132 0
M  V30 7813 H 734.339 1.60176 2.84625 0
M  V30 7814 H 732.998 3.31179 1.57213 0
M  V30 7815 H 732.646 3.0103 4.02976 0
M  V30 7816 H 732.346 4.69478 3.53362 0
M  V30 7817 H 733.87 4.27067 4.36401 0
M  V30 7818 H 735.284 5.24588 2.31258 0
M  V30 7819 H 733.681 5.75349 1.70569 0
M  V30 7820 H 734.751 4.80409 0.65843 0
M  V30 7821 N 736.094 -0.359525 1.53444 0
M  V30 7822 C 737.026 -1.46098 1.76602 0
M  V30 7823 C 738.039 -1.49395 0.646912 0
M  V30 7824 O 739.228 -1.52765 0.923307 0
M  V30 7825 C 736.328 -2.84836 1.83635 0
M  V30 7826 C 735.501 -3.05164 3.13358 0
M  V30 7827 C 734.56 -4.24051 3.11556 0
M  V30 7828 O 733.586 -4.18935 3.85334 0
M  V30 7829 N 734.788 -5.31775 2.328 0
M  V30 7830 H 737.553 -1.2661 2.71643 0
M  V30 7831 H 735.114 -0.549294 1.52297 0
M  V30 7832 H 737.106 -3.62516 1.799 0
M  V30 7833 H 735.676 -2.97542 0.958509 0
M  V30 7834 H 734.896 -2.15091 3.30348 0
M  V30 7835 H 736.184 -3.15619 3.99076 0
M  V30 7836 H 735.582 -5.38796 1.7238 0
M  V30 7837 H 734.139 -6.0801 2.34877 0
M  V30 7838 N 737.572 -1.44907 -0.619662 0
M  V30 7839 C 738.821 -1.47569 -1.37501 0
M  V30 7840 C 739.134 -0.116707 -1.95252 0
M  V30 7841 O 740.34 -0.020909 -2.71492 0
M  V30 7842 C 738.796 -2.59851 -2.49009 0
M  V30 7843 C 738.404 -4.02008 -1.97722 0
M  V30 7844 C 740.148 -2.71746 -3.2612 0
M  V30 7845 C 738.055 -5.05693 -3.0664 0
M  V30 7846 H 736.985 -0.549068 -0.51676 0
M  V30 7847 H 739.636 -1.71009 -0.665437 0
M  V30 7848 H 738.018 -2.29671 -3.22594 0
M  V30 7849 H 739.192 -4.41809 -1.30925 0
M  V30 7850 H 737.507 -3.94456 -1.33392 0
M  V30 7851 H 740.104 -3.46382 -4.07337 0
M  V30 7852 H 740.447 -1.77959 -3.76346 0
M  V30 7853 H 740.98 -3.01392 -2.5963 0
M  V30 7854 H 737.719 -6.01148 -2.61345 0
M  V30 7855 H 737.239 -4.70473 -3.72042 0
M  V30 7856 H 738.918 -5.29906 -3.71226 0
M  V30 7857 N 739.05 0.861098 -1.31996 0
M  V30 7858 C 740.275 1.65264 -1.2531 0
M  V30 7859 C 740.7 1.87265 0.177007 0
M  V30 7860 O 740.058 1.4208 1.12619 0
M  V30 7861 C 740.106 2.99284 -2.0115 0
M  V30 7862 O 739.21 3.89508 -1.3549 0
M  V30 7863 H 738.551 0.50409 -0.432192 0
M  V30 7864 H 741.081 1.07297 -1.74208 0
M  V30 7865 H 741.091 3.49154 -2.11081 0
M  V30 7866 H 739.766 2.82591 -3.05148 0
M  V30 7867 H 738.343 3.47966 -1.34066 0
M  V30 7868 N 740.528 1.15101 1.07655 0
M  V30 7869 C 741.491 0.847625 2.12951 0
M  V30 7870 C 742.491 -0.151227 1.60087 0
M  V30 7871 O 743.681 0.0780399 1.74025 0
M  V30 7872 C 740.813 0.265 3.39868 0
M  V30 7873 H 742.006 1.7809 2.41296 0
M  V30 7874 H 739.559 0.958072 1.23494 0
M  V30 7875 H 740.294 -0.676625 3.17163 0
M  V30 7876 H 740.079 0.984554 3.79538 0
M  V30 7877 H 741.569 0.0702121 4.17541 0
M  V30 7878 N 742.006 -1.2595 0.947325 0
M  V30 7879 C 743.255 -1.92759 0.593887 0
M  V30 7880 C 743.568 -1.75083 -0.872093 0
M  V30 7881 O 744.774 -2.36401 -1.33518 0
M  V30 7882 C 743.23 -3.45395 1.01144 0
M  V30 7883 C 742.838 -3.71795 2.49946 0
M  V30 7884 C 744.582 -4.18173 0.730185 0
M  V30 7885 C 742.489 -5.17901 2.85539 0
M  V30 7886 H 741.419 -0.721676 0.218403 0
M  V30 7887 H 744.07 -1.4293 1.15079 0
M  V30 7888 H 742.452 -3.94143 0.383007 0
M  V30 7889 H 743.626 -3.33728 3.17746 0
M  V30 7890 H 741.941 -3.12263 2.75465 0
M  V30 7891 H 744.538 -5.25784 0.972367 0
M  V30 7892 H 744.881 -4.14964 -0.333223 0
M  V30 7893 H 745.414 -3.75309 1.31862 0
M  V30 7894 H 742.153 -5.26216 3.90867 0
M  V30 7895 H 741.673 -5.57042 2.22406 0
M  V30 7896 H 743.352 -5.8596 2.74336 0
M  V30 7897 N 743.484 -0.715051 -1.40445 0
M  V30 7898 C 744.761 -0.181503 -1.94756 0
M  V30 7899 C 745.141 1.31268 -1.65324 0
M  V30 7900 O 744.489 2.0686 -0.970631 0
M  V30 7901 C 744.699 -0.493663 -3.45491 0
M  V30 7902 C 746.047 -0.432032 -4.22396 0
M  V30 7903 O 747.071 -0.429692 -3.53599 0
M  V30 7904 O 745.93 -0.409091 -5.44967 0
M  V30 7905 H 743.024 -0.0263989 -0.826579 0
M  V30 7906 H 745.57 -0.792546 -1.50056 0
M  V30 7907 H 744.342 -1.52713 -3.6027 0
M  V30 7908 H 743.965 0.14737 -3.97327 0
M  V30 7909 N 744.962 1.50701 -0.461195 0
M  V30 7910 C 745.909 2.2831 0.338094 0
M  V30 7911 C 746.879 1.32928 0.995957 0
M  V30 7912 O 748.064 1.61857 1.0103 0
M  V30 7913 C 745.204 3.14539 1.41983 0
M  V30 7914 C 744.317 4.24942 0.77773 0
M  V30 7915 C 743.452 4.98443 1.83652 0
M  V30 7916 C 742.491 6.00733 1.17413 0
M  V30 7917 N 741.628 6.6755 2.17533 0
M  V30 7918 H 746.468 2.96167 -0.330051 0
M  V30 7919 H 744.005 1.4606 -0.174611 0
M  V30 7920 H 745.963 3.62877 2.05855 0
M  V30 7921 H 744.593 2.48749 2.05727 0
M  V30 7922 H 743.645 3.80391 0.0266924 0
M  V30 7923 H 744.957 4.98151 0.254362 0
M  V30 7924 H 744.111 5.50449 2.55129 0
M  V30 7925 H 742.85 4.24917 2.39367 0
M  V30 7926 H 741.855 5.47997 0.444944 0
M  V30 7927 H 743.08 6.76227 0.624006 0
M  V30 7928 H 741.026 5.96823 2.72284 0
M  V30 7929 H 740.943 7.36603 1.70154 0
M  V30 7930 H 742.211 7.24178 2.88421 0
M  V30 7931 N 746.441 0.193421 1.56409 0
M  V30 7932 C 747.718 -0.493318 1.89277 0
M  V30 7933 C 748.098 -1.79765 1.10669 0
M  V30 7934 O 747.446 -2.27558 0.207274 0
M  V30 7935 C 747.656 -0.713732 3.41624 0
M  V30 7936 C 749.004 -1.03385 4.11821 0
M  V30 7937 O 750.028 -0.801511 3.47065 0
M  V30 7938 O 748.887 -1.47327 5.26267 0
M  V30 7939 H 745.981 -0.256973 0.786062 0
M  V30 7940 H 748.527 0.23351 1.68086 0
M  V30 7941 H 747.299 0.207446 3.9075 0
M  V30 7942 H 746.922 -1.49308 3.68501 0
M  V30 7943 N 747.919 -1.57396 -0.0801906 0
M  V30 7944 C 749.168 -1.8602 -0.779702 0
M  V30 7945 C 749.481 -0.784864 -1.79163 0
M  V30 7946 O 750.687 -0.958691 -2.54011 0
M  V30 7947 C 749.143 -3.29942 -1.43758 0
M  V30 7948 C 748.751 -4.45584 -0.464654 0
M  V30 7949 C 750.495 -3.67775 -2.11995 0
M  V30 7950 C 748.402 -5.80544 -1.12797 0
M  V30 7951 H 747.332 -0.69392 -0.294943 0
M  V30 7952 H 749.983 -1.83471 -0.0328527 0
M  V30 7953 H 748.365 -3.27078 -2.2324 0
M  V30 7954 H 749.539 -4.59824 0.299749 0
M  V30 7955 H 747.854 -4.16247 0.112813 0
M  V30 7956 H 750.451 -4.65896 -2.62383 0
M  V30 7957 H 750.794 -2.9715 -2.91561 0
M  V30 7958 H 751.327 -3.72593 -1.39354 0
M  V30 7959 H 748.066 -6.54439 -0.372807 0
M  V30 7960 H 747.586 -5.70119 -1.86344 0
M  V30 7961 H 749.265 -6.25602 -1.6502 0
M  V30 7962 N 749.397 0.351382 -1.53633 0
M  V30 7963 C 750.625 1.11275 -1.74429 0
M  V30 7964 C 751.04 1.82602 -0.479798 0
M  V30 7965 O 750.397 1.74074 0.548125 0
M  V30 7966 C 750.448 2.13223 -2.91921 0
M  V30 7967 O 750.169 1.44798 -4.13479 0
M  V30 7968 C 751.67 3.01797 -3.24706 0
M  V30 7969 H 748.89 0.332153 -0.583023 0
M  V30 7970 H 751.434 0.405974 -2.0043 0
M  V30 7971 H 749.589 2.79477 -2.68274 0
M  V30 7972 H 750.003 2.12839 -4.79374 0
M  V30 7973 H 751.477 3.69282 -4.10286 0
M  V30 7974 H 751.954 3.67387 -2.40673 0
M  V30 7975 H 752.56 2.41141 -3.5033 0
M  V30 7976 N 750.875 1.45233 0.611969 0
M  V30 7977 C 752.286 1.4354 1.19387 0
M  V30 7978 C 752.637 0.160713 1.95541 0
M  V30 7979 O 751.762 -0.737954 2.03429 0
M  V30 7980 C 752.357 2.60045 2.17169 0
M  V30 7981 C 750.916 2.61486 2.70744 0
M  V30 7982 C 750.063 2.35708 1.46072 0
M  V30 7983 H 753.014 1.53536 0.401529 0
M  V30 7984 H 753.035 2.33893 3.00124 0
M  V30 7985 H 752.547 3.52803 1.61714 0
M  V30 7986 H 750.648 1.72721 3.30149 0
M  V30 7987 H 750.761 3.60572 3.15476 0
M  V30 7988 H 749.125 1.85178 1.74875 0
M  V30 7989 H 749.908 3.30606 0.924922 0
M  V30 7990 N 752.353 -0.854086 1.3245 0
M  V30 7991 C 753.769 -1.14238 1.11453 0
M  V30 7992 C 753.969 -2.01228 -0.10461 0
M  V30 7993 O 753.025 -2.39845 -0.789339 0
M  V30 7994 C 754.338 -1.81916 2.39431 0
M  V30 7995 C 755.886 -1.94549 2.45193 0
M  V30 7996 C 756.361 -2.65642 3.73093 0
M  V30 7997 N 757.852 -2.73167 3.74078 0
M  V30 7998 C 758.587 -3.28828 4.69744 0
M  V30 7999 N 758.083 -3.85295 5.75778 0
M  V30 8000 N 759.876 -3.26936 4.57241 0
M  V30 8001 H 752.027 -0.274786 2.10615 0
M  V30 8002 H 754.29 -0.184375 0.929898 0
M  V30 8003 H 753.996 -1.25452 3.28565 0
M  V30 8004 H 753.87 -2.82068 2.50434 0
M  V30 8005 H 756.257 -2.50172 1.56518 0
M  V30 8006 H 756.338 -0.933914 2.38142 0
M  V30 8007 H 755.982 -2.10683 4.62142 0
M  V30 8008 H 755.912 -3.6724 3.77415 0
M  V30 8009 H 758.403 -2.33108 2.97438 0
M  V30 8010 H 758.716 -4.25925 6.44832 0
M  V30 8011 H 757.061 -3.83625 5.79531 0
M  V30 8012 H 760.252 -2.8207 3.7357 0
M  V30 8013 H 760.425 -3.70014 5.31971 0
M  V30 8014 N 753.831 -1.1567 -1.07043 0
M  V30 8015 C 754.779 -0.852204 -2.16426 0
M  V30 8016 C 755.773 0.175661 -1.68487 0
M  V30 8017 O 756.979 0.0303874 -1.79974 0
M  V30 8018 H 753.354 -0.257942 -0.706378 0
M  V30 8019 H 755.325 -1.78231 -2.39324 0
M  V30 8020 C 754.074 -0.361362 -3.45817 0
M  V30 8021 H 753.397 -1.14369 -3.83092 0
M  V30 8022 H 754.837 -0.186997 -4.23587 0
M  V30 8023 C 753.296 0.917703 -3.2416 0
M  V30 8024 O 753.826 1.98858 -3.49025 0
M  V30 8025 N 752.032 0.858456 -2.77631 0
M  V30 8026 H 751.579 -0.0131821 -2.57597 0
M  V30 8027 H 751.537 1.71478 -2.6352 0
M  V30 8028 N 755.309 1.25446 -0.953992 0
M  V30 8029 C 756.555 1.9343 -0.60933 0
M  V30 8030 C 756.888 1.74542 0.851388 0
M  V30 8031 O 756.163 1.09014 1.61078 0
M  V30 8032 C 756.446 3.46844 -0.968041 0
M  V30 8033 C 756.299 3.74961 -2.48444 0
M  V30 8034 C 757.618 4.37334 -0.492641 0
M  V30 8035 H 754.737 0.702502 -0.222844 0
M  V30 8036 H 757.379 1.48076 -1.19053 0
M  V30 8037 H 755.529 3.85604 -0.473465 0
M  V30 8038 H 757.201 3.45841 -3.05273 0
M  V30 8039 H 755.444 3.20589 -2.92241 0
M  V30 8040 H 756.115 4.82246 -2.68594 0
M  V30 8041 H 758.591 4.05873 -0.916878 0
M  V30 8042 H 757.467 5.43439 -0.772331 0
M  V30 8043 H 757.728 4.37908 0.607403 0
M  V30 8044 N 756.787 0.722489 1.40064 0
M  V30 8045 C 757.734 0.0743738 2.3068 0
M  V30 8046 C 758.704 -0.743004 1.48555 0
M  V30 8047 O 759.889 -0.705536 1.77276 0
M  V30 8048 C 757.029 -0.836292 3.34814 0
M  V30 8049 C 756.142 -0.00764663 4.31999 0
M  V30 8050 C 755.277 -0.918428 5.232 0
M  V30 8051 C 754.316 -0.0842838 6.12042 0
M  V30 8052 N 753.453 -0.950316 6.95639 0
M  V30 8053 H 758.293 0.852794 2.85537 0
M  V30 8054 H 755.83 0.432222 1.40607 0
M  V30 8055 H 757.788 -1.3786 3.93765 0
M  V30 8056 H 756.418 -1.58082 2.81443 0
M  V30 8057 H 755.47 0.651928 3.74772 0
M  V30 8058 H 756.782 0.63786 4.94705 0
M  V30 8059 H 755.936 -1.52902 5.87116 0
M  V30 8060 H 754.675 -1.59774 4.60786 0
M  V30 8061 H 753.68 0.5392 5.4715 0
M  V30 8062 H 754.905 0.591628 6.76518 0
M  V30 8063 H 752.851 -1.61515 6.35806 0
M  V30 8064 H 752.768 -0.361004 7.55138 0
M  V30 8065 H 754.036 -1.54687 7.63997 0
M  V30 8066 N 758.265 -1.50454 0.469181 0
M  V30 8067 C 759.512 -2.02315 -0.086469 0
M  V30 8068 C 759.84 -1.3513 -1.39893 0
M  V30 8069 O 759.095 -0.465341 -1.90087 0
M  V30 8070 C 759.394 -3.55963 -0.320207 0
M  V30 8071 C 759.06 -4.41615 0.910318 0
M  V30 8072 C 757.722 -4.64743 1.2477 0
M  V30 8073 C 760.074 -4.91661 1.72971 0
M  V30 8074 C 757.402 -5.35161 2.40457 0
M  V30 8075 C 759.754 -5.6335 2.87785 0
M  V30 8076 C 758.418 -5.84732 3.2194 0
M  V30 8077 H 757.688 -0.740324 -0.0316412 0
M  V30 8078 H 760.335 -1.81087 0.622872 0
M  V30 8079 H 758.64 -3.75695 -1.11177 0
M  V30 8080 H 760.337 -3.93653 -0.764071 0
M  V30 8081 H 756.927 -4.23833 0.637467 0
M  V30 8082 H 761.111 -4.73649 1.48224 0
M  V30 8083 H 756.367 -5.49924 2.67196 0
M  V30 8084 H 760.541 -6.0111 3.51624 0
M  V30 8085 H 758.168 -6.39074 4.1169 0
M  V30 8086 N 759.743 -0.201713 -1.56304 0
M  V30 8087 C 760.69 0.716499 -2.19397 0
M  V30 8088 C 761.66 1.20494 -1.14326 0
M  V30 8089 O 762.845 1.26763 -1.42604 0
M  V30 8090 C 759.985 1.92762 -2.86246 0
M  V30 8091 C 759.098 1.47993 -4.0586 0
M  V30 8092 C 758.233 2.64706 -4.60547 0
M  V30 8093 C 757.272 2.16576 -5.72504 0
M  V30 8094 N 756.409 3.26491 -6.21569 0
M  V30 8095 H 761.249 0.171724 -2.97505 0
M  V30 8096 H 758.786 0.073016 -1.46919 0
M  V30 8097 H 760.744 2.6384 -3.23178 0
M  V30 8098 H 759.374 2.44559 -2.10691 0
M  V30 8099 H 758.426 0.66477 -3.74546 0
M  V30 8100 H 759.738 1.08686 -4.86815 0
M  V30 8101 H 758.892 3.43898 -4.99819 0
M  V30 8102 H 757.631 3.0729 -3.78713 0
M  V30 8103 H 756.636 1.3584 -5.32755 0
M  V30 8104 H 757.861 1.75015 -6.56161 0
M  V30 8105 H 755.807 3.68594 -5.42655 0
M  V30 8106 H 755.724 2.91374 -6.97594 0
M  V30 8107 H 756.992 4.05877 -6.65495 0
M  V30 8108 N 761.222 1.57436 0.0718424 0
M  V30 8109 C 762.469 1.87248 0.771007 0
M  V30 8110 C 762.797 0.793441 1.7758 0
M  V30 8111 O 762.052 -0.210565 1.94564 0
M  V30 8112 C 762.351 3.23723 1.51455 0
M  V30 8113 C 762.017 4.46194 0.649736 0
M  V30 8114 C 760.679 4.79438 0.411409 0
M  V30 8115 C 763.031 5.21176 0.05004 0
M  V30 8116 C 760.359 5.85077 -0.436096 0
M  V30 8117 C 762.711 6.27712 -0.784919 0
M  V30 8118 C 761.375 6.59457 -1.03312 0
M  V30 8119 H 760.645 0.685188 0.282132 0
M  V30 8120 H 763.292 1.91474 0.0317896 0
M  V30 8121 H 761.597 3.15287 2.32597 0
M  V30 8122 H 763.294 3.44023 2.06031 0
M  V30 8123 H 759.884 4.20175 0.84562 0
M  V30 8124 H 764.068 4.95806 0.221282 0
M  V30 8125 H 759.324 6.08071 -0.637136 0
M  V30 8126 H 763.498 6.84974 -1.25635 0
M  V30 8127 H 761.125 7.4114 -1.6916 0
M  V30 8128 N 762.7 -0.34323 1.53817 0
M  V30 8129 C 763.949 -1.08086 1.70295 0
M  V30 8130 C 764.262 -1.89794 0.47302 0
M  V30 8131 O 765.468 -2.66498 0.518754 0
M  V30 8132 C 763.924 -1.97097 3.01133 0
M  V30 8133 C 763.532 -1.20594 4.31464 0
M  V30 8134 C 765.276 -2.70715 3.26976 0
M  V30 8135 C 763.183 -2.08636 5.53376 0
M  V30 8136 H 762.113 -0.407228 0.634572 0
M  V30 8137 H 764.764 -0.340328 1.80316 0
M  V30 8138 H 763.146 -2.74971 2.84969 0
M  V30 8139 H 764.32 -0.476282 4.58332 0
M  V30 8140 H 762.635 -0.587426 4.12236 0
M  V30 8141 H 765.232 -3.36857 4.15248 0
M  V30 8142 H 765.575 -3.37299 2.43998 0
M  V30 8143 H 766.108 -1.99914 3.43917 0
M  V30 8144 H 762.847 -1.46594 6.38898 0
M  V30 8145 H 762.367 -2.7939 5.30755 0
M  V30 8146 H 764.046 -2.67682 5.89029 0
M  V30 8147 N 764.178 -1.45556 -0.604258 0
M  V30 8148 C 765.108 -1.57327 -1.72541 0
M  V30 8149 C 766.089 -0.424637 -1.64714 0
M  V30 8150 O 767.274 -0.648196 -1.83063 0
M  V30 8151 C 764.404 -1.54279 -3.11152 0
M  V30 8152 C 763.358 -2.67893 -3.33792 0
M  V30 8153 C 762.684 -2.499 -4.72709 0
M  V30 8154 C 763.984 -4.0988 -3.23722 0
M  V30 8155 H 765.678 -2.51175 -1.62947 0
M  V30 8156 H 763.224 -1.20884 -0.782504 0
M  V30 8157 H 765.177 -1.6111 -3.89386 0
M  V30 8158 H 763.901 -0.569627 -3.21594 0
M  V30 8159 H 762.56 -2.60495 -2.57949 0
M  V30 8160 H 762.208 -1.50715 -4.79889 0
M  V30 8161 H 761.908 -3.26091 -4.88813 0
M  V30 8162 H 763.432 -2.5859 -5.5314 0
M  V30 8163 H 764.846 -4.18503 -3.91826 0
M  V30 8164 H 763.243 -4.86487 -3.51355 0
M  V30 8165 H 764.313 -4.31553 -2.21111 0
M  V30 8166 N 765.656 0.84705 -1.32902 0
M  V30 8167 C 766.604 1.97765 -1.22441 0
M  V30 8168 C 767.598 1.68919 -0.127546 0
M  V30 8169 O 768.804 1.77633 -0.290973 0
M  V30 8170 H 765.179 0.649072 -0.379748 0
M  V30 8171 H 767.15 2.03713 -2.18044 0
M  V30 8172 C 765.899 3.33834 -0.972125 0
M  V30 8173 H 765.222 3.56564 -1.80837 0
M  V30 8174 H 766.662 4.13467 -0.939209 0
M  V30 8175 C 765.121 3.35328 0.325059 0
M  V30 8176 O 765.651 3.78887 1.33445 0
M  V30 8177 N 763.857 2.88488 0.349718 0
M  V30 8178 H 763.404 2.53234 -0.472236 0
M  V30 8179 H 763.362 2.8987 1.21748 0
M  V30 8180 N 767.134 1.16236 1.06428 0
M  V30 8181 C 768.362 0.967184 1.82902 0
M  V30 8182 C 768.777 -0.484601 1.82475 0
M  V30 8183 O 768.134 -1.33631 1.24294 0
M  V30 8184 C 768.185 1.48534 3.29576 0
M  V30 8185 O 767.906 2.88026 3.3011 0
M  V30 8186 C 769.407 1.33298 4.22784 0
M  V30 8187 H 766.627 0.342923 0.576754 0
M  V30 8188 H 769.171 1.54232 1.34286 0
M  V30 8189 H 767.326 0.952513 3.75508 0
M  V30 8190 H 767.74 3.11721 4.21818 0
M  V30 8191 H 769.214 1.74385 5.23731 0
M  V30 8192 H 769.691 0.278356 4.38317 0
M  V30 8193 H 770.297 1.85535 3.82697 0
M  V30 8194 N 768.612 -1.24939 0.960631 0
M  V30 8195 C 769.522 -2.29374 0.492435 0
M  V30 8196 C 770.538 -1.68262 -0.443154 0
M  V30 8197 O 771.714 -1.98875 -0.31793 0
M  V30 8198 C 768.779 -3.46023 -0.216626 0
M  V30 8199 C 767.84 -4.22557 0.757915 0
M  V30 8200 C 767.073 -5.33636 0.0825969 0
M  V30 8201 O 767.296 -5.59084 -1.13054 0
M  V30 8202 O 766.23 -5.96939 0.771177 0
M  V30 8203 H 770.056 -2.71525 1.36044 0
M  V30 8204 H 767.641 -1.30499 0.72735 0
M  V30 8205 H 769.523 -4.16885 -0.615241 0
M  V30 8206 H 768.198 -3.05862 -1.05971 0
M  V30 8207 H 767.105 -3.54099 1.20685 0
M  V30 8208 H 768.438 -4.66516 1.5692 0
M  V30 8209 N 770.09 -0.729906 -1.39679 0
M  V30 8210 C 771.038 -0.0756589 -2.32477 0
M  V30 8211 C 772.032 0.731438 -1.52795 0
M  V30 8212 O 773.238 0.633195 -1.68495 0
M  V30 8213 H 769.613 -0.00566492 -0.751979 0
M  V30 8214 H 771.584 -0.874797 -2.85289 0
M  V30 8215 C 770.333 0.821313 -3.37861 0
M  V30 8216 H 769.656 0.209666 -3.9925 0
M  V30 8217 H 771.096 1.24679 -4.05254 0
M  V30 8218 C 769.555 1.9533 -2.74495 0
M  V30 8219 O 770.085 3.04548 -2.61942 0
M  V30 8220 N 768.291 1.74119 -2.3266 0
M  V30 8221 H 767.838 0.852908 -2.4307 0
M  V30 8222 H 767.796 2.50036 -1.90603 0
M  V30 8223 N 771.568 1.50203 -0.477153 0
M  V30 8224 C 772.516 2.30278 0.327826 0
M  V30 8225 C 773.51 1.37831 0.984839 0
M  V30 8226 O 774.716 1.54994 0.915251 0
M  V30 8227 H 771.091 0.741612 0.124564 0
M  V30 8228 H 773.062 2.96124 -0.367853 0
M  V30 8229 C 771.811 3.18548 1.39365 0
M  V30 8230 H 771.134 3.89596 0.897475 0
M  V30 8231 H 772.574 3.77561 1.92934 0
M  V30 8232 C 771.033 2.36548 2.39889 0
M  V30 8233 O 771.563 2.05282 3.45286 0
M  V30 8234 N 769.769 1.99015 2.11758 0
M  V30 8235 H 769.316 2.24641 1.26071 0
M  V30 8236 H 769.274 1.44454 2.7925 0
M  V30 8237 N 773.046 0.209999 1.56195 0
M  V30 8238 C 774.293 -0.424813 1.97994 0
M  V30 8239 C 774.621 -1.60589 1.09733 0
M  V30 8240 O 773.876 -1.95201 0.139693 0
M  V30 8241 C 774.175 -0.91312 3.45539 0
M  V30 8242 C 773.841 0.156187 4.50629 0
M  V30 8243 C 772.503 0.449966 4.79092 0
M  V30 8244 C 774.855 0.879959 5.13718 0
M  V30 8245 C 772.183 1.47223 5.67928 0
M  V30 8246 C 774.535 1.89148 6.0366 0
M  V30 8247 C 773.199 2.1923 6.30472 0
M  V30 8248 H 772.469 -0.15545 0.724511 0
M  V30 8249 H 775.116 0.310095 1.88973 0
M  V30 8250 H 773.421 -1.72658 3.51705 0
M  V30 8251 H 775.118 -1.41395 3.75245 0
M  V30 8252 H 771.708 -0.0829466 4.2852 0
M  V30 8253 H 775.892 0.66623 4.91808 0
M  V30 8254 H 771.148 1.71105 5.86969 0
M  V30 8255 H 775.322 2.45745 6.516 0
M  V30 8256 H 772.949 2.98587 6.99107 0
M  V30 8257 N 774.524 -1.57472 -0.0634922 0
M  V30 8258 C 775.752 -1.91887 -0.773767 0
M  V30 8259 C 776.167 -0.806733 -1.70696 0
M  V30 8260 O 775.524 0.219383 -1.81177 0
M  V30 8261 C 775.575 -3.26092 -1.56034 0
M  V30 8262 O 775.296 -4.33029 -0.66464 0
M  V30 8263 C 776.797 -3.74573 -2.37087 0
M  V30 8264 H 774.017 -0.634074 -0.219525 0
M  V30 8265 H 776.561 -2.04476 -0.0312828 0
M  V30 8266 H 774.716 -3.15004 -2.25502 0
M  V30 8267 H 775.13 -5.10291 -1.21258 0
M  V30 8268 H 776.604 -4.71084 -2.87722 0
M  V30 8269 H 777.081 -3.04003 -3.16984 0
M  V30 8270 H 777.687 -3.88631 -1.72759 0
M  V30 8271 N 776.003 0.335068 -1.53997 0
M  V30 8272 C 776.933 1.41727 -1.85568 0
M  V30 8273 C 777.914 1.54505 -0.7115 0
M  V30 8274 O 779.099 1.68573 -0.964191 0
M  V30 8275 C 776.229 2.7866 -2.07282 0
M  V30 8276 C 775.183 2.80682 -3.23112 0
M  V30 8277 C 774.509 4.20581 -3.30175 0
M  V30 8278 C 775.809 2.45458 -4.61029 0
M  V30 8279 H 777.503 1.15555 -2.76202 0
M  V30 8280 H 775.049 0.554445 -1.32898 0
M  V30 8281 H 777.002 3.54423 -2.27952 0
M  V30 8282 H 775.726 3.06286 -1.13387 0
M  V30 8283 H 774.385 2.07373 -3.02311 0
M  V30 8284 H 774.033 4.4533 -2.33859 0
M  V30 8285 H 773.733 4.22843 -4.08016 0
M  V30 8286 H 775.257 4.98174 -3.53066 0
M  V30 8287 H 776.671 3.10934 -4.81656 0
M  V30 8288 H 775.068 2.5899 -5.41336 0
M  V30 8289 H 776.138 1.40628 -4.6406 0
M  V30 8290 N 777.481 1.45874 0.596531 0
M  V30 8291 C 778.709 1.54013 1.38158 0
M  V30 8292 C 779.124 0.17648 1.87973 0
M  V30 8293 O 778.481 -0.823895 1.62844 0
M  V30 8294 C 778.532 2.53363 2.57855 0
M  V30 8295 O 778.253 3.8443 2.10108 0
M  V30 8296 C 779.754 2.71308 3.50581 0
M  V30 8297 H 776.974 0.521251 0.422538 0
M  V30 8298 H 779.518 1.9116 0.726493 0
M  V30 8299 H 777.673 2.19257 3.19382 0
M  V30 8300 H 778.087 4.38384 2.87958 0
M  V30 8301 H 779.561 3.44776 4.31084 0
M  V30 8302 H 780.038 1.77728 4.01633 0
M  V30 8303 H 780.644 3.06455 2.94899 0
M  V30 8304 N 778.959 -0.83999 1.33349 0
M  V30 8305 C 780.236 -1.57973 1.15342 0
M  V30 8306 C 780.616 -2.09226 -0.280632 0
M  V30 8307 O 779.964 -1.89317 -1.2795 0
M  V30 8308 C 780.174 -2.71446 2.19359 0
M  V30 8309 C 781.522 -3.40654 2.53456 0
M  V30 8310 O 782.546 -2.81686 2.18017 0
M  V30 8311 O 781.405 -4.47101 3.14266 0
M  V30 8312 H 778.499 -0.6964 0.446044 0
M  V30 8313 H 781.045 -0.882843 1.44927 0
M  V30 8314 H 779.817 -2.31205 3.1569 0
M  V30 8315 H 779.44 -3.488 1.90852 0
M  V30 8316 N 780.437 -1.16799 -1.0581 0
M  V30 8317 C 781.385 -0.875111 -2.1551 0
M  V30 8318 C 782.379 0.157781 -1.68664 0
M  V30 8319 O 783.585 0.011297 -1.79996 0
M  V30 8320 H 779.96 -0.26542 -0.703602 0
M  V30 8321 H 781.931 -1.8076 -2.37421 0
M  V30 8322 C 780.68 -0.39802 -3.45414 0
M  V30 8323 H 780.003 -1.18425 -3.81858 0
M  V30 8324 H 781.443 -0.231913 -4.23365 0
M  V30 8325 C 779.902 0.88327 -3.25115 0
M  V30 8326 O 780.432 1.95145 -3.51114 0
M  V30 8327 N 778.638 0.828961 -2.78526 0
M  V30 8328 H 778.185 -0.0405029 -2.57568 0
M  V30 8329 H 778.143 1.68673 -2.65324 0
M  V30 8330 N 781.915 1.24427 -0.967243 0
M  V30 8331 C 782.865 2.23143 -0.468106 0
M  V30 8332 C 783.849 1.5449 0.449633 0
M  V30 8333 O 785.041 1.74761 0.28063 0
M  V30 8334 C 782.17 3.42454 0.240867 0
M  V30 8335 C 781.256 4.18355 -0.695674 0
M  V30 8336 N 781.647 4.71428 -1.83273 0
M  V30 8337 C 779.945 4.43116 -0.506365 0
M  V30 8338 C 780.646 5.29041 -2.41849 0
M  V30 8339 N 779.622 5.16213 -1.70369 0
M  V30 8340 H 783.424 2.61795 -1.3357 0
M  V30 8341 H 780.938 1.39809 -0.826277 0
M  V30 8342 H 782.935 4.12329 0.615668 0
M  V30 8343 H 781.595 3.05323 1.10491 0
M  V30 8344 H 782.606 4.68177 -2.21428 0
M  V30 8345 H 779.283 4.16319 0.313747 0
M  V30 8346 H 780.673 5.80811 -3.37799 0
M  V30 8347 N 783.393 0.737304 1.3929 0
M  V30 8348 C 784.67 0.212464 1.94443 0
M  V30 8349 C 785.05 -1.28621 1.67391 0
M  V30 8350 O 784.398 -2.0529 1.00342 0
M  V30 8351 C 784.608 0.548565 3.44662 0
M  V30 8352 C 785.956 0.499177 4.21656 0
M  V30 8353 O 786.98 0.485892 3.5287 0
M  V30 8354 O 785.839 0.495739 5.44247 0
M  V30 8355 H 782.933 0.0395457 0.826054 0
M  V30 8356 H 785.479 0.816319 1.48776 0
M  V30 8357 H 784.251 1.58426 3.57795 0
M  V30 8358 H 783.874 -0.0841399 3.97511 0
M  V30 8359 N 784.871 -1.49948 0.485112 0
M  V30 8360 C 785.819 -2.30449 -0.315609 0
M  V30 8361 C 786.813 -1.38351 -0.977516 0
M  V30 8362 O 788.019 -1.55477 -0.907019 0
M  V30 8363 H 784.394 -0.742262 -0.120629 0
M  V30 8364 H 786.365 -2.95925 0.383552 0
M  V30 8365 C 785.114 -3.19283 -1.37673 0
M  V30 8366 H 784.437 -3.90067 -0.876801 0
M  V30 8367 H 785.877 -3.78579 -1.90929 0
M  V30 8368 C 784.336 -2.37817 -2.38631 0
M  V30 8369 O 784.866 -2.0711 -3.44192 0
M  V30 8370 N 783.072 -2.00135 -2.107 0
M  V30 8371 H 782.619 -2.25307 -1.24878 0
M  V30 8372 H 782.577 -1.45933 -2.7848 0
M  V30 8373 N 786.349 -0.21828 -1.56081 0
M  V30 8374 C 787.577 0.419258 -2.02608 0
M  V30 8375 C 787.992 1.53578 -1.09814 0
M  V30 8376 O 787.349 1.82185 -0.107149 0
M  V30 8377 C 787.4 0.953955 -3.48686 0
M  V30 8378 O 787.121 -0.11805 -4.37941 0
M  V30 8379 C 788.622 1.66506 -4.10841 0
M  V30 8380 H 785.842 0.10296 -0.663054 0
M  V30 8381 H 788.386 -0.333776 -2.01758 0
M  V30 8382 H 786.541 1.65727 -3.50162 0
M  V30 8383 H 786.955 0.283359 -5.23734 0
M  V30 8384 H 788.429 1.99123 -5.14834 0
M  V30 8385 H 788.906 2.57705 -3.55647 0
M  V30 8386 H 789.512 1.00703 -4.13206 0
M  V30 8387 N 787.827 1.57504 0.0551401 0
M  V30 8388 C 788.79 2.03826 1.04821 0
M  V30 8389 C 789.79 0.937968 1.30609 0
M  V30 8390 O 790.98 1.20237 1.2605 0
M  V30 8391 C 788.112 2.43309 2.38775 0
M  V30 8392 H 789.305 2.92802 0.6486 0
M  V30 8393 H 786.858 1.53368 0.301315 0
M  V30 8394 H 787.593 1.5741 2.83536 0
M  V30 8395 H 787.378 3.23615 2.21395 0
M  V30 8396 H 788.868 2.79666 3.10124 0
M  V30 8397 N 789.305 -0.326896 1.54172 0
M  V30 8398 C 790.253 -1.42232 1.84046 0
M  V30 8399 C 791.247 -1.53705 0.712115 0
M  V30 8400 O 792.453 -1.56131 0.895724 0
M  V30 8401 H 788.828 -0.474568 0.583343 0
M  V30 8402 H 790.799 -1.14259 2.75658 0
M  V30 8403 C 789.548 -2.78502 2.08163 0
M  V30 8404 H 788.871 -2.70447 2.94446 0
M  V30 8405 H 790.311 -3.54228 2.33021 0
M  V30 8406 C 788.77 -3.25415 0.872152 0
M  V30 8407 O 789.3 -4.01621 0.0797648 0
M  V30 8408 N 787.506 -2.82418 0.684716 0
M  V30 8409 H 787.053 -2.20566 1.33072 0
M  V30 8410 H 787.011 -3.14159 -0.123031 0
M  V30 8411 N 790.784 -1.46188 -0.588786 0
M  V30 8412 C 792.033 -1.50452 -1.34339 0
M  V30 8413 C 792.346 -0.158096 -1.9496 0
M  V30 8414 O 793.552 -0.0784918 -2.71387 0
M  V30 8415 C 792.008 -2.65074 -2.43441 0
M  V30 8416 C 791.616 -4.06111 -1.8915 0
M  V30 8417 C 793.36 -2.78603 -3.20282 0
M  V30 8418 C 791.267 -5.12084 -2.95845 0
M  V30 8419 H 790.197 -0.559905 -0.504997 0
M  V30 8420 H 792.848 -1.72382 -0.629014 0
M  V30 8421 H 791.23 -2.36462 -3.1765 0
M  V30 8422 H 792.404 -4.44487 -1.21524 0
M  V30 8423 H 790.719 -3.97197 -1.24995 0
M  V30 8424 H 793.316 -3.54944 -3.99898 0
M  V30 8425 H 793.659 -1.85902 -3.72486 0
M  V30 8426 H 794.192 -3.06832 -2.53178 0
M  V30 8427 H 790.931 -6.06556 -2.48535 0
M  V30 8428 H 790.451 -4.78259 -3.61979 0
M  V30 8429 H 792.13 -5.37661 -3.59902 0
M  V30 8430 N 792.262 0.832906 -1.33792 0
M  V30 8431 C 793.49 1.62048 -1.28639 0
M  V30 8432 C 793.905 1.88269 0.141522 0
M  V30 8433 O 793.262 1.46706 1.08553 0
M  V30 8434 C 793.313 2.96722 -2.0649 0
M  V30 8435 O 793.034 2.7165 -3.43712 0
M  V30 8436 C 794.535 3.91144 -2.08617 0
M  V30 8437 H 791.755 0.504032 -0.442937 0
M  V30 8438 H 794.299 1.03704 -1.76255 0
M  V30 8439 H 792.454 3.51652 -1.62541 0
M  V30 8440 H 792.868 3.57453 -3.83833 0
M  V30 8441 H 794.342 4.82837 -2.67531 0
M  V30 8442 H 794.819 4.25766 -1.07796 0
M  V30 8443 H 795.425 3.42152 -2.52611 0
M  V30 8444 N 793.74 1.17359 1.05189 0
M  V30 8445 C 794.986 0.963413 1.78455 0
M  V30 8446 C 795.319 -0.506703 1.87473 0
M  V30 8447 O 794.594 -1.37611 1.37453 0
M  V30 8448 C 794.877 1.60519 3.22344 0
M  V30 8449 C 794.73 3.14741 3.21338 0
M  V30 8450 C 796.049 1.3091 4.20179 0
M  V30 8451 H 793.168 0.351412 0.647826 0
M  V30 8452 H 795.81 1.44858 1.22948 0
M  V30 8453 H 793.96 1.19265 3.69741 0
M  V30 8454 H 795.632 3.65053 2.82017 0
M  V30 8455 H 793.875 3.4749 2.59679 0
M  V30 8456 H 794.546 3.54775 4.22894 0
M  V30 8457 H 797.022 1.66635 3.81277 0
M  V30 8458 H 795.898 1.784 5.191 0
M  V30 8459 H 796.159 0.229908 4.41502 0
M  V30 8460 N 795.218 -1.23913 0.973828 0
M  V30 8461 C 796.165 -2.25132 0.508366 0
M  V30 8462 C 797.135 -1.59908 -0.449307 0
M  V30 8463 O 798.32 -1.87405 -0.358313 0
M  V30 8464 C 795.46 -3.4458 -0.189422 0
M  V30 8465 C 794.573 -4.24381 0.807738 0
M  V30 8466 C 793.708 -5.31131 0.0854315 0
M  V30 8467 C 792.747 -6.02635 1.07225 0
M  V30 8468 N 791.884 -7.01073 0.379535 0
M  V30 8469 H 796.724 -2.64313 1.37632 0
M  V30 8470 H 794.261 -1.29924 0.689802 0
M  V30 8471 H 796.219 -4.12706 -0.610733 0
M  V30 8472 H 794.849 -3.06218 -1.02129 0
M  V30 8473 H 793.901 -3.55735 1.34747 0
M  V30 8474 H 795.213 -4.73778 1.55998 0
M  V30 8475 H 794.367 -6.05422 -0.393572 0
M  V30 8476 H 793.106 -4.82658 -0.699461 0
M  V30 8477 H 792.111 -5.27143 1.56207 0
M  V30 8478 H 793.336 -6.53197 1.85769 0
M  V30 8479 H 791.282 -6.54862 -0.386269 0
M  V30 8480 H 791.199 -7.48382 1.07054 0
M  V30 8481 H 792.467 -7.79462 -0.0772984 0
M  V30 8482 N 796.696 -0.74468 -1.38897 0
M  V30 8483 C 797.926 -0.306982 -2.04307 0
M  V30 8484 C 798.334 1.06652 -1.56275 0
M  V30 8485 O 797.677 1.68699 -0.72708 0
M  V30 8486 C 797.739 -0.241186 -3.5869 0
M  V30 8487 C 797.403 -1.55476 -4.2974 0
M  V30 8488 C 798.4 -2.50229 -4.55721 0
M  V30 8489 C 796.085 -1.82173 -4.68101 0
M  V30 8490 C 798.079 -3.69905 -5.19085 0
M  V30 8491 C 795.766 -3.02125 -5.31191 0
M  V30 8492 C 796.764 -3.95812 -5.56616 0
M  V30 8493 O 796.452 -5.13656 -6.18395 0
M  V30 8494 H 796.184 -0.130416 -0.663301 0
M  V30 8495 H 798.738 -1.01192 -1.78744 0
M  V30 8496 H 796.968 0.519925 -3.83189 0
M  V30 8497 H 798.657 0.165806 -4.05561 0
M  V30 8498 H 799.423 -2.30877 -4.26522 0
M  V30 8499 H 795.302 -1.10091 -4.47662 0
M  V30 8500 H 798.846 -4.43047 -5.38846 0
M  V30 8501 H 794.743 -3.21374 -5.59811 0
M  V30 8502 H 795.511 -5.14119 -6.36886 0
M  V30 8503 N 798.174 1.49689 -0.493057 0
M  V30 8504 C 799.422 2.02027 0.0541642 0
M  V30 8505 C 799.743 1.37554 1.38217 0
M  V30 8506 O 799.013 0.528174 1.88646 0
M  V30 8507 H 797.593 0.746646 0.0230069 0
M  V30 8508 H 800.255 1.83795 -0.648489 0
M  V30 8509 H 799.351 3.11523 0.189652 0
M  V30 8510 N 799.652 0.226554 1.55963 0
M  V30 8511 C 800.584 -0.713907 2.17798 0
M  V30 8512 C 801.597 -1.15387 1.14846 0
M  V30 8513 O 802.786 -1.08416 1.41804 0
M  V30 8514 C 799.886 -1.97945 2.75084 0
M  V30 8515 C 799.059 -1.69424 4.03255 0
M  V30 8516 C 798.118 -2.80734 4.45056 0
M  V30 8517 O 797.144 -2.4899 5.11852 0
M  V30 8518 N 798.346 -4.09797 4.11152 0
M  V30 8519 H 801.111 -0.18494 2.99129 0
M  V30 8520 H 798.672 0.0457346 1.61835 0
M  V30 8521 H 800.664 -2.71611 3.00016 0
M  V30 8522 H 799.234 -2.41876 1.98027 0
M  V30 8523 H 798.454 -0.793767 3.86126 0
M  V30 8524 H 799.742 -1.47806 4.86858 0
M  V30 8525 H 799.14 -4.38429 3.57486 0
M  V30 8526 H 797.697 -4.79992 4.40966 0
M  V30 8527 N 801.13 -1.57531 -0.0467866 0
M  V30 8528 C 802.377 -1.88451 -0.74112 0
M  V30 8529 C 802.705 -0.821592 -1.76296 0
M  V30 8530 O 801.96 0.179585 -1.94874 0
M  V30 8531 C 802.259 -3.26091 -1.46285 0
M  V30 8532 C 801.925 -4.47171 -0.578669 0
M  V30 8533 C 800.587 -4.80032 -0.335083 0
M  V30 8534 C 802.939 -5.2119 0.0328809 0
M  V30 8535 C 800.267 -5.84309 0.529121 0
M  V30 8536 C 802.619 -6.26383 0.884684 0
M  V30 8537 C 801.283 -6.57729 1.1379 0
M  V30 8538 H 800.553 -0.68959 -0.271195 0
M  V30 8539 H 803.2 -1.915 -0.00132378 0
M  V30 8540 H 801.505 -3.18948 -2.27551 0
M  V30 8541 H 803.202 -3.47258 -2.00532 0
M  V30 8542 H 799.792 -4.21467 -0.778666 0
M  V30 8543 H 803.976 -4.96096 -0.142375 0
M  V30 8544 H 799.232 -6.06981 0.733794 0
M  V30 8545 H 803.406 -6.82888 1.36516 0
M  V30 8546 H 801.033 -7.38355 1.80929 0
M  V30 8547 N 802.608 0.318715 -1.54344 0
M  V30 8548 C 803.885 1.07461 -1.63437 0
M  V30 8549 C 804.265 2.05771 -0.47131 0
M  V30 8550 O 803.613 2.22175 0.53391 0
M  V30 8551 C 803.823 1.77224 -3.00654 0
M  V30 8552 C 805.171 2.30069 -3.56866 0
M  V30 8553 O 806.195 1.87284 -3.0299 0
M  V30 8554 O 805.054 3.08412 -4.51159 0
M  V30 8555 H 802.148 0.495627 -0.66203 0
M  V30 8556 H 804.694 0.318218 -1.6669 0
M  V30 8557 H 803.466 1.05742 -3.76742 0
M  V30 8558 H 803.089 2.59662 -3.01101 0
M  V30 8559 N 804.086 1.46499 0.581025 0
M  V30 8560 C 805.502 1.31491 0.904563 0
M  V30 8561 C 805.702 0.287598 1.99437 0
M  V30 8562 O 804.758 -0.309247 2.50599 0
M  V30 8563 C 806.071 2.70163 1.32032 0
M  V30 8564 C 807.619 2.78266 1.43308 0
M  V30 8565 C 808.094 4.17524 1.8825 0
M  V30 8566 N 809.585 4.19949 1.9544 0
M  V30 8567 C 810.32 5.24594 2.31493 0
M  V30 8568 N 809.816 6.39564 2.66326 0
M  V30 8569 N 811.609 5.11961 2.32062 0
M  V30 8570 H 803.76 2.11946 -0.138856 0
M  V30 8571 H 806.023 0.948 0.000548528 0
M  V30 8572 H 805.729 3.46655 0.593554 0
M  V30 8573 H 805.603 3.00379 2.2815 0
M  V30 8574 H 807.99 2.02061 2.15071 0
M  V30 8575 H 808.071 2.51732 0.45438 0
M  V30 8576 H 807.715 4.94225 1.17065 0
M  V30 8577 H 807.645 4.41466 2.87081 0
M  V30 8578 H 810.136 3.36996 1.71004 0
M  V30 8579 H 810.449 7.15187 2.92793 0
M  V30 8580 H 808.794 6.42923 2.6396 0
M  V30 8581 H 811.985 4.21177 2.04272 0
M  V30 8582 H 812.158 5.93626 2.5983 0
M  V30 8583 N 805.565 -0.825799 1.34232 0
M  V30 8584 C 806.475 -1.9684 1.27638 0
M  V30 8585 C 807.491 -1.73018 0.184569 0
M  V30 8586 O 808.667 -1.97172 0.410525 0
M  V30 8587 C 805.732 -3.31084 1.02879 0
M  V30 8588 C 804.793 -3.67933 2.21188 0
M  V30 8589 C 804.026 -4.95772 1.976 0
M  V30 8590 O 804.249 -5.62721 0.93281 0
M  V30 8591 O 803.183 -5.30431 2.84477 0
M  V30 8592 H 807.009 -2.05346 2.23756 0
M  V30 8593 H 804.594 -0.960772 1.1441 0
M  V30 8594 H 806.476 -4.11492 0.908406 0
M  V30 8595 H 805.151 -3.23552 0.0979821 0
M  V30 8596 H 804.058 -2.87981 2.38784 0
M  V30 8597 H 805.391 -3.80147 3.12648 0
M  V30 8598 N 807.043 -1.17915 -1.04565 0
M  V30 8599 C 807.993 -0.869634 -2.10764 0
M  V30 8600 C 808.977 0.158502 -1.60117 0
M  V30 8601 O 810.169 -0.04483 -1.76943 0
M  V30 8602 C 807.298 -0.391642 -3.41059 0
M  V30 8603 C 806.384 -1.45156 -3.98485 0
M  V30 8604 N 806.775 -2.6667 -4.29792 0
M  V30 8605 C 805.073 -1.3109 -4.263 0
M  V30 8606 C 805.774 -3.34823 -4.75677 0
M  V30 8607 N 804.75 -2.62203 -4.76183 0
M  V30 8608 H 808.552 -1.79342 -2.32838 0
M  V30 8609 H 806.066 -1.0688 -1.22272 0
M  V30 8610 H 808.063 -0.151428 -4.16625 0
M  V30 8611 H 806.723 0.525862 -3.20413 0
M  V30 8612 H 807.734 -3.0358 -4.19594 0
M  V30 8613 H 804.411 -0.455545 -4.15007 0
M  V30 8614 H 805.801 -4.38645 -5.0896 0
M  V30 8615 N 808.521 1.23394 -0.980386 0
M  V30 8616 C 809.749 1.95844 -0.667286 0
M  V30 8617 C 810.164 1.72574 0.765735 0
M  V30 8618 O 809.521 1.01715 1.51526 0
M  V30 8619 C 809.572 3.48844 -0.948151 0
M  V30 8620 O 809.293 3.71325 -2.32485 0
M  V30 8621 C 810.794 4.38494 -0.651002 0
M  V30 8622 H 808.014 0.623535 -0.247882 0
M  V30 8623 H 810.558 1.56885 -1.31176 0
M  V30 8624 H 808.713 3.85819 -0.349681 0
M  V30 8625 H 809.127 4.65619 -2.41452 0
M  V30 8626 H 810.601 5.44648 -0.897887 0
M  V30 8627 H 811.078 4.37236 0.414922 0
M  V30 8628 H 811.684 4.07127 -1.22995 0
M  V30 8629 N 809.999 0.752036 1.385 0
M  V30 8630 C 810.946 0.123288 2.3047 0
M  V30 8631 C 811.916 -0.711326 1.50098 0
M  V30 8632 O 813.101 -0.667775 1.78733 0
M  V30 8633 C 810.241 -0.765085 3.36512 0
M  V30 8634 C 809.354 0.0839885 4.31918 0
M  V30 8635 C 808.489 -0.807243 5.25031 0
M  V30 8636 C 807.528 0.0455583 6.12083 0
M  V30 8637 N 806.665 -0.802547 6.97498 0
M  V30 8638 H 811.505 0.913169 2.83664 0
M  V30 8639 H 809.042 0.46195 1.39658 0
M  V30 8640 H 811 -1.29476 3.966 0
M  V30 8641 H 809.63 -1.52077 2.84732 0
M  V30 8642 H 808.682 0.731276 3.73305 0
M  V30 8643 H 809.994 0.74265 4.9324 0
M  V30 8644 H 809.148 -1.40414 5.90228 0
M  V30 8645 H 807.887 -1.49964 4.64071 0
M  V30 8646 H 806.892 0.655137 5.45883 0
M  V30 8647 H 808.117 0.734994 6.75111 0
M  V30 8648 H 806.063 -1.47992 6.39089 0
M  V30 8649 H 805.98 -0.200747 7.55733 0
M  V30 8650 H 807.248 -1.38447 7.67107 0
M  V30 8651 N 811.477 -1.49425 0.500989 0
M  V30 8652 C 812.723 -2.02753 -0.0436 0
M  V30 8653 C 813.056 -1.37991 -1.36646 0
M  V30 8654 O 812.331 -0.515597 -1.87542 0
M  V30 8655 C 812.614 -3.59565 -0.19616 0
M  V30 8656 C 812.467 -4.34855 1.14982 0
M  V30 8657 C 813.786 -4.30014 -0.936795 0
M  V30 8658 H 810.905 -0.73686 -0.0143711 0
M  V30 8659 H 813.547 -1.78448 0.652397 0
M  V30 8660 H 811.697 -3.80405 -0.788959 0
M  V30 8661 H 813.369 -4.25512 1.7815 0
M  V30 8662 H 811.612 -3.97414 1.73911 0
M  V30 8663 H 812.283 -5.42933 0.996385 0
M  V30 8664 H 814.759 -4.1383 -0.434036 0
M  V30 8665 H 813.635 -5.39483 -1.01238 0
M  V30 8666 H 813.896 -3.95257 -1.9805 0
M  V30 8667 N 812.955 -0.234822 -1.55841 0
M  V30 8668 C 813.905 0.68346 -2.17515 0
M  V30 8669 C 814.889 1.14798 -1.1274 0
M  V30 8670 O 816.081 1.09976 -1.38688 0
M  V30 8671 C 813.21 1.88551 -2.86886 0
M  V30 8672 C 812.296 1.44006 -3.98903 0
M  V30 8673 N 812.687 0.708034 -5.0082 0
M  V30 8674 C 810.985 1.7263 -4.11236 0
M  V30 8675 C 811.686 0.479036 -5.79724 0
M  V30 8676 N 810.662 1.03968 -5.33565 0
M  V30 8677 H 814.464 0.115897 -2.93671 0
M  V30 8678 H 811.978 -0.0366273 -1.62359 0
M  V30 8679 H 813.975 2.55425 -3.2949 0
M  V30 8680 H 812.635 2.45742 -2.12229 0
M  V30 8681 H 813.646 0.359363 -5.16652 0
M  V30 8682 H 810.323 2.31046 -3.47741 0
M  V30 8683 H 811.713 -0.104514 -6.71819 0
M  V30 8684 N 814.433 1.57553 0.0384317 0
M  V30 8685 C 815.68 1.88841 0.731116 0
M  V30 8686 C 816.008 0.83093 1.75857 0
M  V30 8687 O 815.263 -0.169248 1.94967 0
M  V30 8688 C 815.562 3.26862 1.44554 0
M  V30 8689 C 815.228 4.47472 0.554946 0
M  V30 8690 C 813.89 4.80203 0.309621 0
M  V30 8691 C 816.242 5.21165 -0.0605204 0
M  V30 8692 C 813.57 5.8402 -0.560101 0
M  V30 8693 C 815.922 6.25905 -0.91789 0
M  V30 8694 C 814.586 6.57117 -1.17277 0
M  V30 8695 H 813.856 0.691018 0.267534 0
M  V30 8696 H 816.503 1.91498 -0.00883195 0
M  V30 8697 H 814.808 3.2015 2.25856 0
M  V30 8698 H 816.505 3.48316 1.98688 0
M  V30 8699 H 813.095 4.21874 0.756304 0
M  V30 8700 H 817.279 4.96164 0.116064 0
M  V30 8701 H 812.535 6.06583 -0.765974 0
M  V30 8702 H 816.709 6.82155 -1.40136 0
M  V30 8703 H 814.336 7.37385 -1.84843 0
M  V30 8704 N 815.911 -0.310526 1.54511 0
M  V30 8705 C 816.841 -1.38757 1.878 0
M  V30 8706 C 817.822 -1.53353 0.735991 0
M  V30 8707 O 819.007 -1.67018 0.990887 0
M  V30 8708 C 816.137 -2.75327 2.11689 0
M  V30 8709 C 815.091 -2.75506 3.27537 0
M  V30 8710 C 814.417 -4.15275 3.36824 0
M  V30 8711 C 815.717 -2.38093 4.64875 0
M  V30 8712 H 817.411 -1.11146 2.78005 0
M  V30 8713 H 814.957 -0.533232 1.33763 0
M  V30 8714 H 816.91 -3.50752 2.33562 0
M  V30 8715 H 815.634 -3.04443 1.18245 0
M  V30 8716 H 814.293 -2.02538 3.05572 0
M  V30 8717 H 813.941 -4.41553 2.40915 0
M  V30 8718 H 813.641 -4.16299 4.14692 0
M  V30 8719 H 815.165 -4.92493 3.60947 0
M  V30 8720 H 816.579 -3.03232 4.86542 0
M  V30 8721 H 814.976 -2.50345 5.45387 0
M  V30 8722 H 816.046 -1.33227 4.66239 0
M  V30 8723 N 817.389 -1.46805 -0.573248 0
M  V30 8724 C 818.8 -1.46655 -1.15539 0
M  V30 8725 C 819.151 -0.2125 -1.95046 0
M  V30 8726 O 818.276 0.683759 -2.05314 0
M  V30 8727 C 818.871 -2.65711 -2.10198 0
M  V30 8728 C 817.43 -2.68572 -2.63716 0
M  V30 8729 C 816.577 -2.39498 -1.39772 0
M  V30 8730 H 819.528 -1.54547 -0.36068 0
M  V30 8731 H 819.549 -2.41768 -2.93817 0
M  V30 8732 H 819.061 -3.56967 -1.52303 0
M  V30 8733 H 817.162 -1.81414 -3.25453 0
M  V30 8734 H 817.275 -3.68809 -3.05805 0
M  V30 8735 H 815.639 -1.89749 -1.69904 0
M  V30 8736 H 816.422 -3.32942 -0.836943 0
M  V30 8737 N 818.867 0.818669 -1.34668 0
M  V30 8738 C 820.113 1.57746 -1.27453 0
M  V30 8739 C 820.446 1.93588 0.154077 0
M  V30 8740 O 819.721 1.60371 1.10051 0
M  V30 8741 C 820.004 2.87414 -2.16945 0
M  V30 8742 C 819.857 2.58125 -3.68363 0
M  V30 8743 C 821.176 3.89021 -2.05792 0
M  V30 8744 H 818.295 0.572339 -0.464324 0
M  V30 8745 H 820.937 0.942784 -1.64959 0
M  V30 8746 H 819.087 3.41576 -1.85089 0
M  V30 8747 H 820.759 2.10239 -4.10606 0
M  V30 8748 H 819.002 1.91503 -3.89242 0
M  V30 8749 H 819.673 3.5061 -4.26353 0
M  V30 8750 H 822.149 3.44224 -2.33771 0
M  V30 8751 H 821.025 4.77548 -2.70628 0
M  V30 8752 H 821.286 4.29786 -1.03618 0
M  V30 8753 N 820.346 1.18468 1.03938 0
M  V30 8754 C 821.592 0.982286 1.77423 0
M  V30 8755 C 821.925 -0.48679 1.88 0
M  V30 8756 O 821.2 -1.36146 1.38905 0
M  V30 8757 C 821.483 1.63929 3.20623 0
M  V30 8758 C 821.336 3.18132 3.17982 0
M  V30 8759 C 822.655 1.3536 4.18767 0
M  V30 8760 H 819.774 0.358264 0.644062 0
M  V30 8761 H 822.416 1.46154 1.21405 0
M  V30 8762 H 820.566 1.2318 3.68455 0
M  V30 8763 H 822.238 3.68024 2.78129 0
M  V30 8764 H 820.481 3.50225 2.55978 0
M  V30 8765 H 821.152 3.5924 4.19107 0
M  V30 8766 H 823.628 1.70669 3.79488 0
M  V30 8767 H 822.504 1.83896 5.17178 0
M  V30 8768 H 822.765 0.276722 4.41233 0
M  V30 8769 N 821.824 -1.22873 0.986916 0
M  V30 8770 C 823.073 -1.90772 0.654911 0
M  V30 8771 C 823.386 -1.77768 -0.81595 0
M  V30 8772 O 824.592 -2.40529 -1.25929 0
M  V30 8773 C 823.048 -3.42003 1.12081 0
M  V30 8774 C 822.656 -3.63655 2.61647 0
M  V30 8775 C 824.4 -4.15638 0.862854 0
M  V30 8776 C 822.307 -5.08555 3.01871 0
M  V30 8777 H 821.237 -0.714362 0.241252 0
M  V30 8778 H 823.888 -1.39196 1.19568 0
M  V30 8779 H 822.27 -3.92725 0.508207 0
M  V30 8780 H 823.444 -3.2345 3.28202 0
M  V30 8781 H 821.759 -3.03341 2.8526 0
M  V30 8782 H 824.356 -5.22425 1.13915 0
M  V30 8783 H 824.699 -4.15814 -0.201036 0
M  V30 8784 H 825.232 -3.70924 1.43736 0
M  V30 8785 H 821.971 -5.13514 4.07411 0
M  V30 8786 H 821.491 -5.49684 2.40015 0
M  V30 8787 H 823.17 -5.76936 2.92839 0
M  V30 8788 N 823.302 -0.75937 -1.38099 0
M  V30 8789 C 824.527 -0.327859 -2.04792 0
M  V30 8790 C 824.952 1.03752 -1.56899 0
M  V30 8791 O 824.31 1.66235 -0.723581 0
M  V30 8792 C 824.358 -0.366264 -3.58735 0
M  V30 8793 O 823.462 0.637697 -4.0744 0
M  V30 8794 H 822.803 -0.144092 -0.648177 0
M  V30 8795 H 825.333 -1.03211 -1.7666 0
M  V30 8796 H 825.343 -0.219179 -4.07411 0
M  V30 8797 H 824.018 -1.36243 -3.92951 0
M  V30 8798 H 822.595 0.454749 -3.70117 0
M  V30 8799 N 824.78 1.49157 -0.508906 0
M  V30 8800 C 826.057 1.95363 0.0961913 0
M  V30 8801 C 826.437 1.45064 1.53362 0
M  V30 8802 O 825.785 0.667835 2.18523 0
M  V30 8803 C 825.995 3.49 0.000688881 0
M  V30 8804 C 827.343 4.24257 0.170632 0
M  V30 8805 O 828.367 3.5612 0.0754994 0
M  V30 8806 O 827.226 5.45267 0.366957 0
M  V30 8807 H 824.32 0.821984 0.0909489 0
M  V30 8808 H 826.866 1.59769 -0.572007 0
M  V30 8809 H 825.638 3.78269 -1.00143 0
M  V30 8810 H 825.261 3.91233 0.708682 0
M  V30 8811 N 826.258 0.243083 1.55714 0
M  V30 8812 C 827.206 -0.674349 2.2261 0
M  V30 8813 C 828.2 -1.18307 1.21243 0
M  V30 8814 O 829.406 -1.1404 1.39265 0
M  V30 8815 H 825.781 -0.235941 0.714028 0
M  V30 8816 H 827.752 -0.0869446 2.98273 0
M  V30 8817 C 826.501 -1.86206 2.93637 0
M  V30 8818 H 825.824 -1.47975 3.71407 0
M  V30 8819 H 827.264 -2.4813 3.43813 0
M  V30 8820 C 825.723 -2.73084 1.97298 0
M  V30 8821 O 826.253 -3.72497 1.50361 0
M  V30 8822 N 824.459 -2.39571 1.64482 0
M  V30 8823 H 824.006 -1.5878 2.02846 0
M  V30 8824 H 823.964 -2.97976 1.00288 0
M  V30 8825 N 827.736 -1.57571 -0.0300757 0
M  V30 8826 C 828.984 -1.88852 -0.719666 0
M  V30 8827 C 829.305 -0.840645 -1.75949 0
M  V30 8828 O 828.575 0.125854 -1.95495 0
M  V30 8829 H 827.155 -0.696965 -0.268792 0
M  V30 8830 H 829.817 -1.949 0.00373285 0
M  V30 8831 H 828.913 -2.87695 -1.20987 0
M  V30 8832 N 829.214 0.302327 -1.54673 0
M  V30 8833 C 830.147 1.39738 -1.80412 0
M  V30 8834 C 831.125 1.48813 -0.655241 0
M  V30 8835 O 832.309 1.65895 -0.89505 0
M  V30 8836 C 829.436 2.7766 -1.93966 0
M  V30 8837 C 828.482 2.86014 -3.16383 0
M  V30 8838 S 829.315 2.48246 -4.74483 0
M  V30 8839 C 830.471 3.88198 -4.90971 0
M  V30 8840 H 830.704 1.17696 -2.73011 0
M  V30 8841 H 828.237 0.500364 -1.46068 0
M  V30 8842 H 830.195 3.571 -2.0246 0
M  V30 8843 H 828.856 2.96971 -1.02307 0
M  V30 8844 H 828.049 3.87174 -3.22664 0
M  V30 8845 H 827.651 2.14568 -3.06328 0
M  V30 8846 H 829.943 4.83181 -4.74913 0
M  V30 8847 H 830.886 3.86887 -5.93063 0
M  V30 8848 H 831.294 3.78139 -4.19131 0
M  V30 8849 N 830.692 1.47107 0.565454 0
M  V30 8850 C 832.103 1.47266 1.1476 0
M  V30 8851 C 832.454 0.222841 1.9493 0
M  V30 8852 O 831.579 -0.672862 2.05673 0
M  V30 8853 C 832.174 2.66822 2.08785 0
M  V30 8854 C 830.733 2.69967 2.62288 0
M  V30 8855 C 829.88 2.40236 1.38499 0
M  V30 8856 H 832.831 1.54736 0.352479 0
M  V30 8857 H 832.852 2.43323 2.92531 0
M  V30 8858 H 832.364 3.5777 1.50408 0
M  V30 8859 H 830.465 1.83137 3.24487 0
M  V30 8860 H 830.578 3.70426 3.03845 0
M  V30 8861 H 828.942 1.90648 1.68895 0
M  V30 8862 H 829.725 3.33381 0.819274 0
M  V30 8863 N 832.17 -0.811516 1.35101 0
M  V30 8864 C 833.395 -1.60499 1.31358 0
M  V30 8865 C 833.82 -1.87793 -0.107383 0
M  V30 8866 O 833.178 -1.46161 -1.07268 0
M  V30 8867 C 833.226 -2.91612 2.12119 0
M  V30 8868 O 832.33 -3.84211 1.49853 0
M  V30 8869 H 831.671 -0.487702 0.450603 0
M  V30 8870 H 834.201 -1.00758 1.7807 0
M  V30 8871 H 834.211 -3.4108 2.23894 0
M  V30 8872 H 832.886 -2.71071 3.15426 0
M  V30 8873 H 831.463 -3.42751 1.46889 0
M  V30 8874 N 833.648 -1.19017 -1.03309 0
M  V30 8875 C 835.064 -0.941483 -1.28873 0
M  V30 8876 C 835.264 0.388587 -1.97718 0
M  V30 8877 O 834.32 1.12111 -2.26246 0
M  V30 8878 C 835.633 -2.11249 -2.13996 0
M  V30 8879 C 837.181 -2.15164 -2.27318 0
M  V30 8880 C 837.656 -3.31704 -3.15811 0
M  V30 8881 N 839.147 -3.31613 -3.23399 0
M  V30 8882 C 839.882 -4.18431 -3.9205 0
M  V30 8883 N 839.378 -5.15397 -4.62966 0
M  V30 8884 N 841.171 -4.06321 -3.88406 0
M  V30 8885 H 833.322 -2.04599 -0.570343 0
M  V30 8886 H 835.585 -0.894406 -0.314232 0
M  V30 8887 H 835.291 -3.07482 -1.70727 0
M  V30 8888 H 835.165 -2.07955 -3.14697 0
M  V30 8889 H 837.552 -1.19504 -2.6982 0
M  V30 8890 H 837.633 -2.22513 -1.26182 0
M  V30 8891 H 837.277 -4.2764 -2.74019 0
M  V30 8892 H 837.207 -3.21592 -4.16997 0
M  V30 8893 H 839.698 -2.6142 -2.72888 0
M  V30 8894 H 840.011 -5.78 -5.12968 0
M  V30 8895 H 838.356 -5.19349 -4.61846 0
M  V30 8896 H 841.547 -3.29849 -3.3214 0
M  V30 8897 H 841.72 -4.74196 -4.41635 0
M  V30 8898 N 835.127 1.22348 -0.993418 0
M  V30 8899 C 836.355 1.95125 -0.688021 0
M  V30 8900 C 836.77 1.73377 0.747388 0
M  V30 8901 O 836.127 1.03317 1.50439 0
M  V30 8902 C 836.178 3.47819 -0.985097 0
M  V30 8903 O 835.899 3.68838 -2.3641 0
M  V30 8904 C 837.4 4.37779 -0.697474 0
M  V30 8905 H 834.62 0.62087 -0.254481 0
M  V30 8906 H 837.164 1.55485 -1.32833 0
M  V30 8907 H 835.319 3.85426 -0.390583 0
M  V30 8908 H 835.733 4.63032 -2.46377 0
M  V30 8909 H 837.207 5.43666 -0.955604 0
M  V30 8910 H 837.684 4.37651 0.368524 0
M  V30 8911 H 838.29 4.05799 -1.27306 0
M  V30 8912 N 836.605 0.766683 1.37694 0
M  V30 8913 C 837.853 0.328065 1.9942 0
M  V30 8914 C 838.174 -1.09775 1.61166 0
M  V30 8915 O 837.444 -1.75288 0.874686 0
M  V30 8916 H 836.024 0.11831 0.737572 0
M  V30 8917 H 838.686 0.983686 1.68255 0
M  V30 8918 H 837.782 0.401647 3.09505 0
M  V30 8919 N 838.083 -1.48885 0.516809 0
M  V30 8920 C 839.311 -2.06892 -0.0184017 0
M  V30 8921 C 839.726 -1.37511 -1.29368 0
M  V30 8922 O 839.083 -0.458409 -1.76649 0
M  V30 8923 C 839.134 -3.60566 -0.259673 0
M  V30 8924 O 838.855 -4.27338 0.965065 0
M  V30 8925 C 840.356 -4.35331 -0.836751 0
M  V30 8926 H 837.576 -0.670433 0.0275743 0
M  V30 8927 H 840.12 -1.91455 0.718689 0
M  V30 8928 H 838.275 -3.75653 -0.94678 0
M  V30 8929 H 838.689 -5.19287 0.737647 0
M  V30 8930 H 840.163 -5.43675 -0.955065 0
M  V30 8931 H 840.64 -3.9887 -1.83845 0
M  V30 8932 H 841.246 -4.2489 -0.186622 0
M  V30 8933 N 839.561 -0.251338 -1.55583 0
M  V30 8934 C 840.786 0.379136 -2.03905 0
M  V30 8935 C 841.211 1.50428 -1.12929 0
M  V30 8936 O 840.569 1.80882 -0.123114 0
M  V30 8937 C 840.617 0.86009 -3.50193 0
M  V30 8938 O 839.721 1.96932 -3.62342 0
M  V30 8939 H 839.062 0.0820183 -0.658915 0
M  V30 8940 H 841.592 -0.378692 -2.01065 0
M  V30 8941 H 841.602 1.16214 -3.91099 0
M  V30 8942 H 840.277 0.0367559 -4.15884 0
M  V30 8943 H 838.854 1.67163 -3.33333 0
M  V30 8944 N 841.039 1.57585 0.0217189 0
M  V30 8945 C 842.267 1.93871 0.722619 0
M  V30 8946 C 842.682 0.851706 1.68498 0
M  V30 8947 O 842.039 -0.17127 1.81695 0
M  V30 8948 C 842.09 3.30114 1.47333 0
M  V30 8949 O 841.811 4.34639 0.549597 0
M  V30 8950 C 843.312 3.80727 2.27072 0
M  V30 8951 H 840.532 0.639671 0.202637 0
M  V30 8952 H 843.076 2.04487 -0.0229414 0
M  V30 8953 H 841.231 3.20872 2.17071 0
M  V30 8954 H 841.645 5.13326 1.07686 0
M  V30 8955 H 843.119 4.78547 2.75131 0
M  V30 8956 H 843.596 3.12301 3.08812 0
M  V30 8957 H 844.202 3.93075 1.62395 0
M  V30 8958 N 842.517 -0.29412 1.54831 0
M  V30 8959 C 843.447 -1.36757 1.89261 0
M  V30 8960 C 844.428 -1.52564 0.752214 0
M  V30 8961 O 845.613 -1.65958 1.00855 0
M  V30 8962 C 842.743 -2.73066 2.14597 0
M  V30 8963 C 841.697 -2.72017 3.3044 0
M  V30 8964 C 841.023 -4.11679 3.4121 0
M  V30 8965 C 842.323 -2.33149 4.67375 0
M  V30 8966 H 844.017 -1.08191 2.79169 0
M  V30 8967 H 841.563 -0.519014 1.34321 0
M  V30 8968 H 843.516 -3.48255 2.37269 0
M  V30 8969 H 842.24 -3.03172 1.21467 0
M  V30 8970 H 840.899 -1.99285 3.07703 0
M  V30 8971 H 840.547 -4.38973 2.45584 0
M  V30 8972 H 840.247 -4.11877 4.19084 0
M  V30 8973 H 841.771 -4.88637 3.6615 0
M  V30 8974 H 843.185 -2.98054 4.89731 0
M  V30 8975 H 841.582 -2.44546 5.48012 0
M  V30 8976 H 842.652 -1.28275 4.67626 0
M  V30 8977 N 843.995 -1.47404 -0.557645 0
M  V30 8978 C 845.223 -1.57622 -1.34026 0
M  V30 8979 C 845.638 -0.226256 -1.87439 0
M  V30 8980 O 844.995 0.78043 -1.64971 0
M  V30 8981 C 845.046 -2.60111 -2.51047 0
M  V30 8982 O 844.767 -3.89866 -1.99841 0
M  V30 8983 C 846.268 -2.80508 -3.43264 0
M  V30 8984 H 843.488 -0.532271 -0.40857 0
M  V30 8985 H 846.032 -1.93019 -0.675555 0
M  V30 8986 H 844.187 -2.27648 -3.13457 0
M  V30 8987 H 844.601 -4.45864 -2.76234 0
M  V30 8988 H 846.075 -3.56084 -4.21792 0
M  V30 8989 H 846.552 -1.88314 -3.9678 0
M  V30 8990 H 847.158 -3.14166 -2.86671 0
M  V30 8991 N 845.473 0.80434 -1.35529 0
M  V30 8992 C 846.719 1.56385 -1.29118 0
M  V30 8993 C 847.052 1.9374 0.133536 0
M  V30 8994 O 846.327 1.6153 1.08344 0
M  V30 8995 C 846.61 2.85097 -2.19981 0
M  V30 8996 C 846.463 2.54204 -3.7108 0
M  V30 8997 C 847.782 3.86817 -2.09907 0
M  V30 8998 H 844.901 0.567382 -0.470368 0
M  V30 8999 H 847.543 0.925235 -1.6595 0
M  V30 9000 H 845.693 3.39594 -1.88701 0
M  V30 9001 H 847.365 2.05872 -4.12813 0
M  V30 9002 H 845.608 1.87364 -3.91251 0
M  V30 9003 H 846.279 3.46068 -4.30048 0
M  V30 9004 H 848.755 3.41725 -2.37409 0
M  V30 9005 H 847.631 4.7465 -2.75678 0
M  V30 9006 H 847.892 4.28663 -1.08171 0
M  V30 9007 N 846.951 1.19563 1.02676 0
M  V30 9008 C 847.914 0.937182 2.09164 0
M  V30 9009 C 848.914 -0.0831927 1.60585 0
M  V30 9010 O 850.104 0.15178 1.73538 0
M  V30 9011 C 847.236 0.408912 3.38439 0
M  V30 9012 H 848.429 1.88164 2.33526 0
M  V30 9013 H 845.982 1.00959 1.19319 0
M  V30 9014 H 846.717 -0.541497 3.19747 0
M  V30 9015 H 846.502 1.14464 3.7502 0
M  V30 9016 H 847.992 0.247242 4.16867 0
M  V30 9017 N 848.429 -1.21819 0.999893 0
M  V30 9018 C 849.675 -1.91035 0.680701 0
M  V30 9019 C 850.008 -1.77582 -0.786021 0
M  V30 9020 O 849.283 -1.14917 -1.56921 0
M  V30 9021 C 849.566 -3.43013 1.0961 0
M  V30 9022 C 849.419 -3.65481 2.6219 0
M  V30 9023 C 850.738 -4.35204 0.654616 0
M  V30 9024 H 847.857 -0.693748 0.248763 0
M  V30 9025 H 850.499 -1.43555 1.24466 0
M  V30 9026 H 848.649 -3.83581 0.616253 0
M  V30 9027 H 850.321 -3.34273 3.17899 0
M  V30 9028 H 848.564 -3.09522 3.03938 0
M  V30 9029 H 849.235 -4.71945 2.86307 0
M  V30 9030 H 851.711 -4.0219 1.06688 0
M  V30 9031 H 850.587 -5.40198 0.973492 0
M  V30 9032 H 850.848 -4.3986 -0.444458 0
M  V30 9033 N 849.908 -0.773975 -1.37286 0
M  V30 9034 C 851.148 -0.344505 -2.01476 0
M  V30 9035 C 851.512 1.05966 -1.6011 0
M  V30 9036 O 852.713 1.58937 -2.16778 0
M  V30 9037 C 850.984 -0.485816 -3.54083 0
M  V30 9038 S 852.543 -0.141939 -4.3857 0
M  V30 9039 H 849.361 -0.13243 -0.698558 0
M  V30 9040 H 851.963 -1.00908 -1.67445 0
M  V30 9041 H 850.667 -1.50835 -3.81677 0
M  V30 9042 H 850.198 0.195232 -3.92915 0
M  V30 9043 H 852.213 1.06177 -4.84707 0
M  V30 9044 N 851.386 1.48609 -0.524698 0
M  V30 9045 C 852.333 2.29539 0.240956 0
M  V30 9046 C 853.303 1.37033 0.938681 0
M  V30 9047 O 854.488 1.65996 0.940737 0
M  V30 9048 C 851.628 3.20278 1.28514 0
M  V30 9049 C 850.741 4.27858 0.596798 0
M  V30 9050 C 849.876 5.05784 1.62346 0
M  V30 9051 C 848.915 6.05173 0.918287 0
M  V30 9052 N 848.052 6.76176 1.89025 0
M  V30 9053 H 852.892 2.945 -0.455368 0
M  V30 9054 H 850.429 1.45188 -0.236403 0
M  V30 9055 H 852.387 3.71281 1.90279 0
M  V30 9056 H 851.017 2.57251 1.94992 0
M  V30 9057 H 850.069 3.80162 -0.134668 0
M  V30 9058 H 851.381 4.98782 0.0428506 0
M  V30 9059 H 850.535 5.60775 2.31553 0
M  V30 9060 H 849.274 4.34687 2.2113 0
M  V30 9061 H 848.279 5.49391 0.21212 0
M  V30 9062 H 849.504 6.78265 0.336633 0
M  V30 9063 H 847.45 6.07834 2.46726 0
M  V30 9064 H 847.367 7.43157 1.3876 0
M  V30 9065 H 848.635 7.35759 2.57446 0
M  V30 9066 N 852.864 0.259585 1.55447 0
M  V30 9067 C 854.104 -0.362989 2.01151 0
M  V30 9068 C 854.468 -1.54201 1.14394 0
M  V30 9069 O 855.669 -2.23318 1.49608 0
M  V30 9070 C 853.94 -0.750399 3.49434 0
M  V30 9071 S 855.499 -1.3617 4.17137 0
M  V30 9072 H 852.317 -0.11365 0.701858 0
M  V30 9073 H 854.919 0.377788 1.91815 0
M  V30 9074 H 853.623 0.116807 4.10234 0
M  V30 9075 H 853.154 -1.52303 3.62722 0
M  V30 9076 H 855.169 -2.65059 4.19474 0
M  V30 9077 N 854.342 -1.57594 -0.0133615 0
M  V30 9078 C 855.29 -2.08682 -1.02736 0
M  V30 9079 C 856.284 -1.00391 -1.36448 0
M  V30 9080 O 857.49 -1.18868 -1.35168 0
M  V30 9081 H 853.865 -0.666158 -0.34891 0
M  V30 9082 H 855.836 -2.9289 -0.570815 0
M  V30 9083 C 854.585 -2.5945 -2.31476 0
M  V30 9084 H 853.908 -3.42401 -2.06401 0
M  V30 9085 H 855.348 -2.98888 -3.00735 0
M  V30 9086 C 853.807 -1.50266 -3.01533 0
M  V30 9087 O 854.337 -0.877875 -3.9199 0
M  V30 9088 N 852.543 -1.23336 -2.63129 0
M  V30 9089 H 852.09 -1.74327 -1.89652 0
M  V30 9090 H 852.048 -0.504987 -3.10318 0
M  V30 9091 N 855.82 0.285905 -1.54985 0
M  V30 9092 C 856.73 1.37534 -1.90057 0
M  V30 9093 C 857.746 1.54707 -0.796348 0
M  V30 9094 O 858.922 1.69082 -1.09423 0
M  V30 9095 C 855.987 2.7167 -2.15398 0
M  V30 9096 C 855.048 2.63354 -3.39033 0
M  V30 9097 C 854.281 3.91093 -3.63155 0
M  V30 9098 O 854.504 4.91169 -2.90015 0
M  V30 9099 O 853.438 3.92075 -4.56685 0
M  V30 9100 H 857.264 1.10791 -2.8277 0
M  V30 9101 H 854.849 0.483303 -1.41367 0
M  V30 9102 H 856.731 3.51006 -2.33179 0
M  V30 9103 H 855.406 2.98226 -1.25868 0
M  V30 9104 H 854.313 1.82438 -3.26599 0
M  V30 9105 H 855.646 2.41749 -4.2874 0
M  V30 9106 N 857.298 1.47698 0.54982 0
M  V30 9107 C 858.23 1.56806 1.67166 0
M  V30 9108 C 859.243 0.453709 1.5635 0
M  V30 9109 O 860.432 0.723663 1.63173 0
M  V30 9110 C 857.532 1.4632 3.05686 0
M  V30 9111 C 856.705 2.72452 3.42182 0
M  V30 9112 C 855.764 2.55698 4.59897 0
M  V30 9113 O 854.79 3.29534 4.64108 0
M  V30 9114 N 855.992 1.64009 5.56849 0
M  V30 9115 H 858.757 2.53545 1.59797 0
M  V30 9116 H 856.318 1.44171 0.736635 0
M  V30 9117 H 858.31 1.32835 3.82279 0
M  V30 9118 H 856.88 0.57634 3.07241 0
M  V30 9119 H 856.1 3.00644 2.54964 0
M  V30 9120 H 857.388 3.56172 3.63344 0
M  V30 9121 H 856.786 1.03186 5.5621 0
M  V30 9122 H 855.343 1.56473 6.3274 0
M  V30 9123 N 858.776 -0.797141 1.35954 0
M  V30 9124 C 860.024 -1.55161 1.29497 0
M  V30 9125 C 860.345 -1.94582 -0.127659 0
M  V30 9126 O 859.615 -1.64343 -1.06622 0
M  V30 9127 H 858.195 -0.575413 0.47635 0
M  V30 9128 H 860.857 -0.950282 1.70164 0
M  V30 9129 H 859.953 -2.46272 1.9172 0
M  V30 9130 N 860.254 -1.20106 -1.0204 0
M  V30 9131 C 861.164 -0.962051 -2.13967 0
M  V30 9132 C 862.18 0.0808053 -1.73812 0
M  V30 9133 O 863.356 -0.105774 -2.01122 0
M  V30 9134 C 860.421 -0.513108 -3.42882 0
M  V30 9135 C 859.482 -1.62636 -3.97301 0
M  V30 9136 C 858.715 -1.19875 -5.20063 0
M  V30 9137 O 858.938 -0.0658423 -5.70362 0
M  V30 9138 O 857.872 -2.00467 -5.67536 0
M  V30 9139 H 861.698 -1.8991 -2.36998 0
M  V30 9140 H 859.283 -0.984608 -1.12365 0
M  V30 9141 H 861.165 -0.271797 -4.20523 0
M  V30 9142 H 859.84 0.395402 -3.21276 0
M  V30 9143 H 858.747 -1.92192 -3.20957 0
M  V30 9144 H 860.08 -2.51174 -4.23288 0
M  V30 9145 N 861.732 1.21287 -1.00634 0
M  V30 9146 C 862.979 1.90389 -0.6898 0
M  V30 9147 C 863.307 1.78193 0.779574 0
M  V30 9148 O 862.562 1.15358 1.58085 0
M  V30 9149 C 862.861 3.41374 -1.05824 0
M  V30 9150 C 862.527 3.73766 -2.5221 0
M  V30 9151 C 861.189 3.82317 -2.92211 0
M  V30 9152 C 863.541 3.88871 -3.47028 0
M  V30 9153 C 860.869 4.03423 -4.2599 0
M  V30 9154 C 863.221 4.11484 -4.80483 0
M  V30 9155 C 861.885 4.18263 -5.20204 0
M  V30 9156 H 861.155 0.696683 -0.252416 0
M  V30 9157 H 863.802 1.43769 -1.26502 0
M  V30 9158 H 862.107 3.8974 -0.401281 0
M  V30 9159 H 863.804 3.93118 -0.79116 0
M  V30 9160 H 860.394 3.67702 -2.20212 0
M  V30 9161 H 864.578 3.8163 -3.17289 0
M  V30 9162 H 859.834 4.06902 -4.56334 0
M  V30 9163 H 864.008 4.22115 -5.53888 0
M  V30 9164 H 861.635 4.34369 -6.23881 0
M  V30 9165 N 863.21 0.781244 1.36873 0
M  V30 9166 C 864.438 0.361566 2.03716 0
M  V30 9167 C 864.853 -1.01937 1.58916 0
M  V30 9168 O 864.21 -1.65237 0.774783 0
M  V30 9169 C 864.261 0.406391 3.59208 0
M  V30 9170 O 863.982 1.73286 4.02372 0
M  V30 9171 C 865.483 -0.0236894 4.43294 0
M  V30 9172 H 862.703 0.150133 0.653988 0
M  V30 9173 H 865.247 1.05781 1.75016 0
M  V30 9174 H 863.402 -0.241364 3.86647 0
M  V30 9175 H 863.816 1.67804 4.96933 0
M  V30 9176 H 865.29 0.0588205 5.51969 0
M  V30 9177 H 865.767 -1.07529 4.25833 0
M  V30 9178 H 866.373 0.59624 4.211 0
M  V30 9179 N 864.689 -1.48329 0.532571 0
M  V30 9180 C 865.936 -2.025 -0.000582356 0
M  V30 9181 C 866.264 -1.40942 -1.34036 0
M  V30 9182 O 865.519 -0.545545 -1.87942 0
M  V30 9183 C 865.818 -3.57 -0.168943 0
M  V30 9184 C 865.484 -4.37357 1.0968 0
M  V30 9185 C 864.146 -4.59033 1.44369 0
M  V30 9186 C 866.498 -4.83882 1.93669 0
M  V30 9187 C 863.826 -5.24481 2.62939 0
M  V30 9188 C 866.178 -5.50637 3.11419 0
M  V30 9189 C 864.842 -5.70551 3.46451 0
M  V30 9190 H 864.112 -0.741 -0.000213099 0
M  V30 9191 H 866.759 -1.78282 0.699117 0
M  V30 9192 H 865.064 -3.80072 -0.951429 0
M  V30 9193 H 866.761 -3.9654 -0.596422 0
M  V30 9194 H 863.351 -4.20748 0.816655 0
M  V30 9195 H 867.535 -4.66936 1.6818 0
M  V30 9196 H 862.791 -5.38096 2.9028 0
M  V30 9197 H 866.965 -5.85655 3.76803 0
M  V30 9198 H 864.592 -6.21037 4.38425 0
M  V30 9199 N 866.167 -0.267825 -1.55308 0
M  V30 9200 C 867.407 0.352316 -2.01341 0
M  V30 9201 C 867.771 1.53593 -1.1521 0
M  V30 9202 O 868.972 2.22521 -1.50791 0
M  V30 9203 C 867.243 0.731857 -3.49827 0
M  V30 9204 S 868.802 1.33956 -4.17853 0
M  V30 9205 H 865.62 0.109927 -0.702451 0
M  V30 9206 H 868.222 -0.387955 -1.91612 0
M  V30 9207 H 866.926 -0.138561 -4.10166 0
M  V30 9208 H 866.457 1.50378 -3.63525 0
M  V30 9209 H 868.472 2.62831 -4.20874 0
M  V30 9210 N 867.645 1.57599 0.00500368 0
M  V30 9211 C 868.555 2.11532 1.01446 0
M  V30 9212 C 869.571 1.05941 1.3803 0
M  V30 9213 O 870.747 1.37815 1.46864 0
M  V30 9214 C 867.812 2.60382 2.28915 0
M  V30 9215 C 866.873 3.80554 1.98689 0
M  V30 9216 C 866.106 4.27064 3.20081 0
M  V30 9217 O 866.329 3.72939 4.31593 0
M  V30 9218 O 865.263 5.1927 3.04371 0
M  V30 9219 H 869.089 2.97993 0.586011 0
M  V30 9220 H 866.674 1.47718 0.223519 0
M  V30 9221 H 868.556 2.92024 3.03809 0
M  V30 9222 H 867.231 1.77022 2.71007 0
M  V30 9223 H 866.138 3.53893 1.21286 0
M  V30 9224 H 867.471 4.64972 1.61437 0
M  V30 9225 N 869.123 -0.277682 1.55134 0
M  V30 9226 C 870.4 -1.0309 1.66228 0
M  V30 9227 C 870.78 -2.0445 0.525701 0
M  V30 9228 O 870.128 -2.23512 -0.474816 0
M  V30 9229 C 870.338 -1.6919 3.05247 0
M  V30 9230 C 871.686 -2.20526 3.62841 0
M  V30 9231 O 872.71 -1.79185 3.07849 0
M  V30 9232 O 871.569 -2.96342 4.59177 0
M  V30 9233 H 868.663 -0.4779 0.674937 0
M  V30 9234 H 871.209 -0.273912 1.67475 0
M  V30 9235 H 869.981 -0.957163 3.79413 0
M  V30 9236 H 869.604 -2.51587 3.07879 0
M  V30 9237 N 870.601 -1.47988 -0.541979 0
M  V30 9238 C 871.534 -1.56172 -1.66389 0
M  V30 9239 C 872.512 -0.412879 -1.57271 0
M  V30 9240 O 873.696 -0.622816 -1.77914 0
M  V30 9241 C 870.823 -1.47851 -3.04726 0
M  V30 9242 C 869.869 -2.67428 -3.32242 0
M  V30 9243 S 870.702 -4.29502 -3.19825 0
M  V30 9244 C 871.858 -4.2376 -4.60628 0
M  V30 9245 H 872.091 -2.51086 -1.59195 0
M  V30 9246 H 869.624 -1.36373 -0.724005 0
M  V30 9247 H 871.582 -1.43738 -3.84512 0
M  V30 9248 H 870.243 -0.542958 -3.09372 0
M  V30 9249 H 869.436 -2.57711 -4.33129 0
M  V30 9250 H 869.038 -2.68743 -2.60103 0
M  V30 9251 H 871.33 -3.92953 -5.51901 0
M  V30 9252 H 872.273 -5.24786 -4.75401 0
M  V30 9253 H 872.681 -3.54398 -4.39389 0
M  V30 9254 N 872.079 0.78992 -1.36375 0
M  V30 9255 C 873.042 1.88414 -1.30509 0
M  V30 9256 C 874.042 1.59384 -0.2129 0
M  V30 9257 O 875.232 1.67805 -0.467651 0
M  V30 9258 C 872.364 3.25188 -1.02302 0
M  V30 9259 H 873.557 1.95031 -2.27822 0
M  V30 9260 H 871.11 0.987664 -1.2114 0
M  V30 9261 H 871.845 3.24254 -0.0544486 0
M  V30 9262 H 871.63 3.47647 -1.81338 0
M  V30 9263 H 873.12 4.05252 -1.00801 0
M  V30 9264 N 873.557 1.20646 1.01402 0
M  V30 9265 C 874.52 0.959314 2.08158 0
M  V30 9266 C 875.52 -0.0661558 1.60664 0
M  V30 9267 O 876.71 0.170177 1.73367 0
M  V30 9268 C 873.842 0.444785 3.37986 0
M  V30 9269 H 875.035 1.90631 2.31517 0
M  V30 9270 H 872.588 1.02219 1.18241 0
M  V30 9271 H 873.323 -0.507553 3.20304 0
M  V30 9272 H 873.108 1.18435 3.73785 0
M  V30 9273 H 874.598 0.291443 4.16582 0
M  V30 9274 N 875.035 -1.20752 1.01276 0
M  V30 9275 C 875.967 -2.22798 0.537917 0
M  V30 9276 C 876.98 -1.5836 -0.377638 0
M  V30 9277 O 878.169 -1.77624 -0.176599 0
M  V30 9278 C 875.269 -3.38068 -0.237364 0
M  V30 9279 C 874.442 -4.32095 0.679161 0
M  V30 9280 C 873.501 -5.26178 -0.0478676 0
M  V30 9281 O 872.527 -5.66305 0.573366 0
M  V30 9282 N 873.729 -5.65201 -1.32396 0
M  V30 9283 H 876.494 -2.64166 1.4155 0
M  V30 9284 H 874.055 -1.35254 0.889826 0
M  V30 9285 H 876.047 -3.98009 -0.73288 0
M  V30 9286 H 874.617 -2.95622 -1.0162 0
M  V30 9287 H 873.837 -3.70179 1.35505 0
M  V30 9288 H 875.125 -4.91842 1.30263 0
M  V30 9289 H 874.523 -5.34606 -1.84968 0
M  V30 9290 H 873.08 -6.27468 -1.76428 0
M  V30 9291 N 876.513 -0.788492 -1.36457 0
M  V30 9292 C 877.759 -0.360995 -1.99561 0
M  V30 9293 C 878.092 1.06433 -1.62437 0
M  V30 9294 O 877.367 1.7352 -0.878705 0
M  V30 9295 C 877.65 -0.523735 -3.56271 0
M  V30 9296 C 877.503 -1.99268 -4.03252 0
M  V30 9297 C 878.822 0.0617908 -4.40057 0
M  V30 9298 H 875.941 -0.13264 -0.724966 0
M  V30 9299 H 878.583 -0.994659 -1.61884 0
M  V30 9300 H 876.733 0.0156979 -3.88497 0
M  V30 9301 H 878.405 -2.59311 -3.81518 0
M  V30 9302 H 876.648 -2.49561 -3.54826 0
M  V30 9303 H 877.319 -2.05752 -5.12221 0
M  V30 9304 H 879.795 -0.398674 -4.14186 0
M  V30 9305 H 878.671 -0.0821089 -5.48839 0
M  V30 9306 H 878.932 1.15381 -4.26778 0
M  V30 9307 N 877.991 1.48044 -0.54043 0
M  V30 9308 C 879.239 2.02097 -0.0101367 0
M  V30 9309 C 879.56 1.41881 1.33771 0
M  V30 9310 O 878.83 0.587923 1.8687 0
M  V30 9311 H 877.41 0.747 -0.000758716 0
M  V30 9312 H 880.072 1.81639 -0.706634 0
M  V30 9313 H 879.168 3.11969 0.0904474 0
M  V30 9314 N 879.47 0.276058 1.55163 0
M  V30 9315 C 880.716 -0.340959 1.99913 0
M  V30 9316 C 881.049 -1.55434 1.16422 0
M  V30 9317 O 880.324 -1.93081 0.234517 0
M  V30 9318 C 880.607 -0.722211 3.52783 0
M  V30 9319 C 880.46 0.498575 4.47028 0
M  V30 9320 C 881.779 -1.5583 4.11589 0
M  V30 9321 H 878.898 -0.122455 0.726756 0
M  V30 9322 H 881.54 0.38319 1.86096 0
M  V30 9323 H 879.69 -1.33919 3.64689 0
M  V30 9324 H 881.362 1.13713 4.47065 0
M  V30 9325 H 879.605 1.13646 4.18649 0
M  V30 9326 H 880.276 0.188041 5.5168 0
M  V30 9327 H 882.752 -1.03722 4.02965 0
M  V30 9328 H 881.628 -1.79387 5.1876 0
M  V30 9329 H 881.889 -2.53963 3.61877 0
M  V30 9330 N 880.948 -1.576 0.00335426 0
M  V30 9331 C 882.173 -1.95398 -0.695311 0
M  V30 9332 C 882.598 -0.878476 -1.66326 0
M  V30 9333 O 881.956 0.163086 -1.80565 0
M  V30 9334 C 882.004 -3.32293 -1.40049 0
M  V30 9335 O 881.108 -3.26834 -2.51502 0
M  V30 9336 H 880.449 -0.637796 -0.184694 0
M  V30 9337 H 882.979 -2.04519 0.057543 0
M  V30 9338 H 882.989 -3.67936 -1.76316 0
M  V30 9339 H 881.664 -4.10123 -0.690803 0
M  V30 9340 H 880.241 -3.02872 -2.17539 0
M  V30 9341 N 882.426 0.269451 -1.5528 0
M  V30 9342 C 883.675 0.998381 -1.75258 0
M  V30 9343 C 883.988 1.87321 -0.563034 0
M  V30 9344 O 885.194 2.63719 -0.645313 0
M  V30 9345 C 883.65 1.82505 -3.10193 0
M  V30 9346 C 883.258 0.99871 -4.36726 0
M  V30 9347 C 885.002 2.54807 -3.3952 0
M  V30 9348 C 882.909 1.81997 -5.627 0
M  V30 9349 H 881.839 0.376488 -0.653278 0
M  V30 9350 H 884.49 0.253909 -1.81735 0
M  V30 9351 H 882.872 2.61061 -2.97763 0
M  V30 9352 H 884.046 0.257064 -4.60082 0
M  V30 9353 H 882.361 0.390074 -4.14569 0
M  V30 9354 H 884.958 3.16662 -4.30847 0
M  V30 9355 H 885.301 3.25273 -2.59813 0
M  V30 9356 H 885.834 1.83278 -3.53064 0
M  V30 9357 H 882.573 1.15945 -6.45164 0
M  V30 9358 H 882.093 2.53749 -5.43481 0
M  V30 9359 H 883.772 2.39274 -6.0113 0
M  V30 9360 N 883.904 1.48273 0.534124 0
M  V30 9361 C 884.836 1.5857 1.65494 0
M  V30 9362 C 885.849 0.470266 1.5586 0
M  V30 9363 O 887.038 0.740928 1.62396 0
M  V30 9364 C 884.138 1.49554 3.04117 0
M  V30 9365 C 883.311 2.76066 3.39273 0
M  V30 9366 C 882.37 2.60562 4.57159 0
M  V30 9367 O 881.396 3.34438 4.60587 0
M  V30 9368 N 882.598 1.69906 5.55079 0
M  V30 9369 H 885.363 2.55226 1.57099 0
M  V30 9370 H 882.924 1.44944 0.721303 0
M  V30 9371 H 884.916 1.36882 3.80848 0
M  V30 9372 H 883.486 0.608895 3.06613 0
M  V30 9373 H 882.706 3.03332 2.51761 0
M  V30 9374 H 883.994 3.60006 3.59546 0
M  V30 9375 H 883.392 1.09079 5.55084 0
M  V30 9376 H 881.949 1.63175 6.31044 0
M  V30 9377 N 885.382 -0.782676 1.36792 0
M  V30 9378 C 886.345 -1.8772 1.31507 0
M  V30 9379 C 887.345 -1.59269 0.221349 0
M  V30 9380 O 888.535 -1.67555 0.476544 0
M  V30 9381 C 885.667 -3.24641 1.04025 0
M  V30 9382 H 886.86 -1.9382 2.28853 0
M  V30 9383 H 884.413 -0.981226 1.21662 0
M  V30 9384 H 885.148 -3.24221 0.0716439 0
M  V30 9385 H 884.933 -3.46681 1.8318 0
M  V30 9386 H 886.423 -4.04711 1.02949 0
M  V30 9387 N 886.86 -1.21182 -1.00761 0
M  V30 9388 C 888.106 -1.02898 -1.74756 0
M  V30 9389 C 888.439 0.436774 -1.89225 0
M  V30 9390 O 887.714 1.32415 -1.42466 0
M  V30 9391 C 887.997 -1.72372 -3.16164 0
M  V30 9392 C 887.85 -3.2645 -3.09435 0
M  V30 9393 C 889.169 -1.46415 -4.15031 0
M  V30 9394 H 886.288 -0.375214 -0.634337 0
M  V30 9395 H 888.93 -1.49321 -1.17487 0
M  V30 9396 H 887.08 -1.32906 -3.65059 0
M  V30 9397 H 888.752 -3.75269 -2.68274 0
M  V30 9398 H 886.995 -3.56889 -2.46603 0
M  V30 9399 H 887.666 -3.70226 -4.09435 0
M  V30 9400 H 890.142 -1.80671 -3.7483 0
M  V30 9401 H 889.018 -1.97544 -5.12121 0
M  V30 9402 H 889.279 -0.39361 -4.40344 0
M  V30 9403 N 888.338 1.20213 -1.01915 0
M  V30 9404 C 889.584 1.89928 -0.711007 0
M  V30 9405 C 889.917 1.7881 0.75767 0
M  V30 9406 O 889.192 1.17399 1.55073 0
M  V30 9407 C 889.475 3.41225 -1.15053 0
M  V30 9408 C 889.328 3.61264 -2.67971 0
M  V30 9409 C 890.647 4.34108 -0.72377 0
M  V30 9410 H 887.766 0.689702 -0.259768 0
M  V30 9411 H 890.408 1.41557 -1.26734 0
M  V30 9412 H 888.558 3.82552 -0.677199 0
M  V30 9413 H 890.23 3.29173 -3.23176 0
M  V30 9414 H 888.473 3.04647 -3.08824 0
M  V30 9415 H 889.144 4.67331 -2.93779 0
M  V30 9416 H 891.62 4.00442 -1.13073 0
M  V30 9417 H 890.496 5.38581 -1.05931 0
M  V30 9418 H 890.757 4.40512 0.374424 0
M  V30 9419 N 889.816 0.795718 1.36037 0
M  V30 9420 C 890.779 0.204318 2.28287 0
M  V30 9421 C 891.779 -0.602017 1.49105 0
M  V30 9422 O 892.969 -0.422089 1.69009 0
M  V30 9423 C 890.101 -0.716431 3.33287 0
M  V30 9424 H 891.294 1.01781 2.821 0
M  V30 9425 H 888.847 0.565588 1.45708 0
M  V30 9426 H 889.582 -1.55403 2.84641 0
M  V30 9427 H 889.367 -0.140096 3.9185 0
M  V30 9428 H 890.857 -1.12488 4.02164 0
M  V30 9429 N 891.294 -1.47756 0.548274 0
M  V30 9430 C 892.543 -2.01691 0.0187961 0
M  V30 9431 C 892.856 -1.42894 -1.33569 0
M  V30 9432 O 894.062 -1.88438 -1.95457 0
M  V30 9433 C 892.518 -3.59896 -0.016847 0
M  V30 9434 C 892.126 -4.27683 1.33385 0
M  V30 9435 C 893.87 -4.21614 -0.494188 0
M  V30 9436 C 891.777 -5.7787 1.2578 0
M  V30 9437 H 890.707 -0.753993 0.00325648 0
M  V30 9438 H 893.358 -1.69838 0.694792 0
M  V30 9439 H 891.74 -3.88672 -0.758304 0
M  V30 9440 H 892.914 -4.10559 2.09232 0
M  V30 9441 H 891.229 -3.77915 1.7484 0
M  V30 9442 H 893.826 -5.3166 -0.569342 0
M  V30 9443 H 894.169 -3.88176 -1.50417 0
M  V30 9444 H 894.702 -3.97336 0.192138 0
M  V30 9445 H 891.441 -6.15912 2.2435 0
M  V30 9446 H 890.961 -5.97355 0.540997 0
M  V30 9447 H 892.64 -6.39897 0.956109 0
M  V30 9448 N 892.772 -0.284283 -1.55015 0
M  V30 9449 C 893.702 0.592663 -2.25853 0
M  V30 9450 C 894.683 1.15151 -1.25197 0
M  V30 9451 O 895.868 1.18395 -1.53936 0
M  V30 9452 C 892.998 1.77254 -2.98661 0
M  V30 9453 C 891.952 1.34482 -4.06323 0
M  V30 9454 C 891.278 2.60853 -4.66754 0
M  V30 9455 C 892.578 0.488288 -5.20013 0
M  V30 9456 H 894.272 0.00187041 -2.994 0
M  V30 9457 H 891.818 -0.000540402 -1.44 0
M  V30 9458 H 893.771 2.39199 -3.46932 0
M  V30 9459 H 892.495 2.38931 -2.22664 0
M  V30 9460 H 891.154 0.748519 -3.58877 0
M  V30 9461 H 890.802 3.20808 -3.87416 0
M  V30 9462 H 890.502 2.32942 -5.39455 0
M  V30 9463 H 892.026 3.23631 -5.1778 0
M  V30 9464 H 893.44 1.01298 -5.6428 0
M  V30 9465 H 891.837 0.303669 -5.99331 0
M  V30 9466 H 892.907 -0.490727 -4.8241 0
M  V30 9467 N 894.251 1.57596 -0.0117121 0
M  V30 9468 C 895.181 2.12188 0.9746 0
M  V30 9469 C 896.162 1.03379 1.35081 0
M  V30 9470 O 897.347 1.31123 1.4325 0
M  V30 9471 C 894.477 2.63477 2.26268 0
M  V30 9472 C 893.431 3.76917 2.02774 0
M  V30 9473 C 892.757 4.14566 3.37697 0
M  V30 9474 C 894.057 5.03715 1.38089 0
M  V30 9475 H 895.751 2.9485 0.520007 0
M  V30 9476 H 893.297 1.41836 0.248685 0
M  V30 9477 H 895.25 3.00299 2.95633 0
M  V30 9478 H 893.974 1.77953 2.73862 0
M  V30 9479 H 892.633 3.40507 1.35832 0
M  V30 9480 H 892.281 3.26048 3.83016 0
M  V30 9481 H 891.981 4.91 3.22789 0
M  V30 9482 H 893.505 4.53956 4.08358 0
M  V30 9483 H 894.919 5.38233 1.97428 0
M  V30 9484 H 893.316 5.85032 1.33634 0
M  V30 9485 H 894.386 4.83624 0.351575 0
M  V30 9486 N 895.729 -0.261212 1.5542 0
M  V30 9487 C 896.969 -0.998748 1.78338 0
M  V30 9488 C 897.333 -1.83064 0.578914 0
M  V30 9489 O 898.534 -2.59884 0.686575 0
M  V30 9490 C 896.805 -1.84828 3.05898 0
M  V30 9491 S 898.364 -2.64686 3.49981 0
M  V30 9492 H 895.182 -0.33619 0.626496 0
M  V30 9493 H 897.784 -0.26799 1.93655 0
M  V30 9494 H 896.488 -1.22658 3.91642 0
M  V30 9495 H 896.019 -2.62203 2.9328 0
M  V30 9496 H 898.034 -3.87299 3.10184 0
M  V30 9497 N 897.207 -1.48554 -0.526253 0
M  V30 9498 C 898.456 -1.56014 -1.27837 0
M  V30 9499 C 898.769 -0.240643 -1.94114 0
M  V30 9500 O 899.975 -0.193525 -2.70809 0
M  V30 9501 C 898.431 -2.75161 -2.31979 0
M  V30 9502 C 898.039 -4.13768 -1.71755 0
M  V30 9503 C 899.783 -2.91936 -3.08178 0
M  V30 9504 C 897.69 -5.24171 -2.7386 0
M  V30 9505 H 896.62 -0.58082 -0.480795 0
M  V30 9506 H 899.271 -1.74895 -0.555335 0
M  V30 9507 H 897.653 -2.49722 -3.07335 0
M  V30 9508 H 898.827 -4.49241 -1.02563 0
M  V30 9509 H 897.142 -4.02141 -1.08036 0
M  V30 9510 H 899.739 -3.71586 -3.84484 0
M  V30 9511 H 900.082 -2.01533 -3.64267 0
M  V30 9512 H 900.615 -3.17294 -2.39937 0
M  V30 9513 H 897.354 -6.16552 -2.22586 0
M  V30 9514 H 896.874 -4.93181 -3.41368 0
M  V30 9515 H 898.553 -5.52442 -3.36774 0
M  V30 9516 N 898.685 0.775411 -1.37205 0
M  V30 9517 C 899.615 1.90258 -1.35367 0
M  V30 9518 C 900.596 1.68634 -0.222864 0
M  V30 9519 O 901.781 1.89545 -0.422659 0
M  V30 9520 C 898.911 3.27488 -1.15623 0
M  V30 9521 C 897.865 3.63668 -2.25676 0
M  V30 9522 C 897.191 4.994 -1.91059 0
M  V30 9523 C 898.491 3.70797 -3.67841 0
M  V30 9524 H 900.185 1.92053 -2.29687 0
M  V30 9525 H 897.731 0.922597 -1.10563 0
M  V30 9526 H 899.684 4.05976 -1.12968 0
M  V30 9527 H 898.408 3.26117 -0.177573 0
M  V30 9528 H 897.067 2.87486 -2.2748 0
M  V30 9529 H 896.715 4.94565 -0.917324 0
M  V30 9530 H 896.415 5.24576 -2.64751 0
M  V30 9531 H 897.939 5.80291 -1.89985 0
M  V30 9532 H 899.353 4.39444 -3.68187 0
M  V30 9533 H 897.75 4.07468 -4.40556 0
M  V30 9534 H 898.82 2.71549 -4.01732 0
M  V30 9535 N 900.163 1.21714 1.00117 0
M  V30 9536 C 901.391 1.06278 1.77518 0
M  V30 9537 C 901.806 -0.387193 1.84787 0
M  V30 9538 O 901.163 -1.26854 1.31203 0
M  V30 9539 C 901.214 1.65795 3.21239 0
M  V30 9540 O 900.935 3.05119 3.14378 0
M  V30 9541 C 902.436 1.55521 4.15124 0
M  V30 9542 H 899.656 0.373013 0.557765 0
M  V30 9543 H 902.2 1.61133 1.25922 0
M  V30 9544 H 900.355 1.15022 3.69931 0
M  V30 9545 H 900.769 3.33643 4.04701 0
M  V30 9546 H 902.243 2.01902 5.13751 0
M  V30 9547 H 902.72 0.510307 4.36225 0
M  V30 9548 H 903.326 2.0556 3.72324 0
M  V30 9549 N 901.641 -1.19671 1.02551 0
M  V30 9550 C 902.89 -1.88591 0.715272 0
M  V30 9551 C 903.203 -1.80274 -0.758982 0
M  V30 9552 O 904.409 -2.44413 -1.18213 0
M  V30 9553 C 902.865 -3.38264 1.22905 0
M  V30 9554 C 902.473 -3.55146 2.73084 0
M  V30 9555 C 904.217 -4.12683 0.994649 0
M  V30 9556 C 902.124 -4.98693 3.17897 0
M  V30 9557 H 901.054 -0.706326 0.263857 0
M  V30 9558 H 903.705 -1.35322 1.23936 0
M  V30 9559 H 902.087 -3.9091 0.632892 0
M  V30 9560 H 903.261 -3.12845 3.38326 0
M  V30 9561 H 901.576 -2.94112 2.94766 0
M  V30 9562 H 904.173 -5.18536 1.30478 0
M  V30 9563 H 904.516 -4.16243 -0.0686466 0
M  V30 9564 H 905.049 -3.66164 1.55464 0
M  V30 9565 H 901.788 -5.00293 4.23542 0
M  V30 9566 H 901.308 -5.4177 2.57381 0
M  V30 9567 H 902.987 -5.67327 3.11045 0
M  V30 9568 N 903.119 -0.802921 -1.35613 0
M  V30 9569 C 904.347 -0.39393 -2.03115 0
M  V30 9570 C 904.762 0.993961 -1.60517 0
M  V30 9571 O 904.119 1.63984 -0.800973 0
M  V30 9572 C 904.17 -0.463486 -3.58516 0
M  V30 9573 O 903.891 -1.79666 -3.99565 0
M  V30 9574 C 905.392 -0.0468377 -4.43275 0
M  V30 9575 H 902.612 -0.160519 -0.651517 0
M  V30 9576 H 905.156 -1.08552 -1.73311 0
M  V30 9577 H 903.311 0.179821 -3.86982 0
M  V30 9578 H 903.725 -1.75688 -4.942 0
M  V30 9579 H 905.199 -0.146626 -5.51805 0
M  V30 9580 H 905.676 1.00741 -4.2749 0
M  V30 9581 H 906.282 -0.663158 -4.20098 0
M  V30 9582 N 904.597 1.47463 -0.556102 0
M  V30 9583 C 905.843 2.02775 -0.0316806 0
M  V30 9584 C 906.176 1.42967 1.3143 0
M  V30 9585 O 905.451 0.584847 1.85499 0
M  V30 9586 C 905.734 3.60046 0.0625742 0
M  V30 9587 C 905.587 4.30288 -1.31043 0
M  V30 9588 C 906.906 4.33195 0.776553 0
M  V30 9589 H 904.025 0.736886 -0.0129869 0
M  V30 9590 H 906.667 1.75904 -0.718177 0
M  V30 9591 H 904.817 3.83071 0.647231 0
M  V30 9592 H 906.489 4.18607 -1.9382 0
M  V30 9593 H 904.732 3.90685 -1.8854 0
M  V30 9594 H 905.403 5.38861 -1.1972 0
M  V30 9595 H 907.879 4.15156 0.280147 0
M  V30 9596 H 906.755 5.42869 0.81146 0
M  V30 9597 H 907.016 4.02336 1.83244 0
M  V30 9598 N 906.075 0.2925 1.54862 0
M  V30 9599 C 907.324 -0.319994 1.99146 0
M  V30 9600 C 907.637 -1.55658 1.18448 0
M  V30 9601 O 908.843 -2.24312 1.52959 0
M  V30 9602 C 907.299 -0.620665 3.54508 0
M  V30 9603 C 906.907 0.597098 4.44003 0
M  V30 9604 C 908.651 -1.19482 4.07338 0
M  V30 9605 C 906.558 0.270049 5.90783 0
M  V30 9606 H 905.488 -0.123342 0.743843 0
M  V30 9607 H 908.139 0.399876 1.7909 0
M  V30 9608 H 906.521 -1.3999 3.7043 0
M  V30 9609 H 907.695 1.37354 4.39853 0
M  V30 9610 H 906.01 1.0893 4.019 0
M  V30 9611 H 908.607 -1.45362 5.14562 0
M  V30 9612 H 908.95 -2.13435 3.57423 0
M  V30 9613 H 909.483 -0.477485 3.94924 0
M  V30 9614 H 906.222 1.17791 6.4483 0
M  V30 9615 H 905.742 -0.469292 5.97961 0
M  V30 9616 H 907.421 -0.131471 6.46866 0
M  V30 9617 N 907.553 -1.57587 0.0200696 0
M  V30 9618 C 908.781 -1.95718 -0.670964 0
M  V30 9619 C 909.196 -0.896081 -1.6618 0
M  V30 9620 O 908.553 0.123037 -1.82085 0
M  V30 9621 C 908.604 -3.33904 -1.38529 0
M  V30 9622 O 908.325 -4.35943 -0.434167 0
M  V30 9623 C 909.826 -3.86614 -2.16898 0
M  V30 9624 H 907.046 -0.644819 -0.185606 0
M  V30 9625 H 909.59 -2.04354 0.0771495 0
M  V30 9626 H 907.745 -3.26515 -2.08487 0
M  V30 9627 H 908.159 -5.16001 -0.940378 0
M  V30 9628 H 909.633 -4.85673 -2.62346 0
M  V30 9629 H 910.11 -3.20379 -3.00423 0
M  V30 9630 H 910.716 -3.97243 -1.51916 0
M  V30 9631 N 909.032 0.252966 -1.55557 0
M  V30 9632 C 909.962 1.31691 -1.9282 0
M  V30 9633 C 910.943 1.50516 -0.7924 0
M  V30 9634 O 912.128 1.63225 -1.05219 0
M  V30 9635 C 909.258 2.67281 -2.21762 0
M  V30 9636 C 908.212 2.6316 -3.37536 0
M  V30 9637 C 907.538 4.02488 -3.52005 0
M  V30 9638 C 908.838 2.20675 -4.73392 0
M  V30 9639 H 910.532 1.00751 -2.81939 0
M  V30 9640 H 908.078 0.483219 -1.3565 0
M  V30 9641 H 910.031 3.41842 -2.46419 0
M  V30 9642 H 908.755 2.99845 -1.29463 0
M  V30 9643 H 907.414 1.91057 -3.12878 0
M  V30 9644 H 907.062 4.32307 -2.57137 0
M  V30 9645 H 906.762 4.00621 -4.29857 0
M  V30 9646 H 908.286 4.78758 -3.78977 0
M  V30 9647 H 909.7 2.84965 -4.97461 0
M  V30 9648 H 908.097 2.29931 -5.54303 0
M  V30 9649 H 909.167 1.15831 -4.70862 0
M  V30 9650 N 910.51 1.48831 0.518367 0
M  V30 9651 C 911.44 1.67119 1.63075 0
M  V30 9652 C 912.421 0.519948 1.61958 0
M  V30 9653 O 913.606 0.753824 1.78972 0
M  V30 9654 C 910.736 1.72158 3.01627 0
M  V30 9655 C 909.69 2.86898 3.17606 0
M  V30 9656 C 909.016 2.77035 4.57335 0
M  V30 9657 C 910.316 4.28057 2.99274 0
M  V30 9658 H 912.01 2.60248 1.48025 0
M  V30 9659 H 909.556 1.2524 0.710694 0
M  V30 9660 H 911.509 1.83539 3.7933 0
M  V30 9661 H 910.233 0.756157 3.17726 0
M  V30 9662 H 908.892 2.75091 2.42323 0
M  V30 9663 H 908.54 1.78438 4.70286 0
M  V30 9664 H 908.24 3.54036 4.6897 0
M  V30 9665 H 909.764 2.904 5.37122 0
M  V30 9666 H 911.178 4.40636 3.6676 0
M  V30 9667 H 909.575 5.06145 3.22393 0
M  V30 9668 H 910.645 4.4371 1.95574 0
M  V30 9669 N 911.988 -0.768124 1.37614 0
M  V30 9670 C 913.237 -1.5221 1.32345 0
M  V30 9671 C 913.55 -1.95399 -0.0885761 0
M  V30 9672 O 914.756 -2.70216 -0.263752 0
M  V30 9673 C 913.212 -2.74872 2.32322 0
M  V30 9674 C 912.82 -2.38767 3.79071 0
M  V30 9675 C 914.564 -3.52805 2.36069 0
M  V30 9676 C 912.471 -3.57953 4.7077 0
M  V30 9677 H 911.401 -0.571461 0.491883 0
M  V30 9678 H 914.052 -0.841004 1.63093 0
M  V30 9679 H 912.434 -3.44889 1.94596 0
M  V30 9680 H 913.608 -1.7651 4.25654 0
M  V30 9681 H 911.923 -1.74 3.78303 0
M  V30 9682 H 914.52 -4.41397 3.01782 0
M  V30 9683 H 914.863 -3.92925 1.37535 0
M  V30 9684 H 915.396 -2.89788 2.72521 0
M  V30 9685 H 912.135 -3.22911 5.70446 0
M  V30 9686 H 911.655 -4.19302 4.28889 0
M  V30 9687 H 913.334 -4.2472 4.8808 0
M  V30 9688 N 913.466 -1.22244 -0.994698 0
M  V30 9689 C 914.713 -1.04591 -1.73398 0
M  V30 9690 C 915.041 0.419223 -1.89928 0
M  V30 9691 O 914.296 1.32714 -1.43824 0
M  V30 9692 C 914.595 -1.70014 -3.14372 0
M  V30 9693 C 914.261 -3.19903 -3.17762 0
M  V30 9694 C 912.923 -3.60803 -3.18394 0
M  V30 9695 C 915.275 -4.15851 -3.14194 0
M  V30 9696 C 912.603 -4.96135 -3.13157 0
M  V30 9697 C 914.955 -5.51157 -3.10498 0
M  V30 9698 C 913.619 -5.91439 -3.09445 0
M  V30 9699 H 912.889 -0.382725 -0.63451 0
M  V30 9700 H 915.536 -1.51981 -1.16508 0
M  V30 9701 H 913.841 -1.14945 -3.7456 0
M  V30 9702 H 915.538 -1.53848 -3.70313 0
M  V30 9703 H 912.128 -2.87336 -3.18019 0
M  V30 9704 H 916.312 -3.85272 -3.12857 0
M  V30 9705 H 911.568 -5.26578 -3.10685 0
M  V30 9706 H 915.742 -6.2523 -3.06692 0
M  V30 9707 H 913.369 -6.96271 -3.05141 0
M  V30 9708 N 914.944 1.19125 -1.03184 0
M  V30 9709 C 915.874 2.24675 -0.635889 0
M  V30 9710 C 916.855 1.66321 0.356565 0
M  V30 9711 O 918.04 1.92728 0.238625 0
M  V30 9712 C 915.17 3.47298 0.011069 0
M  V30 9713 C 914.124 4.18345 -0.903979 0
M  V30 9714 C 913.45 5.34561 -0.12197 0
M  V30 9715 C 914.75 4.72816 -2.21907 0
M  V30 9716 H 916.444 2.5805 -1.51825 0
M  V30 9717 H 913.99 1.24039 -0.73146 0
M  V30 9718 H 915.943 4.20333 0.299729 0
M  V30 9719 H 914.667 3.13131 0.928245 0
M  V30 9720 H 913.326 3.47196 -1.17688 0
M  V30 9721 H 912.974 4.9664 0.797334 0
M  V30 9722 H 912.674 5.83029 -0.731498 0
M  V30 9723 H 914.198 6.10391 0.159881 0
M  V30 9724 H 915.612 5.3759 -1.99173 0
M  V30 9725 H 914.009 5.31782 -2.78078 0
M  V30 9726 H 915.079 3.9072 -2.87168 0
M  V30 9727 N 916.422 0.810101 1.35185 0
M  V30 9728 C 917.838 0.494269 1.51754 0
M  V30 9729 C 918.038 -0.983907 1.75845 0
M  V30 9730 O 917.094 -1.76882 1.80191 0
M  V30 9731 C 918.407 1.34268 2.69059 0
M  V30 9732 C 919.955 1.33848 2.82938 0
M  V30 9733 C 920.43 2.17109 4.03271 0
M  V30 9734 N 921.921 2.14664 4.10456 0
M  V30 9735 C 922.656 2.75843 5.02691 0
M  V30 9736 N 922.152 3.45962 6.00235 0
M  V30 9737 N 923.945 2.65465 4.95464 0
M  V30 9738 H 916.096 1.76736 1.17805 0
M  V30 9739 H 918.359 0.752429 0.576676 0
M  V30 9740 H 918.065 2.39183 2.57845 0
M  V30 9741 H 917.939 0.998362 3.63748 0
M  V30 9742 H 920.326 0.29716 2.936 0
M  V30 9743 H 920.407 1.72269 1.89095 0
M  V30 9744 H 920.051 3.21283 3.93369 0
M  V30 9745 H 919.981 1.76046 4.96302 0
M  V30 9746 H 922.472 1.63648 3.40628 0
M  V30 9747 H 922.785 3.89922 6.67219 0
M  V30 9748 H 921.13 3.50067 6.00398 0
M  V30 9749 H 924.321 2.1027 4.18215 0
M  V30 9750 H 924.494 3.13433 5.67154 0
M  V30 9751 N 917.9 -1.47166 0.563914 0
M  V30 9752 C 919.316 -1.58018 0.224173 0
M  V30 9753 C 919.516 -1.56163 -1.27339 0
M  V30 9754 O 918.572 -1.4686 -2.05398 0
M  V30 9755 C 919.885 -2.88236 0.856762 0
M  V30 9756 C 921.433 -3.01833 0.82861 0
M  V30 9757 C 921.908 -4.34761 1.44039 0
M  V30 9758 N 923.399 -4.41413 1.40388 0
M  V30 9759 C 924.134 -5.42845 1.84681 0
M  V30 9760 N 923.63 -6.51052 2.3686 0
M  V30 9761 N 925.423 -5.33931 1.75711 0
M  V30 9762 H 917.574 -1.46615 1.53681 0
M  V30 9763 H 919.837 -0.698195 0.64127 0
M  V30 9764 H 919.543 -2.95349 1.90949 0
M  V30 9765 H 919.417 -3.75537 0.353766 0
M  V30 9766 H 921.804 -2.94312 -0.215451 0
M  V30 9767 H 921.885 -2.16056 1.36943 0
M  V30 9768 H 921.529 -4.43037 2.48355 0
M  V30 9769 H 921.459 -5.1928 0.874953 0
M  V30 9770 H 923.95 -3.63811 1.02227 0
M  V30 9771 H 924.263 -7.24633 2.68564 0
M  V30 9772 H 922.608 -6.51924 2.40875 0
M  V30 9773 H 925.799 -4.48295 1.34718 0
M  V30 9774 H 925.972 -6.12841 2.10547 0
M  V30 9775 N 919.378 -0.300708 -1.54705 0
M  V30 9776 C 920.794 0.0526874 -1.59513 0
M  V30 9777 C 920.994 1.52444 -1.31769 0
M  V30 9778 O 920.05 2.27716 -1.09096 0
M  V30 9779 C 921.363 -0.344989 -2.98714 0
M  V30 9780 C 922.911 -0.29373 -3.11619 0
M  V30 9781 C 923.386 -0.666225 -4.53129 0
M  V30 9782 N 924.877 -0.618749 -4.59049 0
M  V30 9783 C 925.612 -0.879447 -5.66616 0
M  V30 9784 N 925.108 -1.2061 -6.82221 0
M  V30 9785 N 926.901 -0.806528 -5.56284 0
M  V30 9786 H 919.052 -1.25988 -1.71 0
M  V30 9787 H 921.315 -0.510758 -0.798643 0
M  V30 9788 H 921.021 -1.36953 -3.2394 0
M  V30 9789 H 920.895 0.301507 -3.75993 0
M  V30 9790 H 923.282 0.72156 -2.86142 0
M  V30 9791 H 923.363 -0.974844 -2.36496 0
M  V30 9792 H 923.007 -1.67932 -4.79334 0
M  V30 9793 H 922.937 0.0369575 -5.26587 0
M  V30 9794 H 925.428 -0.377202 -3.76013 0
M  V30 9795 H 925.741 -1.391 -7.60178 0
M  V30 9796 H 924.086 -1.24413 -6.83774 0
M  V30 9797 H 927.277 -0.550993 -4.64846 0
M  V30 9798 H 927.45 -1.01307 -6.40032 0
M  V30 9799 N 920.856 1.57574 -0.0284266 0
M  V30 9800 C 921.786 2.1321 0.952039 0
M  V30 9801 C 922.767 1.04806 1.33977 0
M  V30 9802 O 923.952 1.32635 1.41851 0
M  V30 9803 C 921.082 2.65862 2.23461 0
M  V30 9804 C 920.036 3.79047 1.98765 0
M  V30 9805 C 919.362 4.18124 3.33281 0
M  V30 9806 C 920.662 5.05151 1.32739 0
M  V30 9807 H 922.356 2.95385 0.488705 0
M  V30 9808 H 919.902 1.42092 0.233628 0
M  V30 9809 H 921.855 3.03417 2.92431 0
M  V30 9810 H 920.579 1.80848 2.71959 0
M  V30 9811 H 919.238 3.41929 1.32213 0
M  V30 9812 H 918.886 3.30092 3.79537 0
M  V30 9813 H 918.586 4.94396 3.17563 0
M  V30 9814 H 920.11 4.58262 4.0352 0
M  V30 9815 H 921.524 5.40297 1.91708 0
M  V30 9816 H 919.921 5.86416 1.27421 0
M  V30 9817 H 920.991 4.83969 0.300261 0
M  V30 9818 N 922.334 -0.244713 1.55689 0
M  V30 9819 C 923.75 -0.593331 1.48161 0
M  V30 9820 C 923.95 -1.88234 0.719047 0
M  V30 9821 O 923.006 -2.51266 0.249292 0
M  V30 9822 C 924.319 -0.694032 2.92581 0
M  V30 9823 C 925.867 -0.786213 3.02965 0
M  V30 9824 C 926.342 -0.918457 4.48696 0
M  V30 9825 N 927.833 -0.983272 4.52643 0
M  V30 9826 C 928.568 -1.1049 5.62654 0
M  V30 9827 N 928.064 -1.19193 6.8247 0
M  V30 9828 N 929.857 -1.13823 5.50455 0
M  V30 9829 H 922.008 0.601446 2.03707 0
M  V30 9830 H 924.271 0.207894 0.924924 0
M  V30 9831 H 923.977 0.183133 3.51223 0
M  V30 9832 H 923.851 -1.56525 3.4319 0
M  V30 9833 H 926.238 -1.65383 2.44402 0
M  V30 9834 H 926.319 0.110202 2.55563 0
M  V30 9835 H 925.963 -0.0553881 5.0787 0
M  V30 9836 H 925.893 -1.82994 4.93782 0
M  V30 9837 H 928.384 -0.927269 3.66347 0
M  V30 9838 H 928.697 -1.28387 7.62061 0
M  V30 9839 H 927.042 -1.16147 6.85226 0
M  V30 9840 H 930.233 -1.06673 4.55783 0
M  V30 9841 H 930.406 -1.22957 6.36228 0
M  V30 9842 N 923.813 -1.49104 -0.510467 0
M  V30 9843 C 924.76 -1.65074 -1.61305 0
M  V30 9844 C 925.73 -0.492362 -1.58635 0
M  V30 9845 O 926.915 -0.718241 -1.76765 0
M  V30 9846 C 924.055 -1.71457 -2.99493 0
M  V30 9847 C 923.168 -2.98536 -3.12251 0
M  V30 9848 C 922.303 -2.95957 -4.41116 0
M  V30 9849 C 921.342 -4.17655 -4.47471 0
M  V30 9850 N 920.479 -4.13041 -5.67751 0
M  V30 9851 H 925.319 -2.59222 -1.46996 0
M  V30 9852 H 922.856 -1.28535 -0.715346 0
M  V30 9853 H 924.814 -1.7314 -3.79577 0
M  V30 9854 H 923.444 -0.807834 -3.12528 0
M  V30 9855 H 922.496 -3.06509 -2.25292 0
M  V30 9856 H 923.808 -3.88527 -3.12807 0
M  V30 9857 H 922.962 -2.96149 -5.2951 0
M  V30 9858 H 921.701 -2.03728 -4.4311 0
M  V30 9859 H 920.706 -4.17717 -3.57481 0
M  V30 9860 H 921.931 -5.11066 -4.472 0
M  V30 9861 H 919.877 -3.23643 -5.70606 0
M  V30 9862 H 919.794 -4.96757 -5.69884 0
M  V30 9863 H 921.062 -4.17322 -6.58379 0
M  V30 9864 N 925.291 0.760815 -1.38019 0
M  V30 9865 C 926.223 1.88387 -1.30549 0
M  V30 9866 C 927.236 1.61319 -0.219119 0
M  V30 9867 O 928.425 1.72033 -0.476122 0
M  V30 9868 C 925.525 3.23863 -0.998291 0
M  V30 9869 C 924.698 3.78492 -2.19232 0
M  V30 9870 C 923.757 4.92468 -1.85368 0
M  V30 9871 O 922.783 5.0748 -2.57785 0
M  V30 9872 N 923.985 5.74901 -0.804319 0
M  V30 9873 H 926.75 1.95308 -2.27322 0
M  V30 9874 H 924.311 0.940423 -1.31786 0
M  V30 9875 H 926.303 3.97644 -0.7524 0
M  V30 9876 H 924.873 3.12374 -0.11877 0
M  V30 9877 H 924.093 2.96361 -2.5993 0
M  V30 9878 H 925.381 4.11722 -2.98935 0
M  V30 9879 H 924.779 5.65333 -0.203628 0
M  V30 9880 H 923.336 6.48861 -0.618301 0
M  V30 9881 N 926.769 1.22769 0.988202 0
M  V30 9882 C 927.732 1.00325 2.06076 0
M  V30 9883 C 928.732 -0.0320618 1.60768 0
M  V30 9884 O 929.922 0.206912 1.72967 0
M  V30 9885 C 927.054 0.516376 3.36966 0
M  V30 9886 H 928.247 1.95499 2.27421 0
M  V30 9887 H 925.8 1.04704 1.16047 0
M  V30 9888 H 926.535 -0.439498 3.21308 0
M  V30 9889 H 926.32 1.26337 3.71189 0
M  V30 9890 H 927.81 0.37974 4.1587 0
M  V30 9891 N 928.247 -1.18576 1.03814 0
M  V30 9892 C 929.663 -1.4051 0.756909 0
M  V30 9893 C 929.863 -1.9057 -0.654631 0
M  V30 9894 O 928.919 -2.0884 -1.41922 0
M  V30 9895 C 930.232 -2.4081 1.80087 0
M  V30 9896 C 931.78 -2.54541 1.82148 0
M  V30 9897 C 932.255 -3.58102 2.85529 0
M  V30 9898 N 933.746 -3.65607 2.84404 0
M  V30 9899 C 934.481 -4.45458 3.61047 0
M  V30 9900 N 933.977 -5.28937 4.47434 0
M  V30 9901 N 935.77 -4.40196 3.49548 0
M  V30 9902 H 927.921 -0.844075 1.94908 0
M  V30 9903 H 930.184 -0.433287 0.843188 0
M  V30 9904 H 929.89 -2.1107 2.81322 0
M  V30 9905 H 929.764 -3.4012 1.63089 0
M  V30 9906 H 932.151 -2.83598 0.815855 0
M  V30 9907 H 932.232 -1.55352 2.03223 0
M  V30 9908 H 931.876 -3.29786 3.86269 0
M  V30 9909 H 931.806 -4.56963 2.6171 0
M  V30 9910 H 934.297 -3.05994 2.21756 0
M  V30 9911 H 934.61 -5.8701 5.02632 0
M  V30 9912 H 932.955 -5.28366 4.51503 0
M  V30 9913 H 936.146 -3.74026 2.81464 0
M  V30 9914 H 936.319 -5.02186 4.09528 0
M  V30 9915 N 929.725 -0.817259 -1.34754 0
M  V30 9916 C 930.688 -0.240611 -2.27934 0
M  V30 9917 C 931.688 0.578219 -1.50044 0
M  V30 9918 O 932.878 0.395148 -1.69659 0
M  V30 9919 C 930.01 0.663318 -3.34384 0
M  V30 9920 H 931.203 -1.06257 -2.80445 0
M  V30 9921 H 928.756 -0.588697 -1.4479 0
M  V30 9922 H 929.491 1.50855 -2.87077 0
M  V30 9923 H 929.276 0.0777388 -3.92023 0
M  V30 9924 H 930.766 1.06076 -4.03903 0
M  V30 9925 N 931.203 1.46865 -0.571711 0
M  V30 9926 C 932.153 2.27219 0.188503 0
M  V30 9927 C 933.137 1.35221 0.872019 0
M  V30 9928 O 934.329 1.59474 0.76793 0
M  V30 9929 C 931.458 3.21321 1.20862 0
M  V30 9930 C 930.544 4.20803 0.527783 0
M  V30 9931 N 930.935 5.04132 -0.410403 0
M  V30 9932 C 929.233 4.39128 0.779909 0
M  V30 9933 C 929.934 5.76071 -0.80728 0
M  V30 9934 N 928.91 5.43368 -0.158865 0
M  V30 9935 H 932.712 2.89034 -0.532611 0
M  V30 9936 H 930.226 1.57581 -0.392696 0
M  V30 9937 H 932.223 3.77586 1.76733 0
M  V30 9938 H 930.883 2.61065 1.93067 0
M  V30 9939 H 931.894 5.11911 -0.785351 0
M  V30 9940 H 928.571 3.90031 1.48937 0
M  V30 9941 H 929.961 6.53082 -1.57903 0
M  V30 9942 N 932.681 0.308908 1.54543 0
M  V30 9943 C 933.929 -0.297447 1.99899 0
M  V30 9944 C 934.25 -1.53799 1.19878 0
M  V30 9945 O 933.52 -1.93639 0.29678 0
M  V30 9946 H 932.1 -0.112897 0.738419 0
M  V30 9947 H 934.762 0.422067 1.90275 0
M  V30 9948 H 933.858 -0.564016 3.06961 0
M  V30 9949 N 934.159 -1.57557 0.0367827 0
M  V30 9950 C 935.106 -2.10679 -0.942499 0
M  V30 9951 C 936.076 -1.01068 -1.31812 0
M  V30 9952 O 937.261 -1.28533 -1.41011 0
M  V30 9953 C 934.401 -2.64467 -2.21701 0
M  V30 9954 C 933.514 -3.88114 -1.89715 0
M  V30 9955 C 932.649 -4.30268 -3.11518 0
M  V30 9956 C 931.688 -5.46652 -2.75387 0
M  V30 9957 N 930.825 -5.83927 -3.89838 0
M  V30 9958 H 935.665 -2.94066 -0.482588 0
M  V30 9959 H 933.202 -1.45344 -0.226597 0
M  V30 9960 H 935.16 -2.93745 -2.96259 0
M  V30 9961 H 933.79 -1.83898 -2.65295 0
M  V30 9962 H 932.842 -3.65516 -1.05366 0
M  V30 9963 H 934.154 -4.72743 -1.5911 0
M  V30 9964 H 933.308 -4.61023 -3.94389 0
M  V30 9965 H 932.047 -3.44421 -3.4529 0
M  V30 9966 H 931.052 -5.15583 -1.90929 0
M  V30 9967 H 932.277 -6.34204 -2.42822 0
M  V30 9968 H 930.223 -5.01035 -4.23438 0
M  V30 9969 H 930.14 -6.63214 -3.62883 0
M  V30 9970 H 931.408 -6.19291 -4.73391 0
M  V30 9971 N 935.637 0.236453 -1.55816 0
M  V30 9972 C 936.862 0.98449 -1.82545 0
M  V30 9973 C 937.287 1.77755 -0.615206 0
M  V30 9974 O 936.645 1.75982 0.435895 0
M  V30 9975 C 936.693 1.88973 -3.07118 0
M  V30 9976 O 935.797 2.98298 -2.84766 0
M  V30 9977 H 935.138 0.279577 -0.602273 0
M  V30 9978 H 937.668 0.254277 -2.03014 0
M  V30 9979 H 937.678 2.3024 -3.36829 0
M  V30 9980 H 936.353 1.30671 -3.94839 0
M  V30 9981 H 934.93 2.61085 -2.6625 0
M  V30 9982 N 937.115 1.49373 0.502552 0
M  V30 9983 C 938.361 1.59016 1.25864 0
M  V30 9984 C 938.694 0.27532 1.92238 0
M  V30 9985 O 937.969 -0.720988 1.80643 0
M  V30 9986 C 938.252 2.74828 2.32683 0
M  V30 9987 C 938.105 4.16102 1.7082 0
M  V30 9988 C 939.424 2.86288 3.34256 0
M  V30 9989 H 936.543 0.578798 0.456248 0
M  V30 9990 H 939.185 1.81651 0.557032 0
M  V30 9991 H 937.335 2.5566 2.92524 0
M  V30 9992 H 939.007 4.46782 1.14818 0
M  V30 9993 H 937.25 4.21822 1.01238 0
M  V30 9994 H 937.921 4.93006 2.48292 0
M  V30 9995 H 940.397 3.03733 2.84404 0
M  V30 9996 H 939.273 3.69001 4.06362 0
M  V30 9997 H 939.534 1.95576 3.96488 0
M  V30 9998 N 938.594 -0.753485 1.38421 0
M  V30 9999 C 940.005 -1.33081 1.30944 0
M  V30 10000 C 940.356 -1.96169 -0.0347124 0
M  V30 10001 O 939.481 -1.95073 -0.936768 0
M  V30 10002 C 940.076 -2.41973 2.37138 0
M  V30 10003 C 938.635 -2.95426 2.33239 0
M  V30 10004 C 937.782 -1.68808 2.19998 0
M  V30 10005 H 940.733 -0.552354 1.48777 0
M  V30 10006 H 940.754 -3.21913 2.02859 0
M  V30 10007 H 940.266 -1.96027 3.34956 0
M  V30 10008 H 938.367 -3.45701 1.39003 0
M  V30 10009 H 938.48 -3.49798 3.27381 0
M  V30 10010 H 936.844 -1.92438 1.66852 0
M  V30 10011 H 937.627 -1.24939 3.19758 0
M  V30 10012 N 940.072 -1.23292 -0.981677 0
M  V30 10013 C 940.982 -1.02964 -2.10798 0
M  V30 10014 C 941.998 0.0254674 -1.73981 0
M  V30 10015 O 943.174 -0.169706 -2.00684 0
M  V30 10016 C 940.239 -0.621934 -3.41076 0
M  V30 10017 C 939.3 -1.75194 -3.91926 0
M  V30 10018 C 938.533 -1.36359 -5.15986 0
M  V30 10019 O 938.756 -0.247265 -5.69864 0
M  V30 10020 O 937.69 -2.18421 -5.60871 0
M  V30 10021 H 941.516 -1.97354 -2.30836 0
M  V30 10022 H 939.101 -1.01986 -1.09175 0
M  V30 10023 H 940.983 -0.405446 -4.19445 0
M  V30 10024 H 939.658 0.29299 -3.22371 0
M  V30 10025 H 938.565 -2.02305 -3.1468 0
M  V30 10026 H 939.898 -2.64513 -4.15083 0
M  V30 10027 N 941.55 1.18024 -1.04442 0
M  V30 10028 C 942.799 1.8743 -0.745185 0
M  V30 10029 C 943.112 1.81459 0.730206 0
M  V30 10030 O 944.318 2.46263 1.1431 0
M  V30 10031 C 942.774 3.36266 -1.28271 0
M  V30 10032 C 942.382 3.50757 -2.787 0
M  V30 10033 C 944.126 4.11048 -1.06018 0
M  V30 10034 C 942.033 4.93573 -3.25791 0
M  V30 10035 H 940.963 0.702038 -0.27506 0
M  V30 10036 H 943.614 1.33333 -1.26073 0
M  V30 10037 H 941.996 3.89853 -0.695002 0
M  V30 10038 H 943.17 3.07423 -3.43261 0
M  V30 10039 H 941.485 2.89385 -2.99408 0
M  V30 10040 H 944.082 5.16395 -1.38711 0
M  V30 10041 H 944.425 4.163 0.00241716 0
M  V30 10042 H 944.958 3.63644 -1.61269 0
M  V30 10043 H 941.697 4.93491 -4.31447 0
M  V30 10044 H 941.217 5.37607 -2.65968 0
M  V30 10045 H 942.896 5.62307 -3.20031 0
M  V30 10046 N 943.028 0.824394 1.34319 0
M  V30 10047 C 943.978 0.219624 2.2694 0
M  V30 10048 C 944.962 -0.616964 1.48601 0
M  V30 10049 O 946.154 -0.471303 1.7061 0
M  V30 10050 C 943.283 -0.616379 3.37721 0
M  V30 10051 C 942.369 0.230917 4.23471 0
M  V30 10052 N 942.76 1.30264 4.88738 0
M  V30 10053 C 941.058 0.0155016 4.45997 0
M  V30 10054 C 941.759 1.82141 5.52449 0
M  V30 10055 N 940.735 1.12508 5.3183 0
M  V30 10056 H 944.537 1.03939 2.74907 0
M  V30 10057 H 942.051 0.667353 1.48055 0
M  V30 10058 H 944.048 -1.06582 4.03046 0
M  V30 10059 H 942.708 -1.43429 2.91304 0
M  V30 10060 H 943.719 1.68545 4.89707 0
M  V30 10061 H 940.396 -0.770128 4.10336 0
M  V30 10062 H 941.786 2.7181 6.14466 0
M  V30 10063 N 944.506 -1.46559 0.579492 0
M  V30 10064 C 945.416 -2.34066 -0.15816 0
M  V30 10065 C 946.432 -1.49556 -0.88932 0
M  V30 10066 O 947.608 -1.82434 -0.853226 0
M  V30 10067 C 944.673 -3.26683 -1.161 0
M  V30 10068 C 943.734 -4.27092 -0.434855 0
M  V30 10069 C 942.967 -5.15283 -1.38992 0
M  V30 10070 O 943.19 -5.06345 -2.62623 0
M  V30 10071 O 942.124 -5.95099 -0.902253 0
M  V30 10072 H 945.95 -2.98488 0.560234 0
M  V30 10073 H 943.535 -1.45482 0.339918 0
M  V30 10074 H 945.417 -3.8383 -1.73932 0
M  V30 10075 H 944.092 -2.64862 -1.86091 0
M  V30 10076 H 942.999 -3.73641 0.185224 0
M  V30 10077 H 944.332 -4.9169 0.224031 0
M  V30 10078 N 945.984 -0.3171 -1.54377 0
M  V30 10079 C 946.916 0.58571 -2.2159 0
M  V30 10080 C 947.929 1.08495 -1.21378 0
M  V30 10081 O 949.118 0.999638 -1.47883 0
M  V30 10082 C 946.218 1.8157 -2.86156 0
M  V30 10083 C 945.391 1.45625 -4.12447 0
M  V30 10084 C 944.45 2.54308 -4.60667 0
M  V30 10085 O 943.476 2.18724 -5.25498 0
M  V30 10086 N 944.678 3.85129 -4.34345 0
M  V30 10087 H 947.443 0.0102247 -2.99698 0
M  V30 10088 H 945.004 -0.140011 -1.61293 0
M  V30 10089 H 946.996 2.53657 -3.15341 0
M  V30 10090 H 945.566 2.29919 -2.11793 0
M  V30 10091 H 944.786 0.567294 -3.90097 0
M  V30 10092 H 946.074 1.19169 -4.94648 0
M  V30 10093 H 945.472 4.16841 -3.8244 0
M  V30 10094 H 944.029 4.53466 -4.68201 0
M  V30 10095 N 947.462 1.57535 -0.0451378 0
M  V30 10096 C 948.392 2.14208 0.929372 0
M  V30 10097 C 949.373 1.06221 1.32858 0
M  V30 10098 O 950.558 1.34132 1.40436 0
M  V30 10099 C 947.688 2.68217 2.20629 0
M  V30 10100 C 946.642 3.81134 1.94734 0
M  V30 10101 C 945.968 4.21636 3.28828 0
M  V30 10102 C 947.268 5.06531 1.27374 0
M  V30 10103 H 948.962 2.95886 0.457348 0
M  V30 10104 H 946.508 1.42332 0.218544 0
M  V30 10105 H 948.461 3.06502 2.89196 0
M  V30 10106 H 947.185 1.83722 2.70026 0
M  V30 10107 H 945.844 3.43312 1.28579 0
M  V30 10108 H 945.492 3.34099 3.76014 0
M  V30 10109 H 945.192 4.97736 3.12302 0
M  V30 10110 H 946.716 4.62516 3.98637 0
M  V30 10111 H 948.13 5.423 1.85967 0
M  V30 10112 H 946.527 5.87735 1.21194 0
M  V30 10113 H 947.597 4.84261 0.248913 0
M  V30 10114 N 948.94 -0.228186 1.55939 0
M  V30 10115 C 950.186 -0.954964 1.78909 0
M  V30 10116 C 950.519 -1.8425 0.613648 0
M  V30 10117 O 949.794 -1.90604 -0.38737 0
M  V30 10118 C 950.077 -1.79957 3.1191 0
M  V30 10119 C 949.93 -0.938968 4.3989 0
M  V30 10120 C 951.249 -2.77859 3.41295 0
M  V30 10121 H 948.368 -0.345745 0.650868 0
M  V30 10122 H 951.01 -0.224244 1.88672 0
M  V30 10123 H 949.16 -2.42256 3.03717 0
M  V30 10124 H 950.832 -0.333225 4.60095 0
M  V30 10125 H 949.075 -0.244096 4.33113 0
M  V30 10126 H 949.746 -1.56416 5.29375 0
M  V30 10127 H 952.222 -2.25695 3.49572 0
M  V30 10128 H 951.098 -3.34062 4.35538 0
M  V30 10129 H 951.359 -3.55266 2.63132 0
M  V30 10130 N 950.418 -1.49637 -0.494624 0
M  V30 10131 C 951.646 -1.63164 -1.2722 0
M  V30 10132 C 952.061 -0.305552 -1.86311 0
M  V30 10133 O 951.418 0.709758 -1.68133 0
M  V30 10134 C 951.469 -2.70524 -2.39789 0
M  V30 10135 O 951.19 -3.97991 -1.83126 0
M  V30 10136 C 952.691 -2.94814 -3.31058 0
M  V30 10137 H 949.911 -0.54912 -0.385627 0
M  V30 10138 H 952.455 -1.95711 -0.593081 0
M  V30 10139 H 950.61 -2.40738 -3.03519 0
M  V30 10140 H 951.024 -4.57179 -2.57075 0
M  V30 10141 H 952.498 -3.73653 -4.06309 0
M  V30 10142 H 952.975 -2.04974 -3.88436 0
M  V30 10143 H 953.581 -3.26042 -2.73088 0
M  V30 10144 N 951.896 0.746133 -1.38819 0
M  V30 10145 C 953.126 1.53316 -1.38484 0
M  V30 10146 C 953.534 1.89183 0.0253332 0
M  V30 10147 O 952.877 1.5382 1.00424 0
M  V30 10148 C 952.939 2.85623 -2.18311 0
M  V30 10149 C 952.603 2.72253 -3.67052 0
M  V30 10150 C 953.6 2.41547 -4.60381 0
M  V30 10151 C 951.285 2.89472 -4.10501 0
M  V30 10152 C 953.279 2.28226 -5.9514 0
M  V30 10153 C 950.966 2.7577 -5.45338 0
M  V30 10154 C 951.964 2.45191 -6.37472 0
M  V30 10155 O 951.652 2.31561 -7.69828 0
M  V30 10156 H 951.384 0.480763 -0.475229 0
M  V30 10157 H 953.938 0.93057 -1.83111 0
M  V30 10158 H 952.168 3.481 -1.68414 0
M  V30 10159 H 953.857 3.47178 -2.10291 0
M  V30 10160 H 954.623 2.27905 -4.28117 0
M  V30 10161 H 950.502 3.12269 -3.3913 0
M  V30 10162 H 954.046 2.04279 -6.6702 0
M  V30 10163 H 949.943 2.88987 -5.77197 0
M  V30 10164 H 950.711 2.46716 -7.80432 0
M  V30 10165 N 953.375 1.23811 0.975125 0
M  V30 10166 C 954.652 0.9815 1.69192 0
M  V30 10167 C 955.032 -0.498373 2.05133 0
M  V30 10168 O 954.38 -1.47087 1.74864 0
M  V30 10169 C 954.59 1.89701 2.92941 0
M  V30 10170 C 955.938 2.16357 3.65342 0
M  V30 10171 O 956.962 1.87293 3.02985 0
M  V30 10172 O 955.821 2.65675 4.77576 0
M  V30 10173 H 952.915 0.370599 0.739314 0
M  V30 10174 H 955.461 1.34876 1.02988 0
M  V30 10175 H 954.233 2.89719 2.63018 0
M  V30 10176 H 953.856 1.53244 3.66881 0
M  V30 10177 N 954.853 -1.17469 1.05066 0
M  V30 10178 C 955.763 -2.25089 0.661222 0
M  V30 10179 C 956.779 -1.71086 -0.31712 0
M  V30 10180 O 957.955 -2.00685 -0.169534 0
M  V30 10181 C 955.02 -3.46676 0.0406415 0
M  V30 10182 C 954.081 -4.15771 1.06927 0
M  V30 10183 C 953.314 -5.31553 0.478208 0
M  V30 10184 O 953.537 -5.6593 -0.712714 0
M  V30 10185 O 952.471 -5.89574 1.21185 0
M  V30 10186 H 956.297 -2.60685 1.5581 0
M  V30 10187 H 953.882 -1.24744 0.822147 0
M  V30 10188 H 955.764 -4.203 -0.304312 0
M  V30 10189 H 954.439 -3.1288 -0.829909 0
M  V30 10190 H 953.346 -3.44171 1.46619 0
M  V30 10191 H 954.679 -4.53591 1.91092 0
M  V30 10192 N 956.331 -0.831506 -1.3388 0
M  V30 10193 C 957.241 -0.261688 -2.33136 0
M  V30 10194 C 958.257 0.608429 -1.63016 0
M  V30 10195 O 959.433 0.514297 -1.94723 0
M  V30 10196 C 956.498 0.559957 -3.42148 0
M  V30 10197 C 955.559 -0.333569 -4.28002 0
M  V30 10198 C 954.792 0.448956 -5.31808 0
M  V30 10199 O 955.015 1.6814 -5.45055 0
M  V30 10200 O 953.949 -0.173197 -6.01651 0
M  V30 10201 H 957.775 -1.08343 -2.83717 0
M  V30 10202 H 955.36 -0.593849 -1.3709 0
M  V30 10203 H 957.242 1.02712 -4.08691 0
M  V30 10204 H 955.917 1.35888 -2.93796 0
M  V30 10205 H 954.824 -0.848416 -3.64352 0
M  V30 10206 H 956.157 -1.09707 -4.79818 0
M  V30 10207 N 957.809 1.4625 -0.587256 0
M  V30 10208 C 959.057 2.01963 -0.0744273 0
M  V30 10209 C 959.378 1.46065 1.29189 0
M  V30 10210 O 958.648 0.647077 1.84905 0
M  V30 10211 H 957.228 0.746597 -0.0245236 0
M  V30 10212 H 959.89 1.79299 -0.764063 0
M  V30 10213 H 958.986 3.12099 -0.00884894 0
M  V30 10214 N 959.287 0.325282 1.54207 0
M  V30 10215 C 960.535 -0.276229 2.00203 0
M  V30 10216 C 960.856 -1.52519 1.21503 0
M  V30 10217 O 960.126 -1.93313 0.317302 0
M  V30 10218 H 958.706 -0.105059 0.739575 0
M  V30 10219 H 961.368 0.442225 1.89817 0
M  V30 10220 H 960.464 -0.531427 3.07542 0
M  V30 10221 N 960.765 -1.57509 0.0534917 0
M  V30 10222 C 962.013 -1.92402 -0.618548 0
M  V30 10223 C 962.334 -0.93273 -1.71246 0
M  V30 10224 O 961.604 0.0220495 -1.95888 0
M  V30 10225 H 960.184 -0.710233 -0.23147 0
M  V30 10226 H 962.846 -1.94606 0.10704 0
M  V30 10227 H 961.942 -2.93704 -1.05566 0
M  V30 10228 N 962.243 0.219913 -1.56058 0
M  V30 10229 C 963.153 1.29349 -1.95719 0
M  V30 10230 C 964.169 1.5119 -0.861248 0
M  V30 10231 O 965.345 1.64289 -1.16495 0
M  V30 10232 C 962.41 2.6229 -2.26726 0
M  V30 10233 C 961.471 2.48738 -3.49897 0
M  V30 10234 C 960.704 3.75339 -3.79416 0
M  V30 10235 O 960.927 4.78427 -3.10586 0
M  V30 10236 O 959.861 3.72352 -4.72903 0
M  V30 10237 H 963.687 0.986979 -2.87215 0
M  V30 10238 H 961.272 0.42291 -1.43289 0
M  V30 10239 H 963.154 3.408 -2.47857 0
M  V30 10240 H 961.829 2.92619 -1.38404 0
M  V30 10241 H 960.736 1.68422 -3.34043 0
M  V30 10242 H 962.069 2.23347 -4.38608 0
M  V30 10243 N 963.721 1.49897 0.486681 0
M  V30 10244 C 964.654 1.6224 1.60479 0
M  V30 10245 C 965.632 0.470964 1.5563 0
M  V30 10246 O 966.816 0.688418 1.75479 0
M  V30 10247 C 963.943 1.59059 2.99028 0
M  V30 10248 C 962.989 2.79575 3.22087 0
M  V30 10249 S 963.822 4.41077 3.03664 0
M  V30 10250 C 964.978 4.40564 4.44583 0
M  V30 10251 H 965.211 2.56822 1.49766 0
M  V30 10252 H 962.744 1.38966 0.672893 0
M  V30 10253 H 964.702 1.5791 3.78913 0
M  V30 10254 H 963.363 0.657405 3.07143 0
M  V30 10255 H 962.556 2.73609 4.23266 0
M  V30 10256 H 962.158 2.78211 2.49949 0
M  V30 10257 H 964.45 4.13166 5.36936 0
M  V30 10258 H 965.393 5.42068 4.55596 0
M  V30 10259 H 965.801 3.70461 4.25933 0
M  V30 10260 N 965.199 -0.738761 1.39212 0
M  V30 10261 C 966.476 -1.48982 1.26742 0
M  V30 10262 C 966.856 -2.10732 -0.12466 0
M  V30 10263 O 966.204 -1.98287 -1.13554 0
M  V30 10264 C 966.414 -2.54427 2.38889 0
M  V30 10265 C 967.762 -3.20915 2.78027 0
M  V30 10266 O 968.786 -2.64738 2.38311 0
M  V30 10267 O 967.645 -4.22558 3.46565 0
M  V30 10268 H 964.739 -0.661395 0.496473 0
M  V30 10269 H 967.285 -0.772907 1.51077 0
M  V30 10270 H 966.057 -2.07151 3.3197 0
M  V30 10271 H 965.68 -3.33682 2.162 0
M  V30 10272 N 966.677 -1.24326 -0.968545 0
M  V30 10273 C 967.905 -1.10947 -1.74638 0
M  V30 10274 C 968.32 0.338064 -1.85749 0
M  V30 10275 O 967.677 1.23331 -1.3452 0
M  V30 10276 C 967.728 -1.74254 -3.1673 0
M  V30 10277 O 967.449 -3.13347 -3.06178 0
M  V30 10278 C 968.95 -1.66473 -4.10855 0
M  V30 10279 H 966.17 -0.38767 -0.547679 0
M  V30 10280 H 968.714 -1.64415 -1.21605 0
M  V30 10281 H 966.869 -1.2479 -3.66751 0
M  V30 10282 H 967.283 -3.44255 -3.95713 0
M  V30 10283 H 968.757 -2.15452 -5.08217 0
M  V30 10284 H 969.234 -0.625785 -4.34719 0
M  V30 10285 H 969.84 -2.15359 -3.66743 0
M  V30 10286 N 968.156 1.1691 -1.05688 0
M  V30 10287 C 969.384 1.91204 -0.790485 0
M  V30 10288 C 969.799 1.77095 0.654434 0
M  V30 10289 O 969.156 1.11146 1.44751 0
M  V30 10290 C 969.207 3.42108 -1.16808 0
M  V30 10291 O 968.928 3.55788 -2.55629 0
M  V30 10292 C 970.429 4.33466 -0.92855 0
M  V30 10293 H 967.649 0.606508 -0.287035 0
M  V30 10294 H 970.193 1.48225 -1.40888 0
M  V30 10295 H 968.348 3.82814 -0.59434 0
M  V30 10296 H 968.762 4.49321 -2.70575 0
M  V30 10297 H 970.236 5.37836 -1.24245 0
M  V30 10298 H 970.713 4.38989 0.136016 0
M  V30 10299 H 971.319 3.98481 -1.48638 0
M  V30 10300 N 969.634 0.838594 1.33437 0
M  V30 10301 C 970.859 0.446701 2.02532 0
M  V30 10302 C 971.284 -0.944275 1.62681 0
M  V30 10303 O 970.642 -1.61733 0.81927 0
M  V30 10304 C 970.69 0.574794 3.55989 0
M  V30 10305 O 969.794 -0.399063 4.10465 0
M  V30 10306 H 969.135 0.181637 0.638674 0
M  V30 10307 H 971.665 1.13335 1.70342 0
M  V30 10308 H 971.675 0.456339 4.0544 0
M  V30 10309 H 970.35 1.58921 3.8434 0
M  V30 10310 H 968.927 -0.238187 3.72139 0
M  V30 10311 N 971.112 -1.45937 0.595003 0
M  V30 10312 C 972.342 -2.06399 0.0911607 0
M  V30 10313 C 972.75 -1.44236 -1.22444 0
M  V30 10314 O 972.093 -0.546265 -1.7539 0
M  V30 10315 C 972.155 -3.59242 -0.136079 0
M  V30 10316 C 971.819 -4.43668 1.09579 0
M  V30 10317 C 972.816 -4.79437 2.01088 0
M  V30 10318 C 970.501 -4.84616 1.32109 0
M  V30 10319 C 972.495 -5.54995 3.13464 0
M  V30 10320 C 970.182 -5.5993 2.44788 0
M  V30 10321 C 971.18 -5.95035 3.35294 0
M  V30 10322 O 970.868 -6.68825 4.46014 0
M  V30 10323 H 970.6 -0.673316 0.0601779 0
M  V30 10324 H 973.154 -1.88365 0.819005 0
M  V30 10325 H 971.384 -3.75629 -0.918676 0
M  V30 10326 H 973.073 -4.0159 -0.589954 0
M  V30 10327 H 973.839 -4.48371 1.84902 0
M  V30 10328 H 969.718 -4.56735 0.625662 0
M  V30 10329 H 973.262 -5.82314 3.84131 0
M  V30 10330 H 969.159 -5.90411 2.60931 0
M  V30 10331 H 969.927 -6.87262 4.44537 0
M  V30 10332 N 972.59 -0.333456 -1.54032 0
M  V30 10333 C 973.867 0.320902 -1.9295 0
M  V30 10334 C 974.247 1.69071 -1.26405 0
M  V30 10335 O 973.595 2.24768 -0.411311 0
M  V30 10336 C 973.805 0.403257 -3.46662 0
M  V30 10337 C 975.153 0.658875 -4.19457 0
M  V30 10338 O 976.177 0.485781 -3.52872 0
M  V30 10339 O 975.036 0.993475 -5.37394 0
M  V30 10340 H 972.13 0.185158 -0.806006 0
M  V30 10341 H 974.676 -0.383895 -1.65301 0
M  V30 10342 H 973.448 -0.558409 -3.87295 0
M  V30 10343 H 973.071 1.15524 -3.80447 0
M  V30 10344 N 974.068 1.57479 -0.061844 0
M  V30 10345 C 975.314 1.93395 0.610443 0
M  V30 10346 C 975.647 0.941334 1.6986 0
M  V30 10347 O 974.922 -0.0310262 1.94475 0
M  V30 10348 C 975.205 3.39636 1.19664 0
M  V30 10349 C 975.058 4.49651 0.115805 0
M  V30 10350 C 976.377 3.86488 2.10512 0
M  V30 10351 H 973.496 0.703262 0.220436 0
M  V30 10352 H 976.138 1.89583 -0.125785 0
M  V30 10353 H 974.288 3.43015 1.82409 0
M  V30 10354 H 975.96 4.58397 -0.516728 0
M  V30 10355 H 974.203 4.30237 -0.55483 0
M  V30 10356 H 974.874 5.49089 0.566176 0
M  V30 10357 H 977.35 3.85052 1.57715 0
M  V30 10358 H 976.226 4.89444 2.48466 0
M  V30 10359 H 976.487 3.23856 3.00948 0
M  V30 10360 N 975.546 -0.211634 1.56173 0
M  V30 10361 C 976.771 -0.955324 1.84088 0
M  V30 10362 C 977.196 -1.76754 0.643407 0
M  V30 10363 O 976.554 -1.76653 -0.407842 0
M  V30 10364 C 976.602 -1.84063 3.10085 0
M  V30 10365 O 975.706 -2.9373 2.89476 0
M  V30 10366 H 975.047 -0.26996 0.606645 0
M  V30 10367 H 977.577 -0.221947 2.03393 0
M  V30 10368 H 977.587 -2.24852 3.40449 0
M  V30 10369 H 976.262 -1.24373 3.96868 0
M  V30 10370 H 974.839 -2.56816 2.7037 0
M  V30 10371 N 977.024 -1.50153 -0.478725 0
M  V30 10372 C 978.27 -1.60998 -1.23318 0
M  V30 10373 C 978.603 -0.305868 -1.91776 0
M  V30 10374 O 977.878 0.692158 -1.81767 0
M  V30 10375 C 978.161 -2.78495 -2.28282 0
M  V30 10376 C 978.014 -4.18767 -1.64178 0
M  V30 10377 C 979.333 -2.91569 -3.2966 0
M  V30 10378 H 976.452 -0.585983 -0.446982 0
M  V30 10379 H 979.094 -1.82514 -0.528063 0
M  V30 10380 H 977.244 -2.60281 -2.8842 0
M  V30 10381 H 978.916 -4.48552 -1.07696 0
M  V30 10382 H 977.159 -4.23379 -0.94514 0
M  V30 10383 H 977.83 -4.96894 -2.40417 0
M  V30 10384 H 980.306 -3.08219 -2.79536 0
M  V30 10385 H 979.182 -3.75419 -4.0044 0
M  V30 10386 H 979.443 -2.01859 -3.93326 0
M  V30 10387 N 978.502 0.731368 -1.39602 0
M  V30 10388 C 979.432 1.85855 -1.41351 0
M  V30 10389 C 980.413 1.67839 -0.2764 0
M  V30 10390 O 981.598 1.88104 -0.482747 0
M  V30 10391 C 978.728 3.23644 -1.25983 0
M  V30 10392 C 977.682 3.56304 -2.37132 0
M  V30 10393 C 977.008 4.93069 -2.0685 0
M  V30 10394 C 978.308 3.58906 -3.79452 0
M  V30 10395 H 980.002 1.84648 -2.3568 0
M  V30 10396 H 977.548 0.886955 -1.13442 0
M  V30 10397 H 979.501 4.02176 -1.25826 0
M  V30 10398 H 978.225 3.25387 -0.281234 0
M  V30 10399 H 976.884 2.80104 -2.36511 0
M  V30 10400 H 976.532 4.91396 -1.0742 0
M  V30 10401 H 976.232 5.15888 -2.81306 0
M  V30 10402 H 977.756 5.73953 -2.0835 0
M  V30 10403 H 979.17 4.27508 -3.81982 0
M  V30 10404 H 977.567 3.93246 -4.53297 0
M  V30 10405 H 978.637 2.58631 -4.10168 0
M  V30 10406 N 979.98 1.24838 0.961938 0
M  V30 10407 C 980.928 1.0436 2.07874 0
M  V30 10408 C 981.922 -0.0232531 1.69384 0
M  V30 10409 O 983.128 0.131773 1.79517 0
M  V30 10410 H 979.503 0.320492 0.680286 0
M  V30 10411 H 981.474 1.99055 2.22306 0
M  V30 10412 C 980.223 0.671246 3.41159 0
M  V30 10413 H 979.546 1.48395 3.7124 0
M  V30 10414 H 980.986 0.567608 4.20184 0
M  V30 10415 C 979.445 -0.622124 3.31106 0
M  V30 10416 O 979.975 -1.66627 3.65511 0
M  V30 10417 N 978.181 -0.605009 2.84232 0
M  V30 10418 H 977.728 0.245052 2.56432 0
M  V30 10419 H 977.686 -1.47056 2.77888 0
M  V30 10420 N 981.458 -1.16348 1.06306 0
M  V30 10421 C 982.683 -1.91323 0.800636 0
M  V30 10422 C 983.108 -1.7691 -0.639105 0
M  V30 10423 O 982.466 -1.0945 -1.44535 0
M  V30 10424 C 982.514 -3.40038 1.20027 0
M  V30 10425 O 981.618 -4.11003 0.339142 0
M  V30 10426 H 980.959 -0.596057 0.292595 0
M  V30 10427 H 983.489 -1.47406 1.41889 0
M  V30 10428 H 983.499 -3.90808 1.17188 0
M  V30 10429 H 982.174 -3.49848 2.24898 0
M  V30 10430 H 980.751 -3.70423 0.42911 0
M  V30 10431 N 982.937 -0.845659 -1.3299 0
M  V30 10432 C 984.183 -0.445311 -1.9785 0
M  V30 10433 C 984.516 0.994476 -1.66805 0
M  V30 10434 O 983.791 1.69636 -0.95151 0
M  V30 10435 C 984.074 -0.674371 -3.53729 0
M  V30 10436 C 983.927 -2.16192 -3.94437 0
M  V30 10437 C 985.246 -0.124908 -4.39923 0
M  V30 10438 H 982.365 -0.163269 -0.718688 0
M  V30 10439 H 985.007 -1.06242 -1.5752 0
M  V30 10440 H 983.157 -0.149091 -3.88214 0
M  V30 10441 H 984.829 -2.75259 -3.70176 0
M  V30 10442 H 983.072 -2.64386 -3.43922 0
M  V30 10443 H 983.743 -2.27292 -5.03033 0
M  V30 10444 H 986.219 -0.573986 -4.12122 0
M  V30 10445 H 985.095 -0.314816 -5.47996 0
M  V30 10446 H 985.356 0.971758 -4.31288 0
M  V30 10447 N 984.415 1.45619 -0.602734 0
M  V30 10448 C 985.831 1.57368 -0.26599 0
M  V30 10449 C 986.031 1.59485 1.23154 0
M  V30 10450 O 985.087 1.52254 2.01432 0
M  V30 10451 C 986.4 2.85863 -0.932881 0
M  V30 10452 C 987.948 2.9953 -0.908344 0
M  V30 10453 C 988.423 4.30789 -1.55515 0
M  V30 10454 N 989.914 4.37536 -1.52042 0
M  V30 10455 C 990.649 5.37758 -1.99008 0
M  V30 10456 N 990.145 6.44544 -2.54038 0
M  V30 10457 N 991.938 5.29085 -1.89805 0
M  V30 10458 H 984.089 1.42489 -1.57514 0
M  V30 10459 H 986.352 0.680948 -0.659556 0
M  V30 10460 H 986.058 2.90183 -1.98713 0
M  V30 10461 H 985.932 3.74467 -0.453209 0
M  V30 10462 H 988.319 2.9478 0.137344 0
M  V30 10463 H 988.4 2.12349 -1.42623 0
M  V30 10464 H 988.044 4.36297 -2.60014 0
M  V30 10465 H 987.974 5.16778 -1.01232 0
M  V30 10466 H 990.465 3.60972 -1.11837 0
M  V30 10467 H 990.778 7.17258 -2.87682 0
M  V30 10468 H 989.123 6.45308 -2.58075 0
M  V30 10469 H 992.314 4.44566 -1.46556 0
M  V30 10470 H 992.487 6.07043 -2.26722 0
M  V30 10471 N 985.893 0.34162 1.53853 0
M  V30 10472 C 987.309 -0.0103769 1.59597 0
M  V30 10473 C 987.509 -1.48897 1.35764 0
M  V30 10474 O 986.565 -2.24743 1.15095 0
M  V30 10475 C 987.878 0.424067 2.97695 0
M  V30 10476 C 989.426 0.376247 3.1073 0
M  V30 10477 C 989.901 0.786129 4.51203 0
M  V30 10478 N 991.392 0.74024 4.57247 0
M  V30 10479 C 992.127 1.02937 5.64085 0
M  V30 10480 N 991.623 1.38655 6.78783 0
M  V30 10481 N 993.416 0.953734 5.5395 0
M  V30 10482 H 985.567 1.30477 1.67599 0
M  V30 10483 H 987.83 0.531753 0.78482 0
M  V30 10484 H 987.536 1.45493 3.20195 0
M  V30 10485 H 987.41 -0.201713 3.7666 0
M  V30 10486 H 989.797 -0.645441 2.87955 0
M  V30 10487 H 989.878 1.0372 2.33828 0
M  V30 10488 H 989.522 1.80582 4.74713 0
M  V30 10489 H 989.452 0.102671 5.265 0
M  V30 10490 H 991.943 0.476763 3.7488 0
M  V30 10491 H 992.256 1.59206 7.56223 0
M  V30 10492 H 990.601 1.42498 6.80235 0
M  V30 10493 H 993.792 0.674044 4.63222 0
M  V30 10494 H 993.965 1.18241 6.37121 0
M  V30 10495 N 987.371 -1.57444 0.0701946 0
M  V30 10496 C 988.619 -1.93047 -0.598106 0
M  V30 10497 C 988.94 -0.950841 -1.70247 0
M  V30 10498 O 988.21 0.00127177 -1.959 0
M  V30 10499 H 986.79 -0.712648 -0.223924 0
M  V30 10500 H 989.452 -1.94481 0.127674 0
M  V30 10501 H 988.548 -2.94807 -1.02445 0
M  V30 10502 N 988.849 0.203349 -1.56283 0
M  V30 10503 C 990.097 0.923183 -1.79782 0
M  V30 10504 C 990.418 1.84134 -0.64185 0
M  V30 10505 O 989.688 1.92922 0.340292 0
M  V30 10506 H 988.268 0.343881 -0.66314 0
M  V30 10507 H 990.93 0.210837 -1.93756 0
M  V30 10508 H 990.026 1.51921 -2.72629 0
M  V30 10509 N 990.327 1.50405 0.470755 0
M  V30 10510 C 991.29 1.68741 1.5511 0
M  V30 10511 C 992.29 0.558116 1.50804 0
M  V30 10512 O 993.48 0.825149 1.53418 0
M  V30 10513 C 990.612 1.71295 2.94739 0
M  V30 10514 H 991.805 2.65127 1.40169 0
M  V30 10515 H 989.358 1.39891 0.697156 0
M  V30 10516 H 990.093 0.766029 3.15123 0
M  V30 10517 H 989.878 2.53336 2.99271 0
M  V30 10518 H 991.368 1.87434 3.73173 0
M  V30 10519 N 991.805 -0.723954 1.39988 0
M  V30 10520 C 992.752 -1.83803 1.39589 0
M  V30 10521 C 993.722 -1.64146 0.253996 0
M  V30 10522 O 994.907 -1.85398 0.450793 0
M  V30 10523 C 992.047 -3.21431 1.25604 0
M  V30 10524 C 991.16 -3.52717 2.49429 0
M  V30 10525 C 990.295 -4.79805 2.27949 0
M  V30 10526 C 989.334 -5.03968 3.47394 0
M  V30 10527 N 988.471 -6.22266 3.25161 0
M  V30 10528 H 993.311 -1.83479 2.34818 0
M  V30 10529 H 990.848 -0.896396 1.16633 0
M  V30 10530 H 992.806 -4.00892 1.15504 0
M  V30 10531 H 991.436 -3.21005 0.339986 0
M  V30 10532 H 990.488 -2.67872 2.7009 0
M  V30 10533 H 991.8 -3.66486 3.38363 0
M  V30 10534 H 990.954 -5.67268 2.15155 0
M  V30 10535 H 989.693 -4.68229 1.36428 0
M  V30 10536 H 988.698 -4.14963 3.60674 0
M  V30 10537 H 989.923 -5.17422 4.39831 0
M  V30 10538 H 987.869 -6.11957 2.36314 0
M  V30 10539 H 987.786 -6.36673 4.07656 0
M  V30 10540 H 989.054 -7.12539 3.16083 0
M  V30 10541 N 993.283 -1.25346 -0.955304 0
M  V30 10542 C 994.694 -1.09173 -1.51453 0
M  V30 10543 C 995.045 0.332755 -1.93358 0
M  V30 10544 O 994.17 1.22264 -1.78551 0
M  V30 10545 C 994.765 -1.97564 -2.75234 0
M  V30 10546 C 993.324 -1.85579 -3.27471 0
M  V30 10547 C 992.471 -1.91755 -2.00313 0
M  V30 10548 H 995.422 -1.38642 -0.772271 0
M  V30 10549 H 995.443 -1.51523 -3.49029 0
M  V30 10550 H 994.955 -3.01233 -2.44704 0
M  V30 10551 H 993.056 -0.847906 -3.62824 0
M  V30 10552 H 993.169 -2.70353 -3.95533 0
M  V30 10553 H 991.533 -1.35633 -2.15582 0
M  V30 10554 H 992.316 -2.97028 -1.72132 0
M  V30 10555 N 994.761 1.15782 -1.06922 0
M  V30 10556 C 996.172 1.68062 -0.813144 0
M  V30 10557 C 996.523 1.84681 0.662374 0
M  V30 10558 O 995.648 1.54696 1.51321 0
M  V30 10559 C 996.243 3.05273 -1.46949 0
M  V30 10560 C 994.802 3.54647 -1.26104 0
M  V30 10561 C 993.949 2.30477 -1.54194 0
M  V30 10562 H 996.9 1.00056 -1.23185 0
M  V30 10563 H 996.921 3.69986 -0.888308 0
M  V30 10564 H 996.433 2.93145 -2.54337 0
M  V30 10565 H 994.534 3.72024 -0.20718 0
M  V30 10566 H 994.647 4.36354 -1.97819 0
M  V30 10567 H 993.011 2.35803 -0.96276 0
M  V30 10568 H 993.794 2.2094 -2.62755 0
M  V30 10569 N 996.239 0.8527 1.3254 0
M  V30 10570 C 997.655 0.542298 1.50104 0
M  V30 10571 C 997.855 -0.927465 1.78886 0
M  V30 10572 O 996.911 -1.7106 1.85728 0
M  V30 10573 C 998.224 1.4276 2.64651 0
M  V30 10574 C 999.772 1.42782 2.78536 0
M  V30 10575 C 1000.25 2.29828 3.9616 0
M  V30 10576 N 1001.74 2.27613 4.03418 0
M  V30 10577 C 1002.47 2.91696 4.93661 0
M  V30 10578 N 1001.97 3.64883 5.88925 0
M  V30 10579 N 1003.76 2.81094 4.86768 0
M  V30 10580 H 995.913 1.80395 1.12123 0
M  V30 10581 H 998.176 0.770394 0.552446 0
M  V30 10582 H 997.882 2.47266 2.50105 0
M  V30 10583 H 997.756 1.11358 3.60388 0
M  V30 10584 H 1000.14 0.390417 2.92506 0
M  V30 10585 H 1000.22 1.78198 1.83519 0
M  V30 10586 H 999.868 3.33635 3.82949 0
M  V30 10587 H 999.798 1.91746 4.9045 0
M  V30 10588 H 1002.29 1.74402 3.3525 0
M  V30 10589 H 1002.6 4.10952 6.54476 0
M  V30 10590 H 1000.95 3.68991 5.88957 0
M  V30 10591 H 1004.14 2.23469 4.11314 0
M  V30 10592 H 1004.31 3.31318 5.56895 0
M  V30 10593 N 997.718 -1.45297 0.610449 0
M  V30 10594 C 999.129 -1.85715 0.191488 0
M  V30 10595 C 999.48 -1.51036 -1.25229 0
M  V30 10596 O 998.605 -0.938422 -1.94994 0
M  V30 10597 C 999.2 -3.37082 0.340747 0
M  V30 10598 C 997.759 -3.76393 -0.0235433 0
M  V30 10599 C 996.906 -2.69237 0.663849 0
M  V30 10600 H 999.857 -1.36058 0.816948 0
M  V30 10601 H 999.878 -3.78105 -0.426233 0
M  V30 10602 H 999.39 -3.62291 1.39164 0
M  V30 10603 H 997.491 -3.56801 -1.07351 0
M  V30 10604 H 997.604 -4.77653 0.372102 0
M  V30 10605 H 995.968 -2.54499 0.101204 0
M  V30 10606 H 996.751 -2.97281 1.71694 0
M  V30 10607 N 999.196 -0.349774 -1.5367 0
M  V30 10608 C 1000.16 0.491676 -2.23864 0
M  V30 10609 C 1001.16 1.02256 -1.24098 0
M  V30 10610 O 1002.35 0.910816 -1.48492 0
M  V30 10611 C 999.481 1.68557 -2.96313 0
M  V30 10612 H 1000.67 -0.12233 -2.9965 0
M  V30 10613 H 998.227 -0.101214 -1.55972 0
M  V30 10614 H 998.962 2.3381 -2.2473 0
M  V30 10615 H 998.747 1.31203 -3.69497 0
M  V30 10616 H 1000.24 2.28225 -3.49718 0
M  V30 10617 N 1000.67 1.57404 -0.0785433 0
M  V30 10618 C 1001.6 2.16131 0.883726 0
M  V30 10619 C 1002.58 1.09015 1.30575 0
M  V30 10620 O 1003.77 1.3708 1.37559 0
M  V30 10621 C 1000.9 2.72836 2.1489 0
M  V30 10622 C 999.854 3.85178 1.86605 0
M  V30 10623 C 999.18 4.28516 3.1981 0
M  V30 10624 C 1000.48 5.09118 1.16601 0
M  V30 10625 H 1002.17 2.9679 0.394484 0
M  V30 10626 H 999.72 1.42763 0.188304 0
M  V30 10627 H 1001.67 3.12567 2.8263 0
M  V30 10628 H 1000.4 1.89408 2.66068 0
M  V30 10629 H 999.056 3.45962 1.21268 0
M  V30 10630 H 998.704 3.42 3.68843 0
M  V30 10631 H 998.404 5.04249 3.01674 0
M  V30 10632 H 999.928 4.70868 3.88737 0
M  V30 10633 H 1001.34 5.46123 1.74422 0
M  V30 10634 H 999.739 5.90173 1.087 0
M  V30 10635 H 1000.81 4.8468 0.146138 0
M  V30 10636 N 1002.15 -0.195058 1.56388 0
M  V30 10637 C 1003.43 -0.941335 1.71459 0
M  V30 10638 C 1003.81 -2.01375 0.633336 0
M  V30 10639 O 1003.16 -2.25715 -0.35567 0
M  V30 10640 C 1003.37 -1.52772 3.13786 0
M  V30 10641 C 1004.71 -2.00983 3.7402 0
M  V30 10642 O 1005.74 -1.62614 3.16915 0
M  V30 10643 O 1004.6 -2.71586 4.7424 0
M  V30 10644 H 1001.69 -0.441451 0.699321 0
M  V30 10645 H 1004.24 -0.184752 1.68691 0
M  V30 10646 H 1003.01 -0.754699 3.83953 0
M  V30 10647 H 1002.63 -2.34914 3.20782 0
M  V30 10648 N 1003.63 -1.50653 -0.462772 0
M  V30 10649 C 1004.59 -1.69561 -1.54213 0
M  V30 10650 C 1005.59 -0.566106 -1.50505 0
M  V30 10651 O 1006.78 -0.833273 -1.52978 0
M  V30 10652 C 1003.91 -1.72856 -2.93826 0
M  V30 10653 H 1005.11 -2.65867 -1.38761 0
M  V30 10654 H 1002.66 -1.40259 -0.689728 0
M  V30 10655 H 1003.4 -0.78273 -3.14712 0
M  V30 10656 H 1003.18 -2.54919 -2.97924 0
M  V30 10657 H 1004.67 -1.89411 -3.72174 0
M  V30 10658 N 1005.11 0.71652 -1.4037 0
M  V30 10659 C 1006.52 1.02447 -1.22379 0
M  V30 10660 C 1006.72 2.0126 -0.0983394 0
M  V30 10661 O 1005.78 2.46569 0.544071 0
M  V30 10662 C 1007.09 1.56909 -2.56515 0
M  V30 10663 C 1008.64 1.68898 -2.6352 0
M  V30 10664 C 1009.12 2.26765 -3.97922 0
M  V30 10665 N 1010.61 2.34152 -3.99658 0
M  V30 10666 C 1011.34 2.79907 -5.00439 0
M  V30 10667 N 1010.84 3.25422 -6.11615 0
M  V30 10668 N 1012.63 2.79283 -4.87809 0
M  V30 10669 H 1004.78 0.0615306 -2.12311 0
M  V30 10670 H 1007.05 0.0898994 -0.943728 0
M  V30 10671 H 1006.75 0.917649 -3.39517 0
M  V30 10672 H 1006.63 2.55446 -2.77538 0
M  V30 10673 H 1009.01 2.33159 -1.8089 0
M  V30 10674 H 1009.09 0.689626 -2.46329 0
M  V30 10675 H 1008.74 1.63126 -4.80991 0
M  V30 10676 H 1008.67 3.27413 -4.12442 0
M  V30 10677 H 1011.16 2.02006 -3.19378 0
M  V30 10678 H 1011.47 3.58899 -6.84406 0
M  V30 10679 H 1009.82 3.23383 -6.15181 0
M  V30 10680 H 1013.01 2.43061 -4.00049 0
M  V30 10681 H 1013.18 3.14626 -5.66493 0
M  V30 10682 N 1006.59 1.25851 0.948643 0
M  V30 10683 C 1008 1.09975 1.50872 0
M  V30 10684 C 1008.35 -0.322497 1.93531 0
M  V30 10685 O 1007.47 -1.21316 1.79197 0
M  V30 10686 C 1008.07 1.99021 2.74182 0
M  V30 10687 C 1006.63 1.87313 3.26483 0
M  V30 10688 C 1005.77 1.92815 1.99293 0
M  V30 10689 H 1008.73 1.3905 0.764908 0
M  V30 10690 H 1008.75 1.53372 3.4822 0
M  V30 10691 H 1008.26 3.02527 2.43103 0
M  V30 10692 H 1006.36 0.867136 3.62369 0
M  V30 10693 H 1006.47 2.72446 3.94094 0
M  V30 10694 H 1004.84 1.36774 2.1486 0
M  V30 10695 H 1005.62 2.97936 1.70554 0
M  V30 10696 N 1008.06 -1.15214 1.07534 0
M  V30 10697 C 1009.29 -1.90463 0.820883 0
M  V30 10698 C 1009.71 -1.77578 -0.620305 0
M  V30 10699 O 1009.07 -1.10976 -1.43366 0
M  V30 10700 C 1009.12 -3.38746 1.23627 0
M  V30 10701 O 1008.22 -4.1062 0.382715 0
M  V30 10702 H 1007.57 -0.59292 0.298901 0
M  V30 10703 H 1010.1 -1.45893 1.43445 0
M  V30 10704 H 1010.11 -3.89543 1.21327 0
M  V30 10705 H 1008.78 -3.47443 2.28596 0
M  V30 10706 H 1007.36 -3.69947 0.468374 0
M  V30 10707 N 1009.54 -0.859717 -1.32086 0
M  V30 10708 C 1010.47 -0.323502 -2.31248 0
M  V30 10709 C 1011.45 0.580085 -1.59903 0
M  V30 10710 O 1012.64 0.499265 -1.87673 0
M  V30 10711 C 1009.77 0.484661 -3.43902 0
M  V30 10712 C 1008.72 -0.324933 -4.26765 0
M  V30 10713 C 1008.05 0.608281 -5.31229 0
M  V30 10714 C 1009.35 -1.55344 -4.98664 0
M  V30 10715 H 1011.04 -1.15209 -2.76346 0
M  V30 10716 H 1008.59 -0.555442 -1.32856 0
M  V30 10717 H 1010.54 0.870238 -4.12316 0
M  V30 10718 H 1009.27 1.34666 -2.97544 0
M  V30 10719 H 1007.92 -0.692328 -3.60003 0
M  V30 10720 H 1007.57 1.46727 -4.81124 0
M  V30 10721 H 1007.27 0.0705571 -5.87558 0
M  V30 10722 H 1008.8 0.990925 -6.02506 0
M  V30 10723 H 1010.21 -1.23987 -5.59732 0
M  V30 10724 H 1008.61 -2.02947 -5.64741 0
M  V30 10725 H 1009.68 -2.31192 -4.26237 0
M  V30 10726 N 1011.02 1.44971 -0.618145 0
M  V30 10727 C 1012.25 2.06228 -0.123985 0
M  V30 10728 C 1012.66 1.46166 1.20134 0
M  V30 10729 O 1012 0.574099 1.74499 0
M  V30 10730 C 1012.06 3.59413 0.0789098 0
M  V30 10731 C 1011.73 4.41869 -1.16624 0
M  V30 10732 C 1012.72 4.76177 -2.0869 0
M  V30 10733 C 1010.41 4.82453 -1.39802 0
M  V30 10734 C 1012.4 5.49938 -3.22254 0
M  V30 10735 C 1010.09 5.55965 -2.53665 0
M  V30 10736 C 1011.09 5.89626 -3.44718 0
M  V30 10737 O 1010.78 6.61644 -4.56598 0
M  V30 10738 H 1010.51 0.672274 -0.0708822 0
M  V30 10739 H 1013.06 1.87038 -0.848868 0
M  V30 10740 H 1011.29 3.77043 0.8588 0
M  V30 10741 H 1012.98 4.02478 0.52599 0
M  V30 10742 H 1013.75 4.45372 -1.92012 0
M  V30 10743 H 1009.63 4.55681 -0.698245 0
M  V30 10744 H 1013.17 5.76129 -3.93347 0
M  V30 10745 H 1009.07 5.86185 -2.70291 0
M  V30 10746 H 1009.84 6.80103 -4.55414 0
M  V30 10747 N 1012.5 0.357919 1.53482 0
M  V30 10748 C 1013.46 -0.479797 2.24122 0
M  V30 10749 C 1014.46 -1.01596 1.24639 0
M  V30 10750 O 1015.65 -0.902928 1.48973 0
M  V30 10751 C 1012.78 -1.66983 2.97203 0
M  V30 10752 H 1013.98 0.138219 2.99581 0
M  V30 10753 H 1011.53 0.109484 1.55916 0
M  V30 10754 H 1012.26 -2.32615 2.25966 0
M  V30 10755 H 1012.05 -1.29242 3.70188 0
M  V30 10756 H 1013.54 -2.26367 3.50924 0
M  V30 10757 N 1013.98 -1.5736 0.0868897 0
M  V30 10758 C 1014.91 -2.10582 -0.904858 0
M  V30 10759 C 1015.92 -1.04124 -1.25148 0
M  V30 10760 O 1017.11 -1.31595 -1.20603 0
M  V30 10761 C 1014.21 -2.56381 -2.21635 0
M  V30 10762 C 1013.38 -3.86581 -2.04631 0
M  V30 10763 C 1012.44 -4.18313 -3.19219 0
M  V30 10764 O 1011.47 -4.87669 -2.93544 0
M  V30 10765 N 1012.67 -3.73061 -4.44754 0
M  V30 10766 H 1015.44 -2.96297 -0.450352 0
M  V30 10767 H 1013 -1.616 -0.0984376 0
M  V30 10768 H 1014.99 -2.7466 -2.97227 0
M  V30 10769 H 1013.56 -1.75721 -2.58536 0
M  V30 10770 H 1012.78 -3.77532 -1.13417 0
M  V30 10771 H 1014.07 -4.71777 -1.90537 0
M  V30 10772 H 1013.46 -3.1706 -4.68497 0
M  V30 10773 H 1012.02 -3.96511 -5.17322 0
M  V30 10774 N 1015.45 0.186762 -1.56489 0
M  V30 10775 C 1016.7 0.907194 -1.81378 0
M  V30 10776 C 1017.03 1.82558 -0.662283 0
M  V30 10777 O 1016.31 1.91564 0.336699 0
M  V30 10778 C 1016.59 1.71624 -3.16571 0
M  V30 10779 C 1016.44 0.822009 -4.42225 0
M  V30 10780 C 1017.76 2.68713 -3.48542 0
M  V30 10781 H 1014.88 0.328366 -0.659806 0
M  V30 10782 H 1017.52 0.174142 -1.892 0
M  V30 10783 H 1015.67 2.34119 -3.10033 0
M  V30 10784 H 1017.35 0.211122 -4.60817 0
M  V30 10785 H 1015.59 0.129178 -4.33608 0
M  V30 10786 H 1016.26 1.42326 -5.33336 0
M  V30 10787 H 1018.74 2.16348 -3.55433 0
M  V30 10788 H 1017.61 3.22397 -4.44242 0
M  V30 10789 H 1017.87 3.48165 -2.72459 0
M  V30 10790 N 1016.93 1.50896 0.454776 0
M  V30 10791 C 1017.86 1.6712 1.56855 0
M  V30 10792 C 1018.88 0.552223 1.53148 0
M  V30 10793 O 1020.07 0.825969 1.5824 0
M  V30 10794 C 1017.17 1.65464 2.95762 0
M  V30 10795 C 1016.34 2.93662 3.24163 0
M  V30 10796 C 1015.4 2.84428 4.42704 0
M  V30 10797 O 1014.42 3.58382 4.42211 0
M  V30 10798 N 1015.63 1.9909 5.45292 0
M  V30 10799 H 1018.39 2.63194 1.43349 0
M  V30 10800 H 1015.95 1.48564 0.643457 0
M  V30 10801 H 1017.94 1.56878 3.73057 0
M  V30 10802 H 1016.51 0.770568 3.02954 0
M  V30 10803 H 1015.73 3.16251 2.35328 0
M  V30 10804 H 1017.02 3.78558 3.39957 0
M  V30 10805 H 1016.42 1.3835 5.48521 0
M  V30 10806 H 1014.98 1.96396 6.21508 0
M  V30 10807 N 1018.41 -0.709066 1.40748 0
M  V30 10808 C 1019.36 -1.82312 1.4153 0
M  V30 10809 C 1020.33 -1.63868 0.271392 0
M  V30 10810 O 1021.51 -1.8491 0.470431 0
M  V30 10811 C 1018.65 -3.2008 1.29006 0
M  V30 10812 C 1017.77 -3.50051 2.53156 0
M  V30 10813 C 1016.9 -4.7736 2.33025 0
M  V30 10814 C 1015.94 -5.00255 3.52719 0
M  V30 10815 N 1015.08 -6.18782 3.31743 0
M  V30 10816 H 1019.92 -1.80978 2.36751 0
M  V30 10817 H 1017.45 -0.883975 1.17577 0
M  V30 10818 H 1019.41 -3.99645 1.19749 0
M  V30 10819 H 1018.04 -3.20626 0.374014 0
M  V30 10820 H 1017.09 -2.64993 2.72916 0
M  V30 10821 H 1018.41 -3.62877 3.42231 0
M  V30 10822 H 1017.56 -5.64954 2.21159 0
M  V30 10823 H 1016.3 -4.66756 1.41386 0
M  V30 10824 H 1015.3 -4.11114 3.65055 0
M  V30 10825 H 1016.53 -5.12728 4.45295 0
M  V30 10826 H 1014.47 -6.09416 2.42791 0
M  V30 10827 H 1014.39 -6.32313 4.14386 0
M  V30 10828 H 1015.66 -7.09146 3.23623 0
M  V30 10829 N 1019.89 -1.26353 -0.941956 0
M  V30 10830 C 1021.3 -1.10774 -1.50287 0
M  V30 10831 C 1021.65 0.312229 -1.937 0
M  V30 10832 O 1020.78 1.20364 -1.79838 0
M  V30 10833 C 1021.37 -2.00473 -2.73123 0
M  V30 10834 C 1019.93 -1.89042 -3.25485 0
M  V30 10835 C 1019.08 -1.93869 -1.98267 0
M  V30 10836 H 1022.03 -1.39454 -0.757523 0
M  V30 10837 H 1022.05 -1.55216 -3.47402 0
M  V30 10838 H 1021.56 -3.03812 -2.41495 0
M  V30 10839 H 1019.66 -0.886341 -3.61904 0
M  V30 10840 H 1019.78 -2.74533 -3.92643 0
M  V30 10841 H 1018.14 -1.37912 -2.14132 0
M  V30 10842 H 1018.92 -2.98837 -1.68972 0
M  V30 10843 N 1021.37 1.14642 -1.08144 0
M  V30 10844 C 1022.78 1.6719 -0.830923 0
M  V30 10845 C 1023.13 1.85373 0.642749 0
M  V30 10846 O 1022.25 1.56293 1.49671 0
M  V30 10847 C 1022.85 3.03697 -1.50179 0
M  V30 10848 C 1021.41 3.5329 -1.29858 0
M  V30 10849 C 1020.56 2.28828 -1.5663 0
M  V30 10850 H 1023.51 0.987441 -1.24239 0
M  V30 10851 H 1023.53 3.69023 -0.9275 0
M  V30 10852 H 1023.04 2.90431 -2.57432 0
M  V30 10853 H 1021.14 3.71783 -0.246626 0
M  V30 10854 H 1021.25 4.34231 -2.02436 0
M  V30 10855 H 1019.62 2.34769 -0.987716 0
M  V30 10856 H 1020.4 2.18141 -2.65084 0
M  V30 10857 N 1022.85 0.866709 1.31628 0
M  V30 10858 C 1024.26 0.558188 1.49521 0
M  V30 10859 C 1024.46 -0.90844 1.7986 0
M  V30 10860 O 1023.52 -1.6908 1.87531 0
M  V30 10861 C 1024.83 1.45559 2.63122 0
M  V30 10862 C 1026.38 1.45728 2.77006 0
M  V30 10863 C 1026.85 2.34017 3.937 0
M  V30 10864 N 1028.34 2.31879 4.00982 0
M  V30 10865 C 1029.08 2.96915 4.90539 0
M  V30 10866 N 1028.58 3.71109 5.85021 0
M  V30 10867 N 1030.37 2.86241 4.83759 0
M  V30 10868 H 1022.52 1.81574 1.10203 0
M  V30 10869 H 1024.78 0.77621 0.544244 0
M  V30 10870 H 1024.49 2.49904 2.47469 0
M  V30 10871 H 1024.36 1.15174 3.59186 0
M  V30 10872 H 1026.75 0.421419 2.92075 0
M  V30 10873 H 1026.83 1.80134 1.81619 0
M  V30 10874 H 1026.47 3.37678 3.79389 0
M  V30 10875 H 1026.4 1.96937 4.88388 0
M  V30 10876 H 1028.9 1.77948 3.33381 0
M  V30 10877 H 1029.21 4.1787 6.5008 0
M  V30 10878 H 1027.55 3.75217 5.8501 0
M  V30 10879 H 1030.74 2.27819 4.08921 0
M  V30 10880 H 1030.92 3.37206 5.5335 0
M  V30 10881 N 1024.32 -1.44642 0.625825 0
M  V30 10882 C 1025.27 -2.27762 -0.104042 0
M  V30 10883 C 1026.26 -1.38364 -0.821232 0
M  V30 10884 O 1027.45 -1.62214 -0.708213 0
M  V30 10885 C 1024.58 -3.25585 -1.08853 0
M  V30 10886 C 1023.66 -4.22472 -0.371241 0
M  V30 10887 N 1024.06 -5.02262 0.597226 0
M  V30 10888 C 1022.35 -4.4172 -0.616392 0
M  V30 10889 C 1023.05 -5.72678 1.02053 0
M  V30 10890 N 1022.03 -5.42404 0.360423 0
M  V30 10891 H 1025.83 -2.86858 0.639517 0
M  V30 10892 H 1023.35 -1.56015 0.450911 0
M  V30 10893 H 1025.34 -3.83885 -1.62597 0
M  V30 10894 H 1024 -2.68051 -1.83245 0
M  V30 10895 H 1025.01 -5.08643 0.974803 0
M  V30 10896 H 1021.69 -3.9529 -1.34359 0
M  V30 10897 H 1023.08 -6.46772 1.82033 0
M  V30 10898 N 1025.8 -0.366053 -1.5329 0
M  V30 10899 C 1026.76 0.467904 -2.24373 0
M  V30 10900 C 1027.76 1.00934 -1.25176 0
M  V30 10901 O 1028.95 0.895015 -1.49449 0
M  V30 10902 C 1026.09 1.65405 -2.98084 0
M  V30 10903 H 1027.28 -0.154105 -2.99504 0
M  V30 10904 H 1024.83 -0.117751 -1.55856 0
M  V30 10905 H 1025.57 2.31413 -2.27197 0
M  V30 10906 H 1025.35 1.27277 -3.70868 0
M  V30 10907 H 1026.84 2.24503 -3.52119 0
M  V30 10908 N 1027.28 1.57312 -0.0952337 0
M  V30 10909 C 1028.69 1.81589 0.433875 0
M  V30 10910 C 1029.04 1.01086 1.68155 0
M  V30 10911 O 1028.17 0.240272 2.15062 0
M  V30 10912 C 1028.76 3.29366 0.793931 0
M  V30 10913 C 1027.32 3.54407 1.26778 0
M  V30 10914 C 1026.47 2.76035 0.264518 0
M  V30 10915 H 1029.42 1.55426 -0.320675 0
M  V30 10916 H 1029.44 3.42697 1.65345 0
M  V30 10917 H 1028.95 3.87932 -0.114334 0
M  V30 10918 H 1027.05 3.01173 2.19376 0
M  V30 10919 H 1027.17 4.63055 1.22952 0
M  V30 10920 H 1025.53 2.43509 0.746691 0
M  V30 10921 H 1026.31 3.37349 -0.636429 0
M  V30 10922 N 1028.76 -0.17846 1.56586 0
M  V30 10923 C 1030.01 -0.894464 1.81228 0
M  V30 10924 C 1030.33 -1.83089 0.671062 0
M  V30 10925 O 1029.6 -1.93439 -0.309557 0
M  V30 10926 H 1028.18 -0.333288 0.668527 0
M  V30 10927 H 1030.84 -0.179986 1.94067 0
M  V30 10928 H 1029.93 -1.47565 2.75011 0
M  V30 10929 N 1030.24 -1.51135 -0.446768 0
M  V30 10930 C 1031.2 -1.71187 -1.52406 0
M  V30 10931 C 1032.2 -0.582037 -1.49897 0
M  V30 10932 O 1033.39 -0.849452 -1.52085 0
M  V30 10933 C 1030.52 -1.75962 -2.91976 0
M  V30 10934 H 1031.71 -2.67324 -1.35934 0
M  V30 10935 H 1029.27 -1.40982 -0.674813 0
M  V30 10936 H 1030 -0.816065 -3.13864 0
M  V30 10937 H 1029.79 -2.58065 -2.95203 0
M  V30 10938 H 1031.28 -1.93347 -3.70144 0
M  V30 10939 N 1031.71 0.701592 -1.41122 0
M  V30 10940 C 1032.66 1.80755 -1.38966 0
M  V30 10941 C 1033.65 1.58703 -0.264964 0
M  V30 10942 O 1034.84 1.69638 -0.505168 0
M  V30 10943 C 1031.97 3.1901 -1.26836 0
M  V30 10944 C 1031.05 3.46777 -2.44144 0
M  V30 10945 N 1031.45 3.45278 -3.69617 0
M  V30 10946 C 1029.74 3.77299 -2.37826 0
M  V30 10947 C 1030.44 3.71782 -4.47385 0
M  V30 10948 N 1029.42 3.91228 -3.77415 0
M  V30 10949 H 1033.22 1.7795 -2.33904 0
M  V30 10950 H 1030.74 0.901325 -1.35092 0
M  V30 10951 H 1032.73 3.98227 -1.23373 0
M  V30 10952 H 1031.39 3.23031 -0.328777 0
M  V30 10953 H 1032.4 3.258 -4.02585 0
M  V30 10954 H 1029.08 3.88727 -1.52309 0
M  V30 10955 H 1030.47 3.7681 -5.56295 0
M  V30 10956 N 1033.19 1.2685 0.935242 0
M  V30 10957 C 1034.44 1.12522 1.67878 0
M  V30 10958 C 1034.76 -0.330894 1.92172 0
M  V30 10959 O 1034.03 -1.23259 1.52263 0
M  V30 10960 H 1032.61 0.413418 0.622169 0
M  V30 10961 H 1035.27 1.59267 1.12339 0
M  V30 10962 H 1034.37 1.64853 2.65009 0
M  V30 10963 N 1034.67 -1.14067 1.0875 0
M  V30 10964 C 1035.92 -1.84819 0.817698 0
M  V30 10965 C 1036.24 -1.83545 -0.658488 0
M  V30 10966 O 1035.51 -1.28633 -1.47751 0
M  V30 10967 H 1034.09 -0.68433 0.299502 0
M  V30 10968 H 1036.75 -1.38208 1.37421 0
M  V30 10969 H 1035.85 -2.89541 1.16501 0
M  V30 10970 N 1036.15 -0.873678 -1.31166 0
M  V30 10971 C 1037.56 -0.53852 -1.78765 0
M  V30 10972 C 1037.91 0.944765 -1.71955 0
M  V30 10973 O 1037.04 1.73781 -1.28954 0
M  V30 10974 C 1037.63 -0.970749 -3.24595 0
M  V30 10975 C 1036.19 -0.687189 -3.70074 0
M  V30 10976 C 1035.34 -1.16001 -2.51871 0
M  V30 10977 H 1038.29 -1.05903 -1.18196 0
M  V30 10978 H 1038.31 -0.294966 -3.79355 0
M  V30 10979 H 1037.82 -2.05034 -3.29519 0
M  V30 10980 H 1035.92 0.380881 -3.70648 0
M  V30 10981 H 1036.03 -1.26682 -4.62048 0
M  V30 10982 H 1034.4 -0.579663 -2.48016 0
M  V30 10983 H 1035.18 -2.2471 -2.59539 0
M  V30 10984 N 1037.63 1.44308 -0.633487 0
M  V30 10985 C 1038.87 2.01624 -0.138643 0
M  V30 10986 C 1039.2 1.50101 1.24477 0
M  V30 10987 O 1038.47 0.705575 1.82752 0
M  V30 10988 H 1037.05 0.745439 -0.0482636 0
M  V30 10989 H 1039.71 1.76777 -0.820719 0
M  V30 10990 H 1038.8 3.11913 -0.108136 0
M  V30 10991 N 1039.1 0.374177 1.53094 0
M  V30 10992 C 1040.01 -0.475935 2.29722 0
M  V30 10993 C 1041.03 -1.085 1.36029 0
M  V30 10994 O 1042.21 -1.09408 1.69091 0
M  V30 10995 C 1039.27 -1.59572 3.07795 0
M  V30 10996 C 1038.33 -1.01332 4.17169 0
M  V30 10997 C 1037.57 -2.07975 4.9151 0
M  V30 10998 O 1037.79 -3.29232 4.65793 0
M  V30 10999 O 1036.72 -1.7055 5.77232 0
M  V30 11000 H 1040.55 0.147877 3.0334 0
M  V30 11001 H 1038.13 0.138312 1.48758 0
M  V30 11002 H 1040.02 -2.24658 3.5652 0
M  V30 11003 H 1038.69 -2.20478 2.37005 0
M  V30 11004 H 1037.6 -0.326133 3.72676 0
M  V30 11005 H 1038.93 -0.4487 4.90151 0
M  V30 11006 N 1040.58 -1.57259 0.103575 0
M  V30 11007 C 1041.52 -2.10165 -0.889141 0
M  V30 11008 C 1042.49 -1.01426 -1.27089 0
M  V30 11009 O 1043.68 -1.2898 -1.37465 0
M  V30 11010 C 1040.8 -2.58564 -2.18774 0
M  V30 11011 C 1039.85 -3.79043 -1.95522 0
M  V30 11012 S 1040.68 -5.22213 -1.18551 0
M  V30 11013 C 1041.84 -5.73968 -2.49623 0
M  V30 11014 H 1042.07 -2.9404 -0.439083 0
M  V30 11015 H 1039.61 -1.54008 -0.10989 0
M  V30 11016 H 1041.56 -2.87106 -2.93395 0
M  V30 11017 H 1040.22 -1.749 -2.609 0
M  V30 11018 H 1039.42 -4.11004 -2.91705 0
M  V30 11019 H 1039.02 -3.51038 -1.29028 0
M  V30 11020 H 1041.31 -5.82752 -3.45553 0
M  V30 11021 H 1042.25 -6.72324 -2.22229 0
M  V30 11022 H 1042.66 -5.01946 -2.58284 0
M  V30 11023 N 1042.06 0.170153 -1.56679 0
M  V30 11024 C 1043.02 1.19443 -1.95617 0
M  V30 11025 C 1044.02 1.37118 -0.83996 0
M  V30 11026 O 1045.21 1.34504 -1.10699 0
M  V30 11027 C 1042.35 2.55926 -2.25199 0
M  V30 11028 H 1043.54 0.86095 -2.87276 0
M  V30 11029 H 1041.09 0.412646 -1.50755 0
M  V30 11030 H 1041.83 2.94286 -1.36257 0
M  V30 11031 H 1041.61 2.44464 -3.06562 0
M  V30 11032 H 1043.1 3.29742 -2.56242 0
M  V30 11033 N 1043.54 1.5137 0.438746 0
M  V30 11034 C 1044.5 1.71993 1.51496 0
M  V30 11035 C 1045.5 0.589978 1.49586 0
M  V30 11036 O 1046.69 0.857505 1.51633 0
M  V30 11037 C 1043.82 1.77508 2.91039 0
M  V30 11038 H 1045.02 2.68041 1.34514 0
M  V30 11039 H 1042.57 1.41338 0.667326 0
M  V30 11040 H 1043.3 0.832698 3.13427 0
M  V30 11041 H 1043.09 2.59627 2.9383 0
M  V30 11042 H 1044.58 1.95308 3.69113 0
M  V30 11043 N 1045.02 -0.694098 1.41492 0
M  V30 11044 C 1045.95 -1.81841 1.37873 0
M  V30 11045 C 1046.93 -1.60732 0.245772 0
M  V30 11046 O 1048.11 -1.83461 0.432917 0
M  V30 11047 C 1045.24 -3.18543 1.15099 0
M  V30 11048 C 1044.28 -3.5844 2.31133 0
M  V30 11049 S 1045.12 -3.63079 3.93617 0
M  V30 11050 C 1046.27 -5.02505 3.73148 0
M  V30 11051 H 1046.51 -1.84634 2.33018 0
M  V30 11052 H 1044.04 -0.862948 1.28033 0
M  V30 11053 H 1046 -3.9746 1.02646 0
M  V30 11054 H 1044.66 -3.13358 0.21572 0
M  V30 11055 H 1043.85 -4.57754 2.10896 0
M  V30 11056 H 1043.45 -2.86837 2.40002 0
M  V30 11057 H 1045.75 -5.90046 3.32945 0
M  V30 11058 H 1046.69 -5.27784 4.72069 0
M  V30 11059 H 1047.1 -4.74113 3.06394 0
M  V30 11060 N 1046.49 -1.27344 -0.928501 0
M  V30 11061 C 1047.74 -1.13019 -1.67061 0
M  V30 11062 C 1048.06 0.323614 -1.92904 0
M  V30 11063 O 1049.26 0.587752 -2.65062 0
M  V30 11064 C 1047.72 -1.97471 -3.00887 0
M  V30 11065 C 1047.33 -3.47504 -2.82746 0
M  V30 11066 C 1049.07 -1.91792 -3.78703 0
M  V30 11067 C 1046.98 -4.24158 -4.12122 0
M  V30 11068 H 1045.91 -0.419364 -0.626618 0
M  V30 11069 H 1048.56 -1.51759 -1.03158 0
M  V30 11070 H 1046.94 -1.51576 -3.65843 0
M  V30 11071 H 1048.11 -4.01256 -2.26562 0
M  V30 11072 H 1046.43 -3.54554 -2.18359 0
M  V30 11073 H 1049.03 -2.46339 -4.74575 0
M  V30 11074 H 1049.37 -0.891375 -4.06645 0
M  V30 11075 H 1049.9 -2.35578 -3.20543 0
M  V30 11076 H 1046.64 -5.27333 -3.89359 0
M  V30 11077 H 1046.16 -3.75183 -4.67972 0
M  V30 11078 H 1047.84 -4.33288 -4.80489 0
M  V30 11079 N 1047.97 1.13488 -1.09353 0
M  V30 11080 C 1048.88 2.2248 -0.744307 0
M  V30 11081 C 1049.9 1.72145 0.253404 0
M  V30 11082 O 1051.07 2.01176 0.0949339 0
M  V30 11083 C 1048.14 3.46286 -0.16928 0
M  V30 11084 C 1047.2 4.11516 -1.22284 0
M  V30 11085 C 1046.43 5.29412 -0.675161 0
M  V30 11086 O 1046.66 5.68185 0.502182 0
M  V30 11087 O 1045.59 5.8467 -1.42983 0
M  V30 11088 H 1049.42 2.54723 -1.65378 0
M  V30 11089 H 1047 1.21607 -0.867879 0
M  V30 11090 H 1048.88 4.2114 0.14811 0
M  V30 11091 H 1047.56 3.15745 0.713214 0
M  V30 11092 H 1046.47 3.38492 -1.59292 0
M  V30 11093 H 1047.8 4.46186 -2.07796 0
M  V30 11094 N 1049.45 0.880621 1.30701 0
M  V30 11095 C 1050.7 0.497611 1.966 0
M  V30 11096 C 1051.03 -0.949901 1.69383 0
M  V30 11097 O 1050.31 -1.67054 0.996152 0
M  V30 11098 C 1050.59 0.767919 3.51817 0
M  V30 11099 C 1050.44 2.26574 3.88567 0
M  V30 11100 C 1051.76 0.241502 4.39437 0
M  V30 11101 H 1048.88 0.182267 0.714106 0
M  V30 11102 H 1051.52 1.10382 1.54648 0
M  V30 11103 H 1049.67 0.251967 3.87682 0
M  V30 11104 H 1051.34 2.84977 3.62748 0
M  V30 11105 H 1049.59 2.73411 3.36792 0
M  V30 11106 H 1050.26 2.40549 4.9683 0
M  V30 11107 H 1052.73 0.683051 4.10455 0
M  V30 11108 H 1051.61 0.459997 5.46969 0
M  V30 11109 H 1051.87 -0.857068 4.33713 0
M  V30 11110 N 1050.93 -1.4397 0.641131 0
M  V30 11111 C 1051.88 -2.30728 -0.0577905 0
M  V30 11112 C 1052.85 -1.44059 -0.826819 0
M  V30 11113 O 1054.03 -1.72947 -0.805853 0
M  V30 11114 C 1051.17 -3.29478 -1.02657 0
M  V30 11115 C 1050.28 -4.31247 -0.254913 0
M  V30 11116 C 1049.42 -5.17085 -1.2164 0
M  V30 11117 C 1048.46 -6.10556 -0.434481 0
M  V30 11118 N 1047.6 -6.89059 -1.34694 0
M  V30 11119 H 1052.44 -2.8995 0.687953 0
M  V30 11120 H 1049.97 -1.4285 0.351029 0
M  V30 11121 H 1051.93 -3.85228 -1.60173 0
M  V30 11122 H 1050.56 -2.71932 -1.73933 0
M  V30 11123 H 1049.61 -3.77889 0.436338 0
M  V30 11124 H 1050.92 -4.97545 0.353642 0
M  V30 11125 H 1050.08 -5.77402 -1.86258 0
M  V30 11126 H 1048.82 -4.50885 -1.85888 0
M  V30 11127 H 1047.82 -5.49339 0.225125 0
M  V30 11128 H 1049.05 -6.78795 0.203415 0
M  V30 11129 H 1046.99 -6.25518 -1.97644 0
M  V30 11130 H 1046.91 -7.51833 -0.792657 0
M  V30 11131 H 1048.18 -7.5389 -1.98165 0
M  V30 11132 N 1052.41 -0.382291 -1.52893 0
M  V30 11133 C 1053.35 0.456234 -2.26246 0
M  V30 11134 C 1054.32 1.06366 -1.27575 0
M  V30 11135 O 1055.51 1.09301 -1.5639 0
M  V30 11136 C 1052.65 1.5813 -3.06739 0
M  V30 11137 C 1051.76 0.997416 -4.20328 0
M  V30 11138 C 1050.9 2.09296 -4.8823 0
M  V30 11139 C 1049.94 1.4846 -5.93823 0
M  V30 11140 N 1049.07 2.51916 -6.55349 0
M  V30 11141 H 1053.91 -0.175761 -2.97481 0
M  V30 11142 H 1051.45 -0.0985046 -1.4677 0
M  V30 11143 H 1053.41 2.24426 -3.51694 0
M  V30 11144 H 1052.04 2.18371 -2.37727 0
M  V30 11145 H 1051.09 0.224251 -3.79738 0
M  V30 11146 H 1052.4 0.512784 -4.96157 0
M  V30 11147 H 1051.56 2.83377 -5.36453 0
M  V30 11148 H 1050.3 2.61116 -4.1191 0
M  V30 11149 H 1049.3 0.729001 -5.44946 0
M  V30 11150 H 1050.53 0.97443 -6.72073 0
M  V30 11151 H 1048.47 3.02919 -5.81873 0
M  V30 11152 H 1048.39 2.08188 -7.26769 0
M  V30 11153 H 1049.66 3.25649 -7.08218 0
M  V30 11154 N 1053.89 1.57202 -0.111913 0
M  V30 11155 C 1055.16 1.86459 0.590972 0
M  V30 11156 C 1055.54 1.01182 1.85271 0
M  V30 11157 O 1054.89 0.0887891 2.28327 0
M  V30 11158 C 1055.1 3.37455 0.890225 0
M  V30 11159 C 1056.45 4.05895 1.24638 0
M  V30 11160 O 1057.47 3.42433 0.980713 0
M  V30 11161 O 1056.33 5.17903 1.74466 0
M  V30 11162 H 1053.43 0.771652 0.297459 0
M  V30 11163 H 1055.97 1.69072 -0.145882 0
M  V30 11164 H 1054.74 3.913 -0.00419012 0
M  V30 11165 H 1054.37 3.60248 1.68248 0
M  V30 11166 N 1055.36 -0.161842 1.56767 0
M  V30 11167 C 1056.27 -1.21996 2.00385 0
M  V30 11168 C 1057.29 -1.4789 0.916768 0
M  V30 11169 O 1058.47 -1.59852 1.22513 0
M  V30 11170 C 1055.53 -2.53695 2.36305 0
M  V30 11171 C 1054.59 -2.3558 3.58888 0
M  V30 11172 C 1053.82 -3.60998 3.93085 0
M  V30 11173 O 1054.05 -4.6657 3.28129 0
M  V30 11174 O 1052.98 -3.54544 4.86397 0
M  V30 11175 H 1056.81 -0.879701 2.9068 0
M  V30 11176 H 1054.39 -0.369437 1.4476 0
M  V30 11177 H 1056.27 -3.31366 2.60335 0
M  V30 11178 H 1054.95 -2.87281 1.49169 0
M  V30 11179 H 1053.86 -1.55908 3.40064 0
M  V30 11180 H 1055.19 -2.06915 4.46595 0
M  V30 11181 N 1056.84 -1.516 -0.430713 0
M  V30 11182 C 1057.8 -1.72794 -1.50582 0
M  V30 11183 C 1058.8 -0.597903 -1.49271 0
M  V30 11184 O 1059.99 -0.865535 -1.51176 0
M  V30 11185 C 1057.13 -1.79049 -2.90093 0
M  V30 11186 H 1058.32 -2.68751 -1.33091 0
M  V30 11187 H 1055.87 -1.4169 -0.659822 0
M  V30 11188 H 1056.61 -0.849309 -3.12981 0
M  V30 11189 H 1056.39 -2.61181 -2.92449 0
M  V30 11190 H 1057.88 -1.97262 -3.68072 0
M  V30 11191 N 1058.32 0.686584 -1.41858 0
M  V30 11192 C 1059.6 1.44176 -1.32185 0
M  V30 11193 C 1059.98 2.11049 0.046362 0
M  V30 11194 O 1059.32 2.02365 1.06117 0
M  V30 11195 C 1059.53 2.45385 -2.48168 0
M  V30 11196 C 1060.88 3.10375 -2.89746 0
M  V30 11197 O 1061.91 2.55711 -2.47973 0
M  V30 11198 O 1060.77 4.09404 -3.62009 0
M  V30 11199 H 1057.86 0.642513 -0.520678 0
M  V30 11200 H 1060.41 0.716303 -1.53841 0
M  V30 11201 H 1059.18 1.94687 -3.3943 0
M  V30 11202 H 1058.8 3.25428 -2.28435 0
M  V30 11203 N 1059.8 1.27835 0.921735 0
M  V30 11204 C 1060.75 1.07723 2.00947 0
M  V30 11205 C 1061.73 0.00336676 1.609 0
M  V30 11206 O 1062.92 0.222593 1.75595 0
M  V30 11207 C 1060.05 0.732732 3.35389 0
M  V30 11208 C 1059.14 1.84504 3.81863 0
M  V30 11209 N 1059.53 3.08551 4.00787 0
M  V30 11210 C 1057.83 1.73308 4.10951 0
M  V30 11211 C 1058.53 3.80974 4.39584 0
M  V30 11212 N 1057.5 3.08773 4.47393 0
M  V30 11213 H 1061.31 2.01854 2.13617 0
M  V30 11214 H 1058.82 1.18637 1.109 0
M  V30 11215 H 1060.82 0.56975 4.12988 0
M  V30 11216 H 1059.48 -0.200885 3.24078 0
M  V30 11217 H 1060.49 3.44248 3.86928 0
M  V30 11218 H 1057.17 0.870698 4.0832 0
M  V30 11219 H 1058.56 4.87617 4.62255 0
M  V30 11220 N 1061.28 -1.12907 1.09954 0
M  V30 11221 C 1062.55 -1.80602 0.751148 0
M  V30 11222 C 1062.93 -1.96826 -0.763077 0
M  V30 11223 O 1062.28 -1.54066 -1.68749 0
M  V30 11224 C 1062.49 -3.15289 1.49646 0
M  V30 11225 C 1063.84 -3.9056 1.66578 0
M  V30 11226 O 1064.86 -3.24929 1.45943 0
M  V30 11227 O 1063.72 -5.08292 2.00752 0
M  V30 11228 H 1060.82 -0.781529 0.270446 0
M  V30 11229 H 1063.36 -1.19786 1.20206 0
M  V30 11230 H 1062.13 -2.9874 2.52725 0
M  V30 11231 H 1061.76 -3.83809 1.03808 0
M  V30 11232 N 1062.75 -0.88754 -1.30232 0
M  V30 11233 C 1064 -0.506277 -1.95656 0
M  V30 11234 C 1064.32 0.948191 -1.70395 0
M  V30 11235 O 1063.59 1.66701 -1.02895 0
M  V30 11236 H 1062.17 -0.184235 -0.723924 0
M  V30 11237 H 1064.83 -1.13118 -1.58715 0
M  V30 11238 H 1063.93 -0.678673 -3.04632 0
M  V30 11239 N 1064.23 1.43628 -0.648757 0
M  V30 11240 C 1065.51 1.95391 -0.0904551 0
M  V30 11241 C 1065.89 1.59021 1.38837 0
M  V30 11242 O 1065.24 0.873078 2.11163 0
M  V30 11243 C 1065.45 3.47418 -0.33196 0
M  V30 11244 C 1066.8 4.23952 -0.234521 0
M  V30 11245 O 1067.82 3.55218 -0.264276 0
M  V30 11246 O 1066.68 5.46282 -0.154428 0
M  V30 11247 H 1063.77 0.82691 0.0121884 0
M  V30 11248 H 1066.32 1.5359 -0.721685 0
M  V30 11249 H 1065.09 3.67001 -1.35741 0
M  V30 11250 H 1064.71 3.96207 0.332556 0
M  V30 11251 N 1065.71 0.390394 1.52688 0
M  V30 11252 C 1066.96 -0.191067 2.01195 0
M  V30 11253 C 1067.28 -1.47229 1.27862 0
M  V30 11254 O 1066.55 -1.91793 0.399007 0
M  V30 11255 H 1065.13 -0.073596 0.743366 0
M  V30 11256 H 1067.79 0.522334 1.8777 0
M  V30 11257 H 1066.89 -0.40051 3.0952 0
M  V30 11258 N 1067.19 -1.57141 0.120249 0
M  V30 11259 C 1068.6 -1.82256 -0.404931 0
M  V30 11260 C 1068.95 -1.03748 -1.66526 0
M  V30 11261 O 1068.08 -0.274456 -2.14653 0
M  V30 11262 C 1068.67 -3.30588 -0.741431 0
M  V30 11263 C 1067.23 -3.56379 -1.21124 0
M  V30 11264 C 1066.38 -2.76421 -0.220569 0
M  V30 11265 H 1069.33 -1.54897 0.345361 0
M  V30 11266 H 1069.35 -3.45284 -1.59872 0
M  V30 11267 H 1068.86 -3.87701 0.176036 0
M  V30 11268 H 1066.96 -3.04625 -2.14556 0
M  V30 11269 H 1067.07 -4.64952 -1.1557 0
M  V30 11270 H 1065.44 -2.44666 -0.707857 0
M  V30 11271 H 1066.22 -3.36294 0.690018 0
M  V30 11272 N 1068.67 0.153526 -1.5685 0
M  V30 11273 C 1070.08 0.714247 -1.72498 0
M  V30 11274 C 1070.43 1.81968 -0.733621 0
M  V30 11275 O 1069.55 2.16163 0.10118 0
M  V30 11276 C 1070.15 1.30238 -3.12767 0
M  V30 11277 C 1068.71 1.80974 -3.30038 0
M  V30 11278 C 1067.85 0.695638 -2.68433 0
M  V30 11279 H 1070.81 -0.0720733 -1.58536 0
M  V30 11280 H 1070.83 2.17217 -3.12405 0
M  V30 11281 H 1070.34 0.497605 -3.84897 0
M  V30 11282 H 1068.44 2.64039 -2.62895 0
M  V30 11283 H 1068.55 1.94294 -4.37934 0
M  V30 11284 H 1066.92 1.12061 -2.28723 0
M  V30 11285 H 1067.7 -0.0975885 -3.43161 0
M  V30 11286 N 1070.14 1.51827 0.422667 0
M  V30 11287 C 1071.37 1.68803 1.19117 0
M  V30 11288 C 1071.78 0.391228 1.85111 0
M  V30 11289 O 1071.13 -0.64148 1.72136 0
M  V30 11290 C 1071.19 2.75767 2.30636 0
M  V30 11291 C 1070.85 4.17929 1.8489 0
M  V30 11292 C 1071.85 5.02223 1.34416 0
M  V30 11293 C 1069.53 4.641 1.92136 0
M  V30 11294 C 1071.53 6.30756 0.917925 0
M  V30 11295 C 1069.21 5.92626 1.49123 0
M  V30 11296 C 1070.21 6.75782 0.990352 0
M  V30 11297 O 1069.9 8.01902 0.566386 0
M  V30 11298 H 1069.63 0.569303 0.364514 0
M  V30 11299 H 1072.19 1.9909 0.505208 0
M  V30 11300 H 1070.42 2.40827 3.02555 0
M  V30 11301 H 1072.11 2.81476 2.92448 0
M  V30 11302 H 1072.87 4.67749 1.28202 0
M  V30 11303 H 1068.75 3.99488 2.30066 0
M  V30 11304 H 1072.29 6.95612 0.52628 0
M  V30 11305 H 1068.19 6.26611 1.55012 0
M  V30 11306 H 1068.96 8.15579 0.690918 0
M  V30 11307 N 1071.62 -0.679052 1.4222 0
M  V30 11308 C 1072.9 -1.43473 1.32947 0
M  V30 11309 C 1073.28 -2.11071 -0.0351689 0
M  V30 11310 O 1072.63 -2.02925 -1.05042 0
M  V30 11311 C 1072.84 -2.44065 2.49466 0
M  V30 11312 C 1074.19 -3.08834 2.91387 0
M  V30 11313 O 1075.21 -2.54392 2.49325 0
M  V30 11314 O 1074.07 -4.07478 3.64175 0
M  V30 11315 H 1071.16 -0.639743 0.524078 0
M  V30 11316 H 1073.71 -0.708134 1.54219 0
M  V30 11317 H 1072.48 -1.92884 3.40457 0
M  V30 11318 H 1072.1 -3.24212 2.30158 0
M  V30 11319 N 1073.1 -1.28322 -0.914942 0
M  V30 11320 C 1074.33 -1.18254 -1.69775 0
M  V30 11321 C 1074.74 0.258978 -1.87015 0
M  V30 11322 O 1074.1 1.17514 -1.3963 0
M  V30 11323 C 1074.15 -1.8753 -3.09054 0
M  V30 11324 O 1073.87 -3.26051 -2.92613 0
M  V30 11325 C 1075.37 -1.83749 -4.03424 0
M  V30 11326 H 1072.59 -0.41055 -0.530744 0
M  V30 11327 H 1075.14 -1.69425 -1.14523 0
M  V30 11328 H 1073.29 -1.40233 -3.61128 0
M  V30 11329 H 1073.71 -3.60729 -3.80756 0
M  V30 11330 H 1075.18 -2.36813 -4.98622 0
M  V30 11331 H 1075.66 -0.809601 -4.31674 0
M  V30 11332 H 1076.26 -2.3072 -3.57279 0
M  V30 11333 N 1074.58 1.12322 -1.10551 0
M  V30 11334 C 1075.51 2.20176 -0.777486 0
M  V30 11335 C 1076.49 1.68252 0.250069 0
M  V30 11336 O 1077.67 1.93856 0.115574 0
M  V30 11337 C 1074.8 3.46666 -0.209822 0
M  V30 11338 C 1073.76 4.11749 -1.1682 0
M  V30 11339 C 1073.08 5.32703 -0.461684 0
M  V30 11340 C 1074.38 4.57746 -2.51527 0
M  V30 11341 H 1076.08 2.47872 -1.67928 0
M  V30 11342 H 1073.62 1.19136 -0.808863 0
M  V30 11343 H 1075.58 4.21388 0.0318068 0
M  V30 11344 H 1074.3 3.18401 0.727226 0
M  V30 11345 H 1072.96 3.39009 -1.3953 0
M  V30 11346 H 1072.61 5.00706 0.479875 0
M  V30 11347 H 1072.31 5.77197 -1.1008 0
M  V30 11348 H 1073.83 6.10172 -0.228629 0
M  V30 11349 H 1075.25 5.23835 -2.32958 0
M  V30 11350 H 1073.64 5.13021 -3.11335 0
M  V30 11351 H 1074.71 3.71667 -3.11435 0
M  V30 11352 N 1076.06 0.894434 1.2976 0
M  V30 11353 C 1077.01 0.339611 2.25457 0
M  V30 11354 C 1077.99 -0.537326 1.51663 0
M  V30 11355 O 1079.18 -0.380204 1.72868 0
M  V30 11356 C 1076.31 -0.436494 3.40514 0
M  V30 11357 C 1075.4 0.455065 4.21651 0
M  V30 11358 N 1075.79 1.55988 4.81146 0
M  V30 11359 C 1074.09 0.251893 4.45288 0
M  V30 11360 C 1074.79 2.1117 5.42017 0
M  V30 11361 N 1073.76 1.40541 5.25118 0
M  V30 11362 H 1077.57 1.18365 2.69011 0
M  V30 11363 H 1075.08 0.744895 1.44309 0
M  V30 11364 H 1077.08 -0.850678 4.08129 0
M  V30 11365 H 1075.74 -1.27786 2.98498 0
M  V30 11366 H 1076.75 1.94266 4.80084 0
M  V30 11367 H 1073.42 -0.551536 4.13841 0
M  V30 11368 H 1074.81 3.04 5.99194 0
M  V30 11369 N 1077.53 -1.43282 0.656365 0
M  V30 11370 C 1078.78 -2.00996 0.168354 0
M  V30 11371 C 1079.1 -1.52408 -1.22601 0
M  V30 11372 O 1080.3 -2.02417 -1.80941 0
M  V30 11373 C 1078.76 -3.5903 0.250161 0
M  V30 11374 C 1078.37 -4.1661 1.64742 0
M  V30 11375 C 1080.11 -4.24118 -0.180084 0
M  V30 11376 C 1078.02 -5.66948 1.68299 0
M  V30 11377 H 1076.95 -0.751674 0.0591769 0
M  V30 11378 H 1079.6 -1.64216 0.818859 0
M  V30 11379 H 1077.98 -3.93226 -0.467908 0
M  V30 11380 H 1079.15 -3.93908 2.3911 0
M  V30 11381 H 1077.47 -3.63905 2.02391 0
M  V30 11382 H 1080.07 -5.34419 -0.173401 0
M  V30 11383 H 1080.41 -3.98264 -1.21208 0
M  V30 11384 H 1080.94 -3.94816 0.486343 0
M  V30 11385 H 1077.68 -5.97573 2.69419 0
M  V30 11386 H 1077.2 -5.91697 0.98261 0
M  V30 11387 H 1078.88 -6.31041 1.42813 0
M  V30 11388 N 1079.01 -0.398486 -1.52479 0
M  V30 11389 C 1080.24 0.180295 -2.05812 0
M  V30 11390 C 1080.65 1.40301 -1.26934 0
M  V30 11391 O 1079.99 1.81039 -0.311544 0
M  V30 11392 C 1080.06 0.60601 -3.54355 0
M  V30 11393 C 1079.72 -0.504508 -4.54207 0
M  V30 11394 C 1080.72 -1.36478 -5.01667 0
M  V30 11395 C 1078.4 -0.674161 -4.97755 0
M  V30 11396 C 1080.4 -2.37975 -5.91309 0
M  V30 11397 C 1078.08 -1.69246 -5.87196 0
M  V30 11398 C 1079.08 -2.54367 -6.33866 0
M  V30 11399 O 1078.77 -3.54454 -7.21538 0
M  V30 11400 H 1078.5 0.0286396 -0.675393 0
M  V30 11401 H 1081.06 -0.564912 -1.97479 0
M  V30 11402 H 1079.29 1.40334 -3.60338 0
M  V30 11403 H 1080.97 1.1115 -3.90385 0
M  V30 11404 H 1081.74 -1.24506 -4.68746 0
M  V30 11405 H 1077.62 -0.0213029 -4.60995 0
M  V30 11406 H 1081.16 -3.0445 -6.27659 0
M  V30 11407 H 1077.06 -1.81252 -6.1953 0
M  V30 11408 H 1077.83 -3.50571 -7.39623 0
M  V30 11409 N 1080.49 1.57075 -0.12858 0
M  V30 11410 C 1081.74 1.95134 0.526046 0
M  V30 11411 C 1082.06 1.01337 1.66601 0
M  V30 11412 O 1081.33 0.0714361 1.9577 0
M  V30 11413 H 1079.91 0.720468 0.19732 0
M  V30 11414 H 1082.57 1.93874 -0.199767 0
M  V30 11415 H 1081.67 2.98406 0.914332 0
M  V30 11416 N 1081.97 -0.145205 1.5693 0
M  V30 11417 C 1083.2 -0.871133 1.87336 0
M  V30 11418 C 1083.61 -1.7517 0.714992 0
M  V30 11419 O 1082.95 -1.80815 -0.324304 0
M  V30 11420 C 1083.01 -1.77775 3.12468 0
M  V30 11421 C 1082.68 -1.07416 4.44197 0
M  V30 11422 C 1083.67 -0.42722 5.18142 0
M  V30 11423 C 1081.36 -1.06313 4.9092 0
M  V30 11424 C 1083.35 0.221348 6.37016 0
M  V30 11425 C 1081.04 -0.410755 6.09718 0
M  V30 11426 C 1082.04 0.230357 6.82611 0
M  V30 11427 O 1081.73 0.872389 7.99152 0
M  V30 11428 H 1081.46 -0.257174 0.62517 0
M  V30 11429 H 1084.01 -0.142159 2.04907 0
M  V30 11430 H 1082.24 -2.54771 2.9091 0
M  V30 11431 H 1083.93 -2.37579 3.29107 0
M  V30 11432 H 1084.7 -0.427536 4.83112 0
M  V30 11433 H 1080.58 -1.55156 4.34105 0
M  V30 11434 H 1084.12 0.722349 6.9385 0
M  V30 11435 H 1080.02 -0.408112 6.44209 0
M  V30 11436 H 1080.78 0.774236 8.1483 0
M  V30 11437 N 1083.45 -1.52049 -0.414609 0
M  V30 11438 C 1084.36 -1.7788 -1.52958 0
M  V30 11439 C 1085.37 -0.66408 -1.60829 0
M  V30 11440 O 1086.55 -0.948882 -1.77646 0
M  V30 11441 C 1083.61 -1.91906 -2.88744 0
M  V30 11442 C 1082.68 -3.15803 -2.90804 0
M  V30 11443 C 1081.91 -3.29151 -4.20114 0
M  V30 11444 O 1082.13 -2.47892 -5.13718 0
M  V30 11445 O 1081.07 -4.2227 -4.28919 0
M  V30 11446 H 1084.89 -2.72506 -1.34067 0
M  V30 11447 H 1082.48 -1.36826 -0.599918 0
M  V30 11448 H 1084.36 -2.02986 -3.6929 0
M  V30 11449 H 1083.03 -1.00468 -3.07714 0
M  V30 11450 H 1081.94 -3.10185 -2.09131 0
M  V30 11451 H 1083.27 -4.07004 -2.76783 0
M  V30 11452 N 1084.93 0.6715 -1.42579 0
M  V30 11453 C 1086.17 1.42871 -1.42941 0
M  V30 11454 C 1086.49 1.94941 -0.0480483 0
M  V30 11455 O 1085.76 1.73275 0.913921 0
M  V30 11456 H 1084.34 0.530189 -0.526221 0
M  V30 11457 H 1087.01 0.793219 -1.78028 0
M  V30 11458 H 1086.1 2.2801 -2.13114 0
M  V30 11459 N 1086.4 1.28806 0.908124 0
M  V30 11460 C 1087.63 1.19271 1.69674 0
M  V30 11461 C 1088.05 -0.244403 1.86505 0
M  V30 11462 O 1087.41 -1.17668 1.37927 0
M  V30 11463 C 1087.46 1.9023 3.06341 0
M  V30 11464 O 1086.56 1.2136 3.94139 0
M  V30 11465 H 1085.9 0.413738 0.519343 0
M  V30 11466 H 1088.43 1.70227 1.13508 0
M  V30 11467 H 1088.44 1.98356 3.56537 0
M  V30 11468 H 1087.12 2.94762 2.93408 0
M  V30 11469 H 1085.7 1.21435 3.52573 0
M  V30 11470 N 1087.88 -1.11734 1.11145 0
M  V30 11471 C 1088.79 -2.21267 0.779607 0
M  V30 11472 C 1089.81 -1.72526 -0.225986 0
M  V30 11473 O 1090.98 -2.01302 -0.0629166 0
M  V30 11474 C 1088.05 -3.45973 0.22435 0
M  V30 11475 C 1087.11 -4.09518 1.28816 0
M  V30 11476 C 1086.34 -5.28271 0.7593 0
M  V30 11477 O 1086.57 -5.68912 -0.411725 0
M  V30 11478 O 1085.5 -5.82322 1.52266 0
M  V30 11479 H 1089.33 -2.5206 1.6941 0
M  V30 11480 H 1086.91 -1.20211 0.887115 0
M  V30 11481 H 1088.79 -4.21322 -0.0810921 0
M  V30 11482 H 1087.47 -3.1684 -0.662891 0
M  V30 11483 H 1086.37 -3.35915 1.64657 0
M  V30 11484 H 1087.71 -4.42824 2.14868 0
M  V30 11485 N 1089.36 -0.901303 -1.29284 0
M  V30 11486 C 1090.58 -0.542823 -2.0017 0
M  V30 11487 C 1091.01 0.865583 -1.67001 0
M  V30 11488 O 1090.37 1.5764 -0.895502 0
M  V30 11489 C 1090.42 -0.743987 -3.52842 0
M  V30 11490 O 1089.52 0.202771 -4.11901 0
M  V30 11491 H 1088.86 -0.211903 -0.62928 0
M  V30 11492 H 1091.39 -1.21333 -1.64741 0
M  V30 11493 H 1091.4 -0.64926 -4.02801 0
M  V30 11494 H 1090.08 -1.77077 -3.7632 0
M  V30 11495 H 1088.65 0.0603637 -3.72851 0
M  V30 11496 N 1090.84 1.42931 -0.663954 0
M  V30 11497 C 1092.09 2.00904 -0.179011 0
M  V30 11498 C 1092.4 1.53056 1.21791 0
M  V30 11499 O 1093.61 2.03374 1.79865 0
M  V30 11500 C 1092.06 3.58892 -0.269198 0
M  V30 11501 C 1091.67 4.15731 -1.66949 0
M  V30 11502 C 1093.41 4.24207 0.157589 0
M  V30 11503 C 1091.32 5.66047 -1.71303 0
M  V30 11504 H 1090.25 0.75135 -0.0631623 0
M  V30 11505 H 1092.9 1.6378 -0.827556 0
M  V30 11506 H 1091.28 3.93469 0.447048 0
M  V30 11507 H 1092.46 3.92634 -2.41195 0
M  V30 11508 H 1090.77 3.62826 -2.04318 0
M  V30 11509 H 1093.37 5.34503 0.145057 0
M  V30 11510 H 1093.71 3.98901 1.19095 0
M  V30 11511 H 1094.25 3.94552 -0.507274 0
M  V30 11512 H 1090.98 5.96136 -2.72584 0
M  V30 11513 H 1090.5 5.91167 -1.01398 0
M  V30 11514 H 1092.18 6.30275 -1.46158 0
M  V30 11515 N 1092.32 0.406567 1.52266 0
M  V30 11516 C 1093.28 -0.408251 2.25535 0
M  V30 11517 C 1094.28 -0.975795 1.27808 0
M  V30 11518 O 1095.47 -0.855077 1.5177 0
M  V30 11519 C 1092.6 -1.57443 3.02365 0
M  V30 11520 H 1093.79 0.233459 2.9899 0
M  V30 11521 H 1091.35 0.159032 1.55489 0
M  V30 11522 H 1092.08 -2.25308 2.33252 0
M  V30 11523 H 1091.87 -1.17399 3.74112 0
M  V30 11524 H 1093.36 -2.15088 3.57948 0
M  V30 11525 N 1093.79 -1.57004 0.136909 0
M  V30 11526 C 1094.7 -2.19807 -0.819887 0
M  V30 11527 C 1095.72 -1.17939 -1.27932 0
M  V30 11528 O 1096.9 -1.50478 -1.3386 0
M  V30 11529 C 1093.96 -2.79935 -2.04542 0
M  V30 11530 C 1093.02 -3.96897 -1.6362 0
M  V30 11531 C 1092.26 -4.54148 -2.80331 0
M  V30 11532 O 1092.48 -4.10282 -3.96264 0
M  V30 11533 O 1091.41 -5.44565 -2.56384 0
M  V30 11534 H 1095.24 -3.02058 -0.315337 0
M  V30 11535 H 1092.82 -1.49131 -0.0896151 0
M  V30 11536 H 1094.71 -3.18191 -2.76283 0
M  V30 11537 H 1093.38 -2.00703 -2.53969 0
M  V30 11538 H 1092.29 -3.63376 -0.889316 0
M  V30 11539 H 1093.62 -4.77618 -1.18918 0
M  V30 11540 N 1095.27 0.136881 -1.57004 0
M  V30 11541 C 1096.5 0.866405 -1.88436 0
M  V30 11542 C 1096.92 1.73483 -0.727006 0
M  V30 11543 O 1096.28 1.78398 0.323094 0
M  V30 11544 C 1096.33 1.69059 -3.18514 0
M  V30 11545 O 1095.43 2.79584 -3.03161 0
M  V30 11546 H 1094.77 0.240709 -0.618834 0
M  V30 11547 H 1097.3 0.124653 -2.0422 0
M  V30 11548 H 1097.31 2.08353 -3.50789 0
M  V30 11549 H 1095.99 1.05296 -4.0235 0
M  V30 11550 H 1094.57 2.43623 -2.82315 0
M  V30 11551 N 1096.75 1.52266 0.40654 0
M  V30 11552 C 1097.68 1.78755 1.50229 0
M  V30 11553 C 1098.66 0.638652 1.57655 0
M  V30 11554 O 1099.85 0.884505 1.72888 0
M  V30 11555 C 1096.98 1.94057 2.88026 0
M  V30 11556 C 1095.93 3.09667 2.95449 0
M  V30 11557 C 1095.26 3.10196 4.35526 0
M  V30 11558 C 1096.56 4.49077 2.66697 0
M  V30 11559 H 1098.25 2.70511 1.28313 0
M  V30 11560 H 1095.8 1.30167 0.615836 0
M  V30 11561 H 1097.75 2.11171 3.64671 0
M  V30 11562 H 1096.47 0.989755 3.11242 0
M  V30 11563 H 1095.13 2.92308 2.2125 0
M  V30 11564 H 1094.78 2.12831 4.55754 0
M  V30 11565 H 1094.48 3.87847 4.41416 0
M  V30 11566 H 1096 3.29443 5.14101 0
M  V30 11567 H 1097.42 4.66628 3.33064 0
M  V30 11568 H 1095.82 5.28665 2.8396 0
M  V30 11569 H 1096.89 4.56995 1.62122 0
M  V30 11570 N 1098.23 -0.663929 1.42933 0
M  V30 11571 C 1099.45 -1.45691 1.47611 0
M  V30 11572 C 1099.88 -1.87875 0.0920305 0
M  V30 11573 O 1099.24 -1.56696 -0.91192 0
M  V30 11574 C 1099.28 -2.67517 2.41799 0
M  V30 11575 O 1098.39 -3.66187 1.89686 0
M  V30 11576 H 1097.73 -0.437257 0.499702 0
M  V30 11577 H 1100.26 -0.813397 1.87737 0
M  V30 11578 H 1100.27 -3.1546 2.58745 0
M  V30 11579 H 1098.94 -2.36155 3.4235 0
M  V30 11580 H 1097.52 -3.25274 1.82349 0
M  V30 11581 N 1099.71 -1.29285 -0.901281 0
M  V30 11582 C 1100.93 -1.20169 -1.69039 0
M  V30 11583 C 1101.36 0.234509 -1.86632 0
M  V30 11584 O 1100.71 1.16935 -1.38549 0
M  V30 11585 C 1100.76 -1.91852 -3.05328 0
M  V30 11586 O 1099.87 -1.23448 -3.9349 0
M  V30 11587 H 1099.21 -0.416486 -0.517141 0
M  V30 11588 H 1101.74 -1.70826 -1.12603 0
M  V30 11589 H 1101.75 -2.00244 -3.5548 0
M  V30 11590 H 1100.42 -2.96313 -2.91841 0
M  V30 11591 H 1099 -1.23303 -3.51924 0
M  V30 11592 N 1101.18 1.11143 -1.11736 0
M  V30 11593 C 1102.11 2.19339 -0.800795 0
M  V30 11594 C 1103.1 1.68508 0.23221 0
M  V30 11595 O 1104.28 1.93967 0.0950063 0
M  V30 11596 C 1101.41 3.46424 -0.246579 0
M  V30 11597 C 1100.36 4.10487 -1.21181 0
M  V30 11598 C 1099.69 5.32183 -0.518158 0
M  V30 11599 C 1100.99 4.55052 -2.56368 0
M  V30 11600 H 1102.68 2.46077 -1.70548 0
M  V30 11601 H 1100.23 1.18271 -0.821454 0
M  V30 11602 H 1102.18 4.21398 -0.0128889 0
M  V30 11603 H 1100.91 3.19154 0.693415 0
M  V30 11604 H 1099.57 3.3751 -1.43118 0
M  V30 11605 H 1099.21 5.01187 0.426742 0
M  V30 11606 H 1098.91 5.75997 -1.16196 0
M  V30 11607 H 1100.44 6.09895 -0.293333 0
M  V30 11608 H 1101.85 5.21335 -2.38501 0
M  V30 11609 H 1100.25 5.0969 -3.16758 0
M  V30 11610 H 1101.32 3.68343 -3.1536 0
M  V30 11611 N 1102.66 0.908147 1.28804 0
M  V30 11612 C 1103.91 0.53734 1.94826 0
M  V30 11613 C 1104.23 -0.920962 1.71882 0
M  V30 11614 O 1103.5 -1.65043 1.05534 0
M  V30 11615 H 1102.08 0.195729 0.720902 0
M  V30 11616 H 1104.74 1.15628 1.56895 0
M  V30 11617 H 1103.84 0.727052 3.03513 0
M  V30 11618 N 1104.14 -1.42577 0.671525 0
M  V30 11619 C 1105.37 -2.05924 0.200731 0
M  V30 11620 C 1105.78 -1.50434 -1.14083 0
M  V30 11621 O 1105.14 -0.642845 -1.70803 0
M  V30 11622 C 1105.19 -3.61289 0.123505 0
M  V30 11623 O 1104.91 -4.1472 1.41205 0
M  V30 11624 C 1106.41 -4.41743 -0.371178 0
M  V30 11625 H 1103.63 -0.663746 0.0983958 0
M  V30 11626 H 1106.18 -1.82771 0.917338 0
M  V30 11627 H 1104.33 -3.83565 -0.543769 0
M  V30 11628 H 1104.75 -5.0856 1.28325 0
M  V30 11629 H 1106.22 -5.50731 -0.374128 0
M  V30 11630 H 1106.7 -4.16092 -1.40585 0
M  V30 11631 H 1107.3 -4.24478 0.264244 0
M  V30 11632 N 1105.62 -0.414636 -1.52048 0
M  V30 11633 C 1106.9 0.218172 -1.94379 0
M  V30 11634 C 1107.28 1.62133 -1.35189 0
M  V30 11635 O 1106.62 2.22271 -0.529877 0
M  V30 11636 C 1106.83 0.218932 -3.48313 0
M  V30 11637 C 1108.18 0.435604 -4.2236 0
M  V30 11638 O 1109.21 0.298049 -3.54951 0
M  V30 11639 O 1108.06 0.707217 -5.41905 0
M  V30 11640 H 1105.16 0.142173 -0.814688 0
M  V30 11641 H 1107.7 -0.470977 -1.63033 0
M  V30 11642 H 1106.48 -0.76292 -3.83791 0
M  V30 11643 H 1106.1 0.951949 -3.86036 0
M  V30 11644 N 1107.1 1.56929 -0.145233 0
M  V30 11645 C 1108.32 2.00864 0.516564 0
M  V30 11646 C 1108.75 1.02466 1.57741 0
M  V30 11647 O 1108.1 0.000145439 1.813 0
M  V30 11648 C 1108.15 3.43552 1.09563 0
M  V30 11649 O 1107.26 3.4815 2.21055 0
M  V30 11650 H 1106.6 0.651835 0.126521 0
M  V30 11651 H 1109.13 2.0317 -0.241445 0
M  V30 11652 H 1109.14 3.82316 1.42473 0
M  V30 11653 H 1107.81 4.14677 0.318749 0
M  V30 11654 H 1106.39 3.21228 1.89387 0
M  V30 11655 N 1108.58 -0.128553 1.57075 0
M  V30 11656 C 1109.8 -0.8564 1.88893 0
M  V30 11657 C 1110.23 -1.73095 0.736196 0
M  V30 11658 O 1109.58 -1.78567 -0.313629 0
M  V30 11659 C 1109.63 -1.67368 3.19406 0
M  V30 11660 O 1108.74 -2.77973 3.04639 0
M  V30 11661 H 1108.08 -0.237424 0.620102 0
M  V30 11662 H 1110.61 -0.113821 2.04283 0
M  V30 11663 H 1110.62 -2.0649 3.51889 0
M  V30 11664 H 1109.29 -1.03161 4.02903 0
M  V30 11665 H 1107.87 -2.42123 2.83603 0
M  V30 11666 N 1110.05 -1.5248 -0.398459 0
M  V30 11667 C 1111.33 -1.57634 -1.15805 0
M  V30 11668 C 1111.71 -0.363785 -2.07942 0
M  V30 11669 O 1111.06 0.648598 -2.19101 0
M  V30 11670 C 1111.27 -2.91042 -1.92602 0
M  V30 11671 C 1112.62 -3.44433 -2.48296 0
M  V30 11672 O 1113.64 -2.92853 -2.0277 0
M  V30 11673 O 1112.5 -4.34529 -3.31432 0
M  V30 11674 H 1109.59 -0.63539 -0.529347 0
M  V30 11675 H 1112.14 -1.64812 -0.404376 0
M  V30 11676 H 1110.91 -3.7074 -1.25169 0
M  V30 11677 H 1110.53 -2.87206 -2.74952 0
M  V30 11678 N 1111.53 0.65634 -1.43283 0
M  V30 11679 C 1112.76 1.44906 -1.48382 0
M  V30 11680 C 1113.18 1.87823 -0.101993 0
M  V30 11681 O 1112.54 1.57178 0.903597 0
M  V30 11682 C 1112.59 2.66231 -2.43215 0
M  V30 11683 O 1111.69 3.65176 -1.91625 0
M  V30 11684 H 1111.03 0.434601 -0.502014 0
M  V30 11685 H 1113.56 0.803429 -1.88165 0
M  V30 11686 H 1113.57 3.14083 -2.60414 0
M  V30 11687 H 1112.25 2.34336 -3.43598 0
M  V30 11688 H 1110.82 3.24302 -1.84072 0
M  V30 11689 N 1113.01 1.29761 0.894412 0
M  V30 11690 C 1114.29 1.08711 1.62608 0
M  V30 11691 C 1114.67 -0.366907 2.07887 0
M  V30 11692 O 1114.01 -1.35669 1.83865 0
M  V30 11693 C 1114.22 2.07947 2.80284 0
M  V30 11694 C 1115.57 2.39153 3.50843 0
M  V30 11695 O 1116.6 2.06183 2.9046 0
M  V30 11696 O 1115.46 2.95509 4.59713 0
M  V30 11697 H 1112.55 0.416866 0.714249 0
M  V30 11698 H 1115.1 1.41153 0.942015 0
M  V30 11699 H 1113.87 3.05859 2.44061 0
M  V30 11700 H 1113.49 1.76266 3.56393 0
M  V30 11701 N 1114.49 -1.10549 1.12324 0
M  V30 11702 C 1115.73 -1.82755 0.879117 0
M  V30 11703 C 1116.07 -1.84905 -0.593604 0
M  V30 11704 O 1115.34 -1.30884 -1.43873 0
M  V30 11705 C 1115.62 -3.29481 1.45308 0
M  V30 11706 C 1115.48 -3.3567 2.99408 0
M  V30 11707 C 1116.8 -4.25828 1.11167 0
M  V30 11708 H 1113.92 -0.663513 0.32081 0
M  V30 11709 H 1116.56 -1.29572 1.38965 0
M  V30 11710 H 1114.71 -3.74902 1.01887 0
M  V30 11711 H 1116.38 -2.98739 3.515 0
M  V30 11712 H 1114.62 -2.75606 3.34998 0
M  V30 11713 H 1115.29 -4.38983 3.34661 0
M  V30 11714 H 1117.77 -3.88635 1.48667 0
M  V30 11715 H 1116.65 -5.26857 1.53991 0
M  V30 11716 H 1116.91 -4.42094 0.0237046 0
M  V30 11717 N 1115.97 -0.914965 -1.28321 0
M  V30 11718 C 1117.24 -0.46764 -1.89928 0
M  V30 11719 C 1117.62 1.05364 -1.82925 0
M  V30 11720 O 1116.97 1.90223 -1.26599 0
M  V30 11721 C 1117.18 -0.999372 -3.34385 0
M  V30 11722 C 1118.53 -1.0522 -4.11356 0
M  V30 11723 O 1119.55 -0.9481 -3.4335 0
M  V30 11724 O 1118.41 -1.21085 -5.32917 0
M  V30 11725 H 1115.51 -0.148398 -0.813577 0
M  V30 11726 H 1118.05 -1.00583 -1.36679 0
M  V30 11727 H 1116.82 -2.04333 -3.33712 0
M  V30 11728 H 1116.45 -0.442083 -3.95135 0
M  V30 11729 N 1117.44 1.42219 -0.679077 0
M  V30 11730 C 1118.67 2.05516 -0.211342 0
M  V30 11731 C 1119.08 1.5113 1.13826 0
M  V30 11732 O 1118.42 0.647593 1.71907 0
M  V30 11733 C 1118.49 3.59425 -0.0736007 0
M  V30 11734 C 1118.15 4.36525 -1.3526 0
M  V30 11735 C 1119.15 4.66897 -2.28698 0
M  V30 11736 C 1116.83 4.76089 -1.60139 0
M  V30 11737 C 1118.83 5.35775 -3.45288 0
M  V30 11738 C 1116.51 5.44706 -2.77017 0
M  V30 11739 C 1117.51 5.74474 -3.69416 0
M  V30 11740 O 1117.2 6.41683 -4.8425 0
M  V30 11741 H 1116.93 0.668662 -0.0993318 0
M  V30 11742 H 1119.49 1.8327 -0.927434 0
M  V30 11743 H 1117.72 3.80346 0.69811 0
M  V30 11744 H 1119.4 4.04346 0.354813 0
M  V30 11745 H 1120.17 4.36828 -2.10729 0
M  V30 11746 H 1116.05 4.5231 -0.890887 0
M  V30 11747 H 1119.59 5.58927 -4.17428 0
M  V30 11748 H 1115.49 5.74194 -2.9491 0
M  V30 11749 H 1116.26 6.60175 -4.8385 0
M  V30 11750 N 1118.92 0.422693 1.51826 0
M  V30 11751 C 1120.2 -0.20786 1.94492 0
M  V30 11752 C 1120.58 -1.61414 1.36047 0
M  V30 11753 O 1119.93 -2.21987 0.541657 0
M  V30 11754 C 1120.14 -0.200457 3.48424 0
M  V30 11755 C 1121.48 -0.413199 4.22585 0
M  V30 11756 O 1122.51 -0.27922 3.55104 0
M  V30 11757 O 1121.37 -0.678469 5.42272 0
M  V30 11758 H 1118.46 -0.137851 0.81543 0
M  V30 11759 H 1121.01 0.479617 1.62781 0
M  V30 11760 H 1119.78 0.783263 3.83381 0
M  V30 11761 H 1119.4 -0.931464 3.86535 0
M  V30 11762 N 1120.4 -1.5685 0.153553 0
M  V30 11763 C 1121.65 -1.96334 -0.495915 0
M  V30 11764 C 1121.97 -1.03873 -1.64441 0
M  V30 11765 O 1121.23 -0.069231 -1.95578 0
M  V30 11766 C 1121.53 -3.42022 -1.0371 0
M  V30 11767 C 1121.19 -4.509 -0.00637049 0
M  V30 11768 C 1119.86 -4.80402 0.276956 0
M  V30 11769 C 1122.21 -5.16556 0.694187 0
M  V30 11770 C 1119.54 -5.72866 1.26653 0
M  V30 11771 C 1121.89 -6.10087 1.67263 0
M  V30 11772 C 1120.55 -6.37965 1.96359 0
M  V30 11773 H 1119.82 -0.718436 -0.181468 0
M  V30 11774 H 1122.47 -1.89968 0.241768 0
M  V30 11775 H 1120.77 -3.45252 -1.85225 0
M  V30 11776 H 1122.47 -3.69903 -1.54831 0
M  V30 11777 H 1119.06 -4.27942 -0.237378 0
M  V30 11778 H 1123.25 -4.9389 0.488496 0
M  V30 11779 H 1118.5 -5.92756 1.49833 0
M  V30 11780 H 1122.68 -6.60036 2.22094 0
M  V30 11781 H 1120.3 -7.09416 2.73189 0
M  V30 11782 N 1121.88 0.120221 -1.57141 0
M  V30 11783 C 1122.81 1.14876 -2.03287 0
M  V30 11784 C 1123.79 1.43259 -0.917112 0
M  V30 11785 O 1124.97 1.53721 -1.18674 0
M  V30 11786 C 1122.1 2.47525 -2.43616 0
M  V30 11787 C 1121.06 2.33607 -3.58625 0
M  V30 11788 C 1120.38 3.71207 -3.84849 0
M  V30 11789 C 1121.68 1.79761 -4.90391 0
M  V30 11790 H 1123.38 0.764943 -2.89463 0
M  V30 11791 H 1120.92 0.366516 -1.39258 0
M  V30 11792 H 1122.88 3.19728 -2.74504 0
M  V30 11793 H 1121.6 2.87794 -1.54409 0
M  V30 11794 H 1120.26 1.63853 -3.27945 0
M  V30 11795 H 1119.91 4.0896 -2.9285 0
M  V30 11796 H 1119.61 3.62749 -4.62263 0
M  V30 11797 H 1121.13 4.44917 -4.18188 0
M  V30 11798 H 1122.55 2.4178 -5.19822 0
M  V30 11799 H 1120.94 1.82126 -5.71795 0
M  V30 11800 H 1122.01 0.755087 -4.78985 0
M  V30 11801 N 1123.36 1.52689 0.390367 0
M  V30 11802 C 1124.3 1.78007 1.4972 0
M  V30 11803 C 1125.3 0.647948 1.56518 0
M  V30 11804 O 1126.5 0.830398 1.59701 0
M  V30 11805 H 1122.88 0.56322 0.498284 0
M  V30 11806 H 1124.85 2.70698 1.25559 0
M  V30 11807 C 1123.6 1.96469 2.86872 0
M  V30 11808 H 1122.92 2.83012 2.82391 0
M  V30 11809 H 1124.36 2.18174 3.6356 0
M  V30 11810 C 1122.82 0.736847 3.28743 0
M  V30 11811 O 1123.35 -0.0863743 4.01607 0
M  V30 11812 N 1121.56 0.56735 2.85008 0
M  V30 11813 H 1121.1 1.23838 2.2588 0
M  V30 11814 H 1121.06 -0.252831 3.13382 0
M  V30 11815 N 1124.83 -0.648732 1.43629 0
M  V30 11816 C 1126.11 -1.4062 1.35961 0
M  V30 11817 C 1126.49 -2.11098 0.00961023 0
M  V30 11818 O 1125.84 -2.05107 -1.00714 0
M  V30 11819 C 1126.05 -2.38719 2.54586 0
M  V30 11820 C 1127.4 -3.02584 2.97873 0
M  V30 11821 O 1128.42 -2.49046 2.54665 0
M  V30 11822 O 1127.28 -3.99662 3.72736 0
M  V30 11823 H 1124.37 -0.628483 0.53753 0
M  V30 11824 H 1126.92 -0.675263 1.55687 0
M  V30 11825 H 1125.69 -1.85619 3.44472 0
M  V30 11826 H 1125.32 -3.19257 2.36983 0
M  V30 11827 N 1126.31 -1.30234 -0.887518 0
M  V30 11828 C 1127.56 -1.20096 -1.6416 0
M  V30 11829 C 1127.91 0.24253 -1.90865 0
M  V30 11830 O 1127.21 1.17078 -1.51668 0
M  V30 11831 C 1127.4 -1.96046 -2.98832 0
M  V30 11832 C 1127.23 -3.47633 -2.85274 0
M  V30 11833 C 1126 -4.16989 -2.85392 0
M  V30 11834 C 1128.2 -4.42911 -2.61409 0
M  V30 11835 N 1126.18 -5.54854 -2.62699 0
M  V30 11836 C 1127.55 -5.68321 -2.47813 0
M  V30 11837 C 1129.61 -4.32535 -2.46613 0
M  V30 11838 C 1128.31 -6.84532 -2.20927 0
M  V30 11839 C 1130.33 -5.4851 -2.21112 0
M  V30 11840 C 1129.7 -6.729 -2.08291 0
M  V30 11841 H 1125.8 -0.494513 -0.605789 0
M  V30 11842 H 1128.38 -1.64213 -1.04605 0
M  V30 11843 H 1126.55 -1.54324 -3.56425 0
M  V30 11844 H 1128.28 -1.78072 -3.63418 0
M  V30 11845 H 1125.04 -3.68798 -2.97128 0
M  V30 11846 H 1125.46 -6.27395 -2.54371 0
M  V30 11847 H 1130.1 -3.37047 -2.55262 0
M  V30 11848 H 1127.82 -7.80063 -2.11015 0
M  V30 11849 H 1131.41 -5.42389 -2.1049 0
M  V30 11850 H 1130.29 -7.61125 -1.88833 0
M  V30 11851 N 1127.79 1.09952 -1.12909 0
M  V30 11852 C 1129.04 1.81657 -0.885729 0
M  V30 11853 C 1129.36 1.85863 0.589913 0
M  V30 11854 O 1128.63 1.34028 1.42875 0
M  V30 11855 H 1127.21 0.672743 -0.324694 0
M  V30 11856 H 1129.87 1.33013 -1.42456 0
M  V30 11857 H 1128.97 2.85018 -1.27167 0
M  V30 11858 N 1129.27 0.921757 1.27833 0
M  V30 11859 C 1130.68 0.604496 1.76643 0
M  V30 11860 C 1131.03 -0.880294 1.75343 0
M  V30 11861 O 1130.16 -1.68875 1.35315 0
M  V30 11862 C 1130.75 1.09055 3.20768 0
M  V30 11863 C 1129.31 0.824066 3.67268 0
M  V30 11864 C 1128.46 1.25269 2.47392 0
M  V30 11865 H 1131.41 1.10217 1.14184 0
M  V30 11866 H 1131.43 0.435558 3.77999 0
M  V30 11867 H 1130.94 2.17122 3.21682 0
M  V30 11868 H 1129.04 -0.243055 3.71806 0
M  V30 11869 H 1129.15 1.43743 4.57028 0
M  V30 11870 H 1127.52 0.671313 2.45694 0
M  V30 11871 H 1128.3 2.34188 2.5102 0
M  V30 11872 N 1130.75 -1.41857 0.686609 0
M  V30 11873 C 1132.16 -1.55549 0.357288 0
M  V30 11874 C 1132.36 -1.66394 -1.13646 0
M  V30 11875 O 1131.42 -1.63739 -1.92213 0
M  V30 11876 C 1132.73 -2.79938 1.09796 0
M  V30 11877 C 1134.28 -2.93724 1.08143 0
M  V30 11878 C 1134.75 -4.20989 1.80367 0
M  V30 11879 N 1136.25 -4.27927 1.77293 0
M  V30 11880 C 1136.98 -5.2524 2.30022 0
M  V30 11881 N 1136.48 -6.28636 2.91185 0
M  V30 11882 N 1138.27 -5.17118 2.20329 0
M  V30 11883 H 1130.42 -1.33063 1.65554 0
M  V30 11884 H 1132.68 -0.641335 0.698135 0
M  V30 11885 H 1132.39 -2.78104 2.15293 0
M  V30 11886 H 1132.26 -3.71188 0.670763 0
M  V30 11887 H 1134.65 -2.9508 0.0347554 0
M  V30 11888 H 1134.73 -2.03673 1.54761 0
M  V30 11889 H 1134.38 -4.20395 2.85009 0
M  V30 11890 H 1134.31 -5.09997 1.3119 0
M  V30 11891 H 1136.8 -3.53838 1.32692 0
M  V30 11892 H 1137.11 -6.99265 3.29011 0
M  V30 11893 H 1135.45 -6.29164 2.95259 0
M  V30 11894 H 1138.65 -4.35265 1.72226 0
M  V30 11895 H 1138.82 -5.92792 2.61728 0
M  V30 11896 N 1132.22 -0.430739 -1.51599 0
M  V30 11897 C 1133.47 0.137929 -2.0203 0
M  V30 11898 C 1133.8 1.43287 -1.31526 0
M  V30 11899 O 1133.05 1.9121 -0.416814 0
M  V30 11900 C 1133.35 0.410694 -3.55032 0
M  V30 11901 C 1133.02 -0.797634 -4.43789 0
M  V30 11902 C 1131.68 -1.12902 -4.67768 0
M  V30 11903 C 1134.03 -1.60403 -4.95904 0
M  V30 11904 C 1131.36 -2.2676 -5.41107 0
M  V30 11905 C 1133.71 -2.73354 -5.70491 0
M  V30 11906 C 1132.38 -3.06955 -5.92735 0
M  V30 11907 H 1131.65 0.0504718 -0.739279 0
M  V30 11908 H 1134.29 -0.576585 -1.82614 0
M  V30 11909 H 1132.6 1.20703 -3.72744 0
M  V30 11910 H 1134.3 0.864006 -3.91581 0
M  V30 11911 H 1130.89 -0.529397 -4.25318 0
M  V30 11912 H 1135.07 -1.36122 -4.77268 0
M  V30 11913 H 1130.33 -2.53114 -5.56546 0
M  V30 11914 H 1134.5 -3.36213 -6.09864 0
M  V30 11915 H 1132.13 -3.95293 -6.49344 0
M  V30 11916 N 1133.7 1.56767 -0.161869 0
M  V30 11917 C 1134.65 2.17502 0.772102 0
M  V30 11918 C 1135.62 1.11223 1.23364 0
M  V30 11919 O 1136.8 1.39332 1.30351 0
M  V30 11920 C 1133.94 2.81248 1.99984 0
M  V30 11921 C 1133.06 4.01962 1.58274 0
M  V30 11922 C 1132.19 4.53662 2.76341 0
M  V30 11923 C 1131.23 5.66807 2.31076 0
M  V30 11924 N 1130.37 6.13059 3.42203 0
M  V30 11925 H 1135.21 2.96971 0.247382 0
M  V30 11926 H 1132.75 1.46685 0.110382 0
M  V30 11927 H 1134.7 3.16359 2.7198 0
M  V30 11928 H 1133.33 2.04398 2.49842 0
M  V30 11929 H 1132.39 3.72733 0.759874 0
M  V30 11930 H 1133.7 4.83891 1.2104 0
M  V30 11931 H 1132.85 4.90905 3.56507 0
M  V30 11932 H 1131.59 3.7077 3.16829 0
M  V30 11933 H 1130.6 5.29125 1.49354 0
M  V30 11934 H 1131.82 6.51494 1.91657 0
M  V30 11935 H 1129.77 5.33099 3.82285 0
M  V30 11936 H 1129.68 6.89953 3.09033 0
M  V30 11937 H 1130.95 6.54951 4.22682 0
M  V30 11938 N 1135.18 -0.111886 1.57202 0
M  V30 11939 C 1136.11 -1.16749 1.96074 0
M  V30 11940 C 1137.09 -1.39735 0.831438 0
M  V30 11941 O 1138.28 -1.53772 1.09025 0
M  V30 11942 C 1135.4 -2.51996 2.26308 0
M  V30 11943 C 1134.45 -2.45394 3.48832 0
M  V30 11944 S 1135.28 -1.8867 5.01163 0
M  V30 11945 C 1136.44 -3.25576 5.34557 0
M  V30 11946 H 1136.67 -0.836033 2.85303 0
M  V30 11947 H 1134.2 -0.318922 1.5107 0
M  V30 11948 H 1136.16 -3.29813 2.44405 0
M  V30 11949 H 1134.82 -2.82317 1.3768 0
M  V30 11950 H 1134.02 -3.45038 3.67376 0
M  V30 11951 H 1133.62 -1.75702 3.30159 0
M  V30 11952 H 1135.91 -4.21807 5.30174 0
M  V30 11953 H 1136.85 -3.11853 6.35731 0
M  V30 11954 H 1137.26 -3.24333 4.62026 0
M  V30 11955 N 1136.66 -1.52894 -0.382264 0
M  V30 11956 C 1137.59 -1.81122 -1.47367 0
M  V30 11957 C 1138.57 -0.663653 -1.56619 0
M  V30 11958 O 1139.75 -0.911898 -1.71459 0
M  V30 11959 C 1136.88 -1.98615 -2.84902 0
M  V30 11960 C 1135.84 -3.14328 -2.90485 0
M  V30 11961 C 1135.16 -3.17086 -4.30535 0
M  V30 11962 C 1136.46 -4.53263 -2.59519 0
M  V30 11963 H 1138.16 -2.72518 -1.23993 0
M  V30 11964 H 1135.7 -1.3113 -0.595049 0
M  V30 11965 H 1137.66 -2.16946 -3.61265 0
M  V30 11966 H 1136.38 -1.03915 -3.09628 0
M  V30 11967 H 1135.04 -2.95791 -2.16572 0
M  V30 11968 H 1134.69 -2.20055 -4.52311 0
M  V30 11969 H 1134.39 -3.94821 -4.3519 0
M  V30 11970 H 1135.91 -3.3758 -5.08795 0
M  V30 11971 H 1137.33 -4.71867 -3.25598 0
M  V30 11972 H 1135.72 -5.33115 -2.75514 0
M  V30 11973 H 1136.79 -4.59516 -1.54831 0
M  V30 11974 N 1138.14 0.641106 -1.43971 0
M  V30 11975 C 1139.1 1.73539 -1.49723 0
M  V30 11976 C 1140.1 1.56235 -0.380438 0
M  V30 11977 O 1141.29 1.61912 -0.642673 0
M  V30 11978 C 1138.42 3.1253 -1.36153 0
M  V30 11979 H 1139.62 1.69816 -2.47189 0
M  V30 11980 H 1137.17 0.853867 -1.30915 0
M  V30 11981 H 1137.9 3.21856 -0.39742 0
M  V30 11982 H 1137.69 3.26496 -2.17124 0
M  V30 11983 H 1139.18 3.92303 -1.43138 0
M  V30 11984 N 1139.62 1.30703 0.880598 0
M  V30 11985 C 1140.53 1.19389 2.01949 0
M  V30 11986 C 1141.54 0.112868 1.73634 0
M  V30 11987 O 1142.72 0.328643 1.98701 0
M  V30 11988 C 1139.78 0.891004 3.35055 0
M  V30 11989 C 1138.84 2.05784 3.76764 0
M  V30 11990 C 1138.08 1.76931 5.03519 0
M  V30 11991 O 1138.3 0.699326 5.66097 0
M  V30 11992 O 1137.23 2.623 5.4174 0
M  V30 11993 H 1141.06 2.15073 2.14423 0
M  V30 11994 H 1138.64 1.10339 1.00726 0
M  V30 11995 H 1140.53 0.737476 4.14897 0
M  V30 11996 H 1139.2 -0.0358909 3.2368 0
M  V30 11997 H 1138.11 2.26672 2.97608 0
M  V30 11998 H 1139.44 2.96661 3.9275 0
M  V30 11999 N 1141.09 -1.09351 1.1349 0
M  V30 12000 C 1142.02 -2.18037 0.835588 0
M  V30 12001 C 1143 -1.68856 -0.205373 0
M  V30 12002 O 1144.19 -1.94094 -0.0641357 0
M  V30 12003 C 1141.32 -3.45987 0.301661 0
M  V30 12004 C 1140.27 -4.08507 1.27696 0
M  V30 12005 C 1139.6 -5.31292 0.602758 0
M  V30 12006 C 1140.9 -4.50916 2.63575 0
M  V30 12007 H 1142.59 -2.43332 1.74441 0
M  V30 12008 H 1140.14 -1.1695 0.840166 0
M  V30 12009 H 1142.09 -4.21324 0.079928 0
M  V30 12010 H 1140.82 -3.20217 -0.642552 0
M  V30 12011 H 1139.48 -3.3519 1.4847 0
M  V30 12012 H 1139.12 -5.01802 -0.346953 0
M  V30 12013 H 1138.82 -5.74075 1.25345 0
M  V30 12014 H 1140.35 -6.09351 0.390325 0
M  V30 12015 H 1141.76 -5.17474 2.46765 0
M  V30 12016 H 1140.16 -5.04586 3.24827 0
M  V30 12017 H 1141.23 -3.63279 3.2118 0
M  V30 12018 N 1142.57 -0.928524 -1.27343 0
M  V30 12019 C 1143.8 -0.584884 -1.98148 0
M  V30 12020 C 1144.21 0.841603 -1.69451 0
M  V30 12021 O 1143.55 1.57104 -0.952053 0
M  V30 12022 C 1143.61 -0.731911 -3.51971 0
M  V30 12023 C 1143.28 -2.13067 -4.04291 0
M  V30 12024 C 1144.28 -3.10492 -4.17002 0
M  V30 12025 C 1141.96 -2.44784 -4.38619 0
M  V30 12026 C 1143.95 -4.37742 -4.63315 0
M  V30 12027 C 1141.64 -3.72269 -4.84622 0
M  V30 12028 C 1142.64 -4.68562 -4.9693 0
M  V30 12029 O 1142.33 -5.93779 -5.41924 0
M  V30 12030 H 1142.06 -0.220347 -0.63908 0
M  V30 12031 H 1144.61 -1.24799 -1.63139 0
M  V30 12032 H 1142.84 -0.0116966 -3.86698 0
M  V30 12033 H 1144.53 -0.393206 -4.03991 0
M  V30 12034 H 1145.3 -2.8731 -3.9074 0
M  V30 12035 H 1141.18 -1.70577 -4.28281 0
M  V30 12036 H 1144.72 -5.12905 -4.72836 0
M  V30 12037 H 1140.62 -3.95269 -5.10326 0
M  V30 12038 H 1141.39 -5.96779 -5.60176 0
M  V30 12039 N 1144.05 1.41491 -0.694123 0
M  V30 12040 C 1145.3 2.00854 -0.224033 0
M  V30 12041 C 1145.62 1.55246 1.17999 0
M  V30 12042 O 1144.89 0.782452 1.79595 0
M  V30 12043 H 1143.47 0.742721 -0.0798368 0
M  V30 12044 H 1146.13 1.73137 -0.894958 0
M  V30 12045 H 1145.23 3.11173 -0.240332 0
M  V30 12046 N 1145.53 0.438773 1.51369 0
M  V30 12047 C 1146.75 -0.128221 2.07003 0
M  V30 12048 C 1147.18 -1.3557 1.30393 0
M  V30 12049 O 1146.54 -1.7804 0.342283 0
M  V30 12050 C 1146.58 -0.42761 3.58056 0
M  V30 12051 O 1145.69 -1.51382 3.83611 0
M  V30 12052 H 1145.03 -0.00123679 0.663999 0
M  V30 12053 H 1147.56 0.62052 1.94963 0
M  V30 12054 H 1147.57 -0.677645 4.02333 0
M  V30 12055 H 1146.24 0.469535 4.13241 0
M  V30 12056 H 1144.82 -1.25363 3.51196 0
M  V30 12057 N 1147.01 -1.56678 0.170181 0
M  V30 12058 C 1148.28 -1.88524 -0.521362 0
M  V30 12059 C 1148.66 -1.07989 -1.81388 0
M  V30 12060 O 1148.01 -0.17347 -2.27841 0
M  V30 12061 C 1148.22 -3.40527 -0.764367 0
M  V30 12062 C 1149.57 -4.10241 -1.09487 0
M  V30 12063 O 1150.59 -3.45837 -0.852945 0
M  V30 12064 O 1149.45 -5.24022 -1.55124 0
M  V30 12065 H 1146.55 -0.782161 -0.268614 0
M  V30 12066 H 1149.09 -1.68414 0.208531 0
M  V30 12067 H 1147.86 -3.91015 0.149416 0
M  V30 12068 H 1147.49 -3.66244 -1.54762 0
M  V30 12069 N 1148.48 0.103547 -1.57259 0
M  V30 12070 C 1149.89 0.659006 -1.74683 0
M  V30 12071 C 1150.25 1.79542 -0.791142 0
M  V30 12072 O 1149.37 2.16376 0.0323585 0
M  V30 12073 C 1149.97 1.20222 -3.16752 0
M  V30 12074 C 1148.52 1.70382 -3.35629 0
M  V30 12075 C 1147.67 0.609886 -2.7051 0
M  V30 12076 H 1150.62 -0.122474 -1.58227 0
M  V30 12077 H 1150.64 2.07169 -3.19157 0
M  V30 12078 H 1150.16 0.374901 -3.86285 0
M  V30 12079 H 1148.26 2.55542 -2.71162 0
M  V30 12080 H 1148.37 1.80263 -4.43894 0
M  V30 12081 H 1146.73 1.04728 -2.32173 0
M  V30 12082 H 1147.52 -0.206713 -3.42677 0
M  V30 12083 N 1149.96 1.53094 0.37415 0
M  V30 12084 C 1151.38 1.42676 0.715246 0
M  V30 12085 C 1151.58 0.558992 1.93591 0
M  V30 12086 O 1150.63 0.0381328 2.52471 0
M  V30 12087 C 1151.95 2.85746 0.936459 0
M  V30 12088 C 1153.49 2.95322 1.03701 0
M  V30 12089 C 1153.97 4.39436 1.29075 0
M  V30 12090 N 1155.46 4.42826 1.35864 0
M  V30 12091 C 1156.2 5.51433 1.57191 0
M  V30 12092 N 1155.69 6.701 1.75891 0
M  V30 12093 N 1157.48 5.38998 1.59491 0
M  V30 12094 H 1149.64 2.08025 -0.428854 0
M  V30 12095 H 1151.9 0.939078 -0.129758 0
M  V30 12096 H 1151.6 3.51523 0.111448 0
M  V30 12097 H 1151.48 3.28887 1.84698 0
M  V30 12098 H 1153.87 2.29704 1.85257 0
M  V30 12099 H 1153.95 2.55588 0.104066 0
M  V30 12100 H 1153.59 5.05625 0.480231 0
M  V30 12101 H 1153.52 4.76735 2.23677 0
M  V30 12102 H 1156.01 3.57301 1.23061 0
M  V30 12103 H 1156.32 7.48643 1.91713 0
M  V30 12104 H 1154.67 6.73102 1.73086 0
M  V30 12105 H 1157.86 4.45257 1.44444 0
M  V30 12106 H 1158.03 6.23705 1.75771 0
M  V30 12107 N 1151.44 -0.633461 1.44309 0
M  V30 12108 C 1152.35 -1.77428 1.53481 0
M  V30 12109 C 1153.37 -1.68839 0.420628 0
M  V30 12110 O 1154.54 -1.89658 0.677638 0
M  V30 12111 C 1151.61 -3.13801 1.47409 0
M  V30 12112 C 1150.67 -3.34039 2.6966 0
M  V30 12113 C 1149.9 -4.63907 2.63868 0
M  V30 12114 O 1150.12 -5.44559 1.69741 0
M  V30 12115 O 1149.06 -4.86295 3.54684 0
M  V30 12116 H 1152.88 -1.72642 2.49857 0
M  V30 12117 H 1150.47 -0.794399 1.26529 0
M  V30 12118 H 1152.35 -3.95101 1.46537 0
M  V30 12119 H 1151.03 -3.19134 0.541769 0
M  V30 12120 H 1149.93 -2.52427 2.761 0
M  V30 12121 H 1151.27 -3.33566 3.61931 0
M  V30 12122 N 1152.92 -1.31168 -0.873655 0
M  V30 12123 C 1153.83 -1.20458 -2.01313 0
M  V30 12124 C 1154.84 -0.122074 -1.73571 0
M  V30 12125 O 1156.02 -0.339176 -1.98523 0
M  V30 12126 C 1153.09 -0.90876 -3.34578 0
M  V30 12127 C 1152.15 -2.07779 -3.75668 0
M  V30 12128 C 1151.38 -1.79599 -5.02573 0
M  V30 12129 O 1151.6 -0.729338 -5.65718 0
M  V30 12130 O 1150.54 -2.65169 -5.40341 0
M  V30 12131 H 1154.36 -2.16207 -2.13279 0
M  V30 12132 H 1151.95 -1.10871 -1.00139 0
M  V30 12133 H 1153.83 -0.759469 -4.145 0
M  V30 12134 H 1152.5 0.0187249 -3.23695 0
M  V30 12135 H 1151.41 -2.28247 -2.96402 0
M  V30 12136 H 1152.74 -2.9874 -3.91172 0
M  V30 12137 N 1154.4 1.08748 -1.14068 0
M  V30 12138 C 1155.33 2.17591 -0.84714 0
M  V30 12139 C 1156.31 1.68962 0.196415 0
M  V30 12140 O 1157.49 1.94125 0.0538415 0
M  V30 12141 C 1154.62 3.45823 -0.320005 0
M  V30 12142 C 1153.58 4.07824 -1.2986 0
M  V30 12143 C 1152.9 5.30965 -0.630925 0
M  V30 12144 C 1154.2 4.49512 -2.65963 0
M  V30 12145 H 1155.9 2.42404 -1.75729 0
M  V30 12146 H 1153.44 1.16502 -0.846356 0
M  V30 12147 H 1155.4 4.21276 -0.102271 0
M  V30 12148 H 1154.12 3.20553 0.625561 0
M  V30 12149 H 1152.78 3.34398 -1.50245 0
M  V30 12150 H 1152.43 5.01979 0.320337 0
M  V30 12151 H 1152.13 5.73402 -1.28388 0
M  V30 12152 H 1153.65 6.09136 -0.422635 0
M  V30 12153 H 1155.06 5.16159 -2.49506 0
M  V30 12154 H 1153.46 5.02857 -3.27498 0
M  V30 12155 H 1154.53 3.6157 -3.23102 0
M  V30 12156 N 1155.87 0.935264 1.26849 0
M  V30 12157 C 1156.8 0.457776 2.28969 0
M  V30 12158 C 1157.79 -0.48587 1.63013 0
M  V30 12159 O 1158.97 -0.388998 1.90264 0
M  V30 12160 C 1156.1 -0.283332 3.46142 0
M  V30 12161 C 1155.05 0.573196 4.24144 0
M  V30 12162 C 1154.38 -0.297525 5.33872 0
M  V30 12163 C 1155.68 1.84153 4.88759 0
M  V30 12164 H 1157.37 1.31125 2.69159 0
M  V30 12165 H 1154.92 0.631956 1.29392 0
M  V30 12166 H 1156.87 -0.628366 4.16689 0
M  V30 12167 H 1155.6 -1.1709 3.04889 0
M  V30 12168 H 1154.26 0.901043 3.55354 0
M  V30 12169 H 1153.9 -1.18427 4.8886 0
M  V30 12170 H 1153.6 0.272126 5.8697 0
M  V30 12171 H 1155.13 -0.637961 6.07258 0
M  V30 12172 H 1156.54 1.5641 5.51551 0
M  V30 12173 H 1154.94 2.35528 5.51948 0
M  V30 12174 H 1156.01 2.5565 4.12033 0
M  V30 12175 N 1157.35 -1.41121 0.701616 0
M  V30 12176 C 1158.58 -2.05154 0.244011 0
M  V30 12177 C 1158.99 -1.52922 -1.11407 0
M  V30 12178 O 1158.33 -0.67486 -1.70855 0
M  V30 12179 C 1158.4 -3.59262 0.130773 0
M  V30 12180 C 1158.06 -4.34318 1.42187 0
M  V30 12181 C 1159.06 -4.632 2.36097 0
M  V30 12182 C 1156.74 -4.73481 1.67693 0
M  V30 12183 C 1158.74 -5.30214 3.53768 0
M  V30 12184 C 1156.42 -5.4023 2.85648 0
M  V30 12185 C 1157.42 -5.68524 3.78509 0
M  V30 12186 O 1157.11 -6.33898 4.94397 0
M  V30 12187 H 1156.84 -0.666997 0.109957 0
M  V30 12188 H 1159.39 -1.81771 0.956473 0
M  V30 12189 H 1157.62 -3.81409 -0.637512 0
M  V30 12190 H 1159.31 -4.0486 -0.29044 0
M  V30 12191 H 1160.08 -4.3342 2.17652 0
M  V30 12192 H 1155.96 -4.50835 0.962733 0
M  V30 12193 H 1159.5 -5.52215 4.26267 0
M  V30 12194 H 1155.4 -5.69429 3.04008 0
M  V30 12195 H 1156.17 -6.52394 4.94292 0
M  V30 12196 O 1158.87 -0.588795 -1.50384 0
M  V30 12197 H 1159.56 -0.0952245 -1.93466 0
M  V30 END ATOM
M  V30 BEGIN BOND
M  V30 END BOND
M  V30 END CTAB
M  END
$$$$
