drugbank_target|P09466 Glycodelin (DB02405; DB03796; DB09462)
 OpenBabel12092120443D

  0  0  0     0  0            999 V3000
M  V30 BEGIN CTAB
M  V30 COUNTS 2912 2942 0 0 0
M  V30 BEGIN ATOM
M  V30 1 H -0.908 1.98254 -0.117106 0
M  V30 2 N 0 1.576 0 0
M  V30 3 C 0.933 2.03868 1.02534 0
M  V30 4 C 1.911 0.928543 1.3348 0
M  V30 5 O 3.095 1.19667 1.45644 0
M  V30 6 C 0.222 2.43627 2.35294 0
M  V30 7 C -0.732 3.65373 2.2001 0
M  V30 8 S 0.101 5.13292 1.52614 0
M  V30 9 C 1.257 5.56322 2.86805 0
M  V30 10 H 1.49 2.90518 0.631377 0
M  V30 11 H -0.977 1.52953 0.210867 0
M  V30 12 H 0.981 2.67203 3.11629 0
M  V30 13 H -0.358 1.57376 2.7183 0
M  V30 14 H -1.165 3.90944 3.18086 0
M  V30 15 H -1.563 3.418 1.51819 0
M  V30 16 H 0.729 5.58782 3.83104 0
M  V30 17 H 1.672 6.56266 2.65933 0
M  V30 18 H 2.08 4.83886 2.90714 0
M  V30 19 N 1.4781 -0.272755 1.55222 0
M  V30 20 C 2.4081 -1.34136 1.91127 0
M  V30 21 C 3.3891 -1.51513 0.773168 0
M  V30 22 O 4.5741 -1.64552 1.03132 0
M  V30 23 C 1.7041 -2.70083 2.1834 0
M  V30 24 C 0.6581 -2.67437 3.34158 0
M  V30 25 C -0.0159 -4.06938 3.46851 0
M  V30 26 C 1.2841 -2.26686 4.70543 0
M  V30 27 H 2.9781 -1.04333 2.80633 0
M  V30 28 H 0.5241 -0.500454 1.35024 0
M  V30 29 H 2.4771 -3.44952 2.42046 0
M  V30 30 H 1.2011 -3.01469 1.25634 0
M  V30 31 H -0.1399 -1.95026 3.1042 0
M  V30 32 H -0.4919 -4.35547 2.51611 0
M  V30 33 H -0.7919 -4.06062 4.2472 0
M  V30 34 H 0.7321 -4.83545 3.72849 0
M  V30 35 H 2.1461 -2.91277 4.93792 0
M  V30 36 H 0.5431 -2.36971 5.5133 0
M  V30 37 H 1.6131 -1.21818 4.69349 0
M  V30 38 N 2.9562 -1.48159 -0.537278 0
M  V30 39 C 4.1962 -1.57397 -1.30405 0
M  V30 40 C 4.5602 -0.239202 -1.90504 0
M  V30 41 O 5.7612 -0.206528 -2.68005 0
M  V30 42 C 4.0322 -2.6754 -2.36974 0
M  V30 43 S 5.5912 -2.96496 -3.23475 0
M  V30 44 H 2.4092 -0.555577 -0.443684 0
M  V30 45 H 5.0112 -1.85644 -0.612912 0
M  V30 46 H 3.7152 -3.63092 -1.91291 0
M  V30 47 H 3.2462 -2.41172 -3.10805 0
M  V30 48 H 5.2612 -2.35234 -4.36897 0
M  V30 49 N 4.4343 0.785586 -1.36625 0
M  V30 50 C 5.3643 1.91259 -1.33949 0
M  V30 51 C 6.3453 1.68795 -0.210325 0
M  V30 52 O 7.5303 1.89854 -0.408561 0
M  V30 53 C 4.6603 3.28339 -1.13186 0
M  V30 54 C 3.6143 3.65335 -2.22967 0
M  V30 55 C 2.9403 5.00806 -1.87342 0
M  V30 56 C 4.2403 3.7352 -3.65075 0
M  V30 57 H 5.9343 1.93755 -2.28253 0
M  V30 58 H 3.4803 0.930788 -1.09874 0
M  V30 59 H 5.4333 4.06804 -1.09948 0
M  V30 60 H 4.1573 3.2624 -0.153332 0
M  V30 61 H 2.8163 2.89169 -2.25337 0
M  V30 62 H 2.4643 4.95233 -0.880545 0
M  V30 63 H 2.1643 5.26529 -2.60846 0
M  V30 64 H 3.6883 5.81687 -1.85667 0
M  V30 65 H 5.1023 4.42168 -3.64911 0
M  V30 66 H 3.4993 4.10731 -4.37516 0
M  V30 67 H 4.5693 2.74527 -3.99703 0
M  V30 68 N 5.9124 1.20967 1.01018 0
M  V30 69 C 6.8424 0.988272 2.11555 0
M  V30 70 C 7.8234 -0.0849778 1.69888 0
M  V30 71 O 9.0084 0.0738202 1.9406 0
M  V30 72 C 6.1384 0.546528 3.42973 0
M  V30 73 C 5.0924 1.56375 3.9841 0
M  V30 74 C 4.4184 0.97842 5.25672 0
M  V30 75 C 5.7184 2.94922 4.31066 0
M  V30 76 H 7.4124 1.91276 2.30334 0
M  V30 77 H 4.9584 0.921073 1.1069 0
M  V30 78 H 6.9114 0.378839 4.19694 0
M  V30 79 H 5.6354 -0.413598 3.23971 0
M  V30 80 H 4.2944 1.71891 3.23804 0
M  V30 81 H 3.9424 0.0101688 5.02999 0
M  V30 82 H 3.6424 1.65784 5.63728 0
M  V30 83 H 5.1664 0.821939 6.05043 0
M  V30 84 H 6.5804 2.8288 4.9865 0
M  V30 85 H 4.9774 3.5983 4.80253 0
M  V30 86 H 6.0474 3.4616 3.39561 0
M  V30 87 N 7.3905 -1.2043 1.01659 0
M  V30 88 C 8.3205 -2.25466 0.607226 0
M  V30 89 C 9.3015 -1.65853 -0.377716 0
M  V30 90 O 10.4865 -1.92409 -0.263149 0
M  V30 91 C 7.6165 -3.47256 -0.0552949 0
M  V30 92 C 6.5705 -4.19462 0.850632 0
M  V30 93 C 5.8965 -5.34673 0.0538859 0
M  V30 94 C 7.1965 -4.75603 2.15868 0
M  V30 95 H 8.8905 -2.59962 1.48526 0
M  V30 96 H 6.4365 -1.2496 0.715605 0
M  V30 97 H 8.3895 -4.19917 -0.353233 0
M  V30 98 H 7.1135 -3.11924 -0.968045 0
M  V30 99 H 5.7725 -3.48667 1.13257 0
M  V30 100 H 5.4205 -4.95585 -0.860514 0
M  V30 101 H 5.1205 -5.83913 0.657192 0
M  V30 102 H 6.6445 -6.10138 -0.237598 0
M  V30 103 H 8.0585 -5.40083 1.92311 0
M  V30 104 H 6.4555 -5.3528 2.71284 0
M  V30 105 H 7.5255 -3.94346 2.82169 0
M  V30 106 N 8.8686 -0.792821 -1.36206 0
M  V30 107 C 10.0966 -0.378825 -2.03402 0
M  V30 108 C 10.5116 1.00586 -1.59774 0
M  V30 109 O 9.8686 1.64574 -0.788764 0
M  V30 110 C 9.9196 -0.43683 -3.58851 0
M  V30 111 O 9.6406 -1.76691 -4.00889 0
M  V30 112 C 11.1416 -0.0138943 -4.43298 0
M  V30 113 H 8.3616 -0.155673 -0.652692 0
M  V30 114 H 10.9056 -1.07261 -1.74113 0
M  V30 115 H 9.0606 0.208575 -3.86838 0
M  V30 116 H 9.4746 -1.72011 -4.95492 0
M  V30 117 H 10.9486 -0.105615 -5.51899 0
M  V30 118 H 11.4256 1.03915 -4.2673 0
M  V30 119 H 12.0316 -0.63192 -4.20579 0
M  V30 120 N 10.3467 1.47872 -0.545128 0
M  V30 121 C 11.2767 2.32661 0.197793 0
M  V30 122 C 12.2577 1.43041 0.920504 0
M  V30 123 O 13.4427 1.71912 0.90333 0
M  V30 124 C 10.5727 3.24569 1.23582 0
M  V30 125 C 9.5267 4.23333 0.630323 0
M  V30 126 C 8.8527 5.0448 1.77211 0
M  V30 127 C 10.1527 5.20704 -0.407974 0
M  V30 128 H 11.8467 2.95024 -0.510045 0
M  V30 129 H 9.3927 1.4187 -0.246731 0
M  V30 130 H 11.3457 3.8272 1.76362 0
M  V30 131 H 10.0697 2.60236 1.97344 0
M  V30 132 H 8.7287 3.6639 0.123922 0
M  V30 133 H 8.3767 4.36561 2.49847 0
M  V30 134 H 8.0767 5.71339 1.37281 0
M  V30 135 H 9.6007 5.65487 2.3034 0
M  V30 136 H 11.0147 5.7329 0.033305 0
M  V30 137 H 9.4117 5.95699 -0.725486 0
M  V30 138 H 10.4817 4.66917 -1.30828 0
M  V30 139 N 11.8248 0.280983 1.55075 0
M  V30 140 C 13.0728 -0.333455 1.9933 0
M  V30 141 C 13.3938 -1.55937 1.17085 0
M  V30 142 O 12.6638 -1.94143 0.261805 0
M  V30 143 H 11.2438 -0.126197 0.736263 0
M  V30 144 H 13.9058 0.387678 1.91005 0
M  V30 145 H 13.0018 -0.619292 3.05894 0
M  V30 146 N 13.3029 -1.57598 0.00835791 0
M  V30 147 C 14.5489 -1.91211 -0.675732 0
M  V30 148 C 14.8819 -0.883139 -1.72958 0
M  V30 149 O 14.1569 0.097016 -1.94258 0
M  V30 150 C 14.4399 -3.35379 -1.31123 0
M  V30 151 C 14.2929 -4.48999 -0.268356 0
M  V30 152 C 15.6119 -3.7912 -2.23508 0
M  V30 153 H 12.7309 -0.695374 -0.244179 0
M  V30 154 H 15.3729 -1.89901 0.0613655 0
M  V30 155 H 13.5229 -3.36626 -1.93946 0
M  V30 156 H 15.1949 -4.59887 0.360844 0
M  V30 157 H 13.4379 -4.31873 0.408482 0
M  V30 158 H 14.1089 -5.46851 -0.752218 0
M  V30 159 H 16.5849 -3.79477 -1.70693 0
M  V30 160 H 15.4609 -4.80729 -2.64936 0
M  V30 161 H 15.7219 -3.13455 -3.11766 0
M  V30 162 N 14.781 0.264519 -1.55364 0
M  V30 163 C 15.744 1.31046 -1.88042 0
M  V30 164 C 16.744 1.41943 -0.755569 0
M  V30 165 O 17.934 1.40947 -1.02369 0
M  V30 166 C 15.066 2.69067 -2.09323 0
M  V30 167 H 16.259 1.03297 -2.81549 0
M  V30 168 H 13.812 0.502989 -1.47986 0
M  V30 169 H 14.547 3.01982 -1.18226 0
M  V30 170 H 14.332 2.62542 -2.91229 0
M  V30 171 H 15.822 3.44623 -2.35848 0
M  V30 172 N 16.2591 1.48442 0.529413 0
M  V30 173 C 17.1891 1.65902 1.64313 0
M  V30 174 C 18.1701 0.507897 1.6234 0
M  V30 175 O 19.3551 0.740503 1.79528 0
M  V30 176 C 16.4851 1.69911 3.02898 0
M  V30 177 C 15.4391 2.8453 3.19729 0
M  V30 178 C 14.7651 2.73629 4.59381 0
M  V30 179 C 16.0651 4.25821 3.02447 0
M  V30 180 H 17.7591 2.5914 1.49955 0
M  V30 181 H 15.3051 1.24709 0.719982 0
M  V30 182 H 17.2581 1.80715 3.80684 0
M  V30 183 H 15.9821 0.732524 3.18279 0
M  V30 184 H 14.6411 2.73283 2.44361 0
M  V30 185 H 14.2891 1.74938 4.71599 0
M  V30 186 H 13.9891 3.50541 4.71588 0
M  V30 187 H 15.5131 2.86401 5.39265 0
M  V30 188 H 16.9271 4.37898 3.70024 0
M  V30 189 H 15.3241 5.03735 3.26146 0
M  V30 190 H 16.3941 4.42244 1.98867 0
M  V30 191 N 17.7372 -0.778329 1.37039 0
M  V30 192 C 18.9832 -1.53892 1.32079 0
M  V30 193 C 19.3162 -1.9396 -0.0965386 0
M  V30 194 O 18.5912 -1.63568 -1.05242 0
M  V30 195 C 18.8742 -2.80847 2.25382 0
M  V30 196 C 18.7272 -2.47076 3.75864 0
M  V30 197 C 20.0462 -3.82741 2.1725 0
M  V30 198 H 17.1652 -0.558303 0.48111 0
M  V30 199 H 19.8072 -0.893397 1.67685 0
M  V30 200 H 17.9572 -3.35931 1.95148 0
M  V30 201 H 19.6292 -1.97957 4.16666 0
M  V30 202 H 17.8722 -1.79863 3.94755 0
M  V30 203 H 18.5432 -3.37798 4.36574 0
M  V30 204 H 21.0192 -3.37133 2.43887 0
M  V30 205 H 19.8952 -4.69303 2.84686 0
M  V30 206 H 20.1562 -4.2652 1.16331 0
M  V30 207 N 19.2153 -1.21501 -1.00376 0
M  V30 208 C 20.4553 -1.04444 -1.75701 0
M  V30 209 C 20.8193 0.414644 -1.87469 0
M  V30 210 O 22.0203 0.705763 -2.59369 0
M  V30 211 C 20.2913 -1.72389 -3.13077 0
M  V30 212 S 21.8503 -1.70604 -4.04277 0
M  V30 213 H 18.6683 -0.374249 -0.604532 0
M  V30 214 H 21.2703 -1.54267 -1.20091 0
M  V30 215 H 19.9743 -2.77734 -3.02146 0
M  V30 216 H 19.5053 -1.22751 -3.73759 0
M  V30 217 H 21.5203 -0.748012 -4.9053 0
M  V30 218 N 20.6934 1.19889 -1.02296 0
M  V30 219 C 21.9414 1.89046 -0.714558 0
M  V30 220 C 22.2624 1.79636 0.758681 0
M  V30 221 O 21.5324 1.20292 1.54618 0
M  V30 222 H 20.1124 0.699802 -0.261317 0
M  V30 223 H 22.7744 1.45574 -1.29592 0
M  V30 224 H 21.8704 2.95524 -1.0036 0
M  V30 225 N 22.1715 0.800033 1.35784 0
M  V30 226 C 23.4175 0.377901 1.99248 0
M  V30 227 C 23.7505 -1.05052 1.63333 0
M  V30 228 O 23.0255 -1.72768 0.893385 0
M  V30 229 C 23.3085 0.553922 3.55814 0
M  V30 230 C 23.1615 2.0268 4.01548 0
M  V30 231 C 24.4805 -0.0244802 4.40093 0
M  V30 232 H 21.5995 0.138782 0.723815 0
M  V30 233 H 24.2415 1.00835 1.61035 0
M  V30 234 H 22.3915 0.0172398 3.88496 0
M  V30 235 H 24.0635 2.62536 3.79305 0
M  V30 236 H 22.3065 2.5256 3.52698 0
M  V30 237 H 22.9775 2.10087 5.10458 0
M  V30 238 H 25.4535 0.433775 4.13833 0
M  V30 239 H 24.3295 0.128637 5.48749 0
M  V30 240 H 24.5905 -1.11758 4.27741 0
M  V30 241 N 23.6496 -1.47581 0.552962 0
M  V30 242 C 25.0606 -1.86324 0.118463 0
M  V30 243 C 25.4116 -1.46006 -1.3106 0
M  V30 244 O 24.5366 -0.861182 -1.98526 0
M  V30 245 C 25.1316 -3.3816 0.20821 0
M  V30 246 C 23.6906 -3.7601 -0.171226 0
M  V30 247 C 22.8376 -2.71634 0.557686 0
M  V30 248 H 25.7886 -1.39159 0.762928 0
M  V30 249 H 25.8096 -3.76141 -0.574278 0
M  V30 250 H 25.3216 -3.67473 1.24841 0
M  V30 251 H 23.4226 -3.52313 -1.21269 0
M  V30 252 H 23.5356 -4.78745 0.184379 0
M  V30 253 H 21.8996 -2.547 0.00125792 0
M  V30 254 H 22.6826 -3.0379 1.59896 0
M  V30 255 N 25.1277 -0.289203 -1.54924 0
M  V30 256 C 26.0907 0.579144 -2.21762 0
M  V30 257 C 27.0907 1.07047 -1.1999 0
M  V30 258 O 28.2807 0.968384 -1.44803 0
M  V30 259 C 25.4127 1.80055 -2.8947 0
M  V30 260 H 26.6057 -0.00464908 -2.999 0
M  V30 261 H 24.1587 -0.0399306 -1.56249 0
M  V30 262 H 24.8937 2.42449 -2.15381 0
M  V30 263 H 24.6787 1.45602 -3.64064 0
M  V30 264 H 26.1687 2.41773 -3.40493 0
M  V30 265 N 26.6058 1.57591 -0.0167156 0
M  V30 266 C 27.5388 2.04944 1.00366 0
M  V30 267 C 28.5168 0.942648 1.32487 0
M  V30 268 O 29.7008 1.21205 1.44367 0
M  V30 269 C 26.8278 2.46109 2.32697 0
M  V30 270 C 25.8738 3.67686 2.16123 0
M  V30 271 S 26.7068 5.14882 1.47161 0
M  V30 272 C 27.8628 5.59332 2.80888 0
M  V30 273 H 28.0958 2.91172 0.600528 0
M  V30 274 H 25.6288 1.53168 0.194632 0
M  V30 275 H 27.5868 2.70493 3.08778 0
M  V30 276 H 26.2478 1.6025 2.70146 0
M  V30 277 H 25.4408 3.94296 3.13922 0
M  V30 278 H 25.0428 3.43391 1.48185 0
M  V30 279 H 27.3348 5.62814 3.77156 0
M  V30 280 H 28.2778 6.5905 2.58958 0
M  V30 281 H 28.6858 4.86942 2.85565 0
M  V30 282 N 28.0839 -0.256276 1.55502 0
M  V30 283 C 29.3609 -1.00789 1.67633 0
M  V30 284 C 29.7409 -2.03706 0.553826 0
M  V30 285 O 29.0889 -2.24145 -0.443969 0
M  V30 286 C 29.2989 -1.64968 3.07549 0
M  V30 287 C 30.6469 -2.15505 3.65845 0
M  V30 288 O 31.6709 -1.74925 3.1029 0
M  V30 289 O 30.5299 -2.89986 4.63217 0
M  V30 290 H 27.6239 -0.468553 0.681459 0
M  V30 291 H 30.1699 -0.250806 1.67836 0
M  V30 292 H 28.9419 -0.904785 3.80696 0
M  V30 293 H 28.5649 -2.47321 3.11317 0
M  V30 294 N 29.562 -1.4872 -0.521534 0
M  V30 295 C 30.811 -1.56419 -1.27341 0
M  V30 296 C 31.124 -0.246805 -1.94037 0
M  V30 297 O 32.33 -0.202122 -2.70747 0
M  V30 298 C 30.786 -2.75896 -2.31105 0
M  V30 299 C 30.394 -4.14311 -1.70441 0
M  V30 300 C 32.138 -2.92913 -3.07249 0
M  V30 301 C 30.045 -5.25038 -2.72194 0
M  V30 302 H 28.975 -0.582344 -0.478949 0
M  V30 303 H 31.626 -1.75071 -0.549779 0
M  V30 304 H 30.008 -2.50697 -3.06541 0
M  V30 305 H 31.182 -4.49564 -1.01136 0
M  V30 306 H 29.497 -4.02482 -1.06759 0
M  V30 307 H 32.094 -3.72805 -3.83302 0
M  V30 308 H 32.437 -2.02689 -3.63625 0
M  V30 309 H 32.97 -3.18054 -2.38928 0
M  V30 310 H 29.709 -6.17255 -2.20627 0
M  V30 311 H 29.229 -4.94263 -3.39801 0
M  V30 312 H 30.908 -5.53508 -3.35019 0
M  V30 313 N 31.0401 0.771051 -1.3745 0
M  V30 314 C 32.4511 1.34737 -1.29239 0
M  V30 315 C 32.8021 1.96109 0.0596908 0
M  V30 316 O 31.9271 1.93865 0.961534 0
M  V30 317 C 32.5221 2.44973 -2.34037 0
M  V30 318 C 31.0811 2.98372 -2.29458 0
M  V30 319 C 30.2281 1.71595 -2.17831 0
M  V30 320 H 33.1791 0.571256 -1.48062 0
M  V30 321 H 33.2001 3.24471 -1.98744 0
M  V30 322 H 32.7121 2.00276 -3.32432 0
M  V30 323 H 30.8131 3.47443 -1.34589 0
M  V30 324 H 30.9261 3.53939 -3.229 0
M  V30 325 H 29.2901 1.94547 -1.64388 0
M  V30 326 H 30.0731 1.29001 -3.18141 0
M  V30 327 N 32.5182 1.22032 0.997298 0
M  V30 328 C 33.4502 0.944263 2.08845 0
M  V30 329 C 34.4632 -0.0754663 1.62625 0
M  V30 330 O 35.6522 0.157994 1.77799 0
M  V30 331 C 32.7522 0.397723 3.36558 0
M  V30 332 C 31.9252 1.47362 4.11829 0
M  V30 333 C 30.9842 0.934951 5.17827 0
M  V30 334 O 30.0102 1.62016 5.45655 0
M  V30 335 N 31.2122 -0.245895 5.79979 0
M  V30 336 H 33.9772 1.88363 2.33109 0
M  V30 337 H 31.5382 1.12661 1.16272 0
M  V30 338 H 33.5302 0.0227771 4.04694 0
M  V30 339 H 32.1002 -0.446646 3.09393 0
M  V30 340 H 31.3202 2.02208 3.38386 0
M  V30 341 H 32.6082 2.19764 4.58891 0
M  V30 342 H 32.0062 -0.819475 5.59733 0
M  V30 343 H 30.5632 -0.562272 6.4937 0
M  V30 344 N 33.9963 -1.19345 1.0293 0
M  V30 345 C 35.2243 -1.92997 0.745644 0
M  V30 346 C 35.6393 -1.75519 -0.695589 0
M  V30 347 O 34.9963 -1.07737 -1.47306 0
M  V30 348 C 35.0473 -3.44741 1.08792 0
M  V30 349 O 34.7683 -3.61658 2.47256 0
M  V30 350 C 36.2693 -4.35515 0.827129 0
M  V30 351 H 33.4893 -0.613042 0.272801 0
M  V30 352 H 36.0333 -1.51473 1.3739 0
M  V30 353 H 34.1883 -3.84097 0.504832 0
M  V30 354 H 34.6023 -4.55514 2.60015 0
M  V30 355 H 36.0763 -5.40589 1.11658 0
M  V30 356 H 36.5533 -4.38552 -0.238436 0
M  V30 357 H 37.1593 -4.01841 1.39297 0
M  V30 358 N 35.4744 -0.807222 -1.35358 0
M  V30 359 C 36.4214 -0.216037 -2.29787 0
M  V30 360 C 37.3914 0.650278 -1.52842 0
M  V30 361 O 38.5764 0.595227 -1.81278 0
M  V30 362 C 35.7164 0.628893 -3.39321 0
M  V30 363 C 34.8294 -0.257927 -4.31229 0
M  V30 364 C 33.9644 0.595069 -5.27856 0
M  V30 365 C 33.0034 -0.292111 -6.11403 0
M  V30 366 N 32.1404 0.520895 -7.00165 0
M  V30 367 H 36.9804 -1.02671 -2.79755 0
M  V30 368 H 34.5174 -0.517839 -1.37684 0
M  V30 369 H 36.4754 1.13393 -4.01494 0
M  V30 370 H 35.1054 1.40482 -2.90628 0
M  V30 371 H 34.1574 -0.881076 -3.70056 0
M  V30 372 H 35.4694 -0.940759 -4.89848 0
M  V30 373 H 34.6234 1.16522 -5.95405 0
M  V30 374 H 33.3624 1.31146 -4.69736 0
M  V30 375 H 32.3674 -0.874525 -5.428 0
M  V30 376 H 33.5924 -1.00638 -6.71602 0
M  V30 377 H 31.5384 1.22125 -6.44532 0
M  V30 378 H 31.4554 -0.103877 -7.55929 0
M  V30 379 H 32.7234 1.0743 -7.72062 0
M  V30 380 N 36.9525 1.47285 -0.560781 0
M  V30 381 C 37.8845 2.28118 0.222438 0
M  V30 382 C 38.8975 1.37219 0.876056 0
M  V30 383 O 40.0865 1.62011 0.749307 0
M  V30 384 C 37.1865 3.1159 1.33285 0
M  V30 385 C 36.3595 4.30473 0.77534 0
M  V30 386 C 35.4185 4.95513 1.77069 0
M  V30 387 O 34.4445 5.53792 1.31539 0
M  V30 388 N 35.6465 4.90531 3.10418 0
M  V30 389 H 38.4115 2.95976 -0.470958 0
M  V30 390 H 35.9725 1.56955 -0.39709 0
M  V30 391 H 37.9645 3.51967 1.99752 0
M  V30 392 H 36.5345 2.45951 1.92943 0
M  V30 393 H 35.7545 3.94144 -0.0662113 0
M  V30 394 H 37.0425 5.07362 0.382272 0
M  V30 395 H 36.4405 4.44389 3.5005 0
M  V30 396 H 34.9975 5.34917 3.72434 0
M  V30 397 N 38.4306 0.297415 1.54768 0
M  V30 398 C 39.7076 -0.365847 1.92148 0
M  V30 399 C 40.0876 -1.71975 1.22424 0
M  V30 400 O 39.4356 -2.25666 0.358739 0
M  V30 401 C 39.6456 -0.484056 3.45627 0
M  V30 402 C 40.9936 -0.756594 4.17805 0
M  V30 403 O 42.0176 -0.568007 3.51642 0
M  V30 404 O 40.8766 -1.11863 5.34929 0
M  V30 405 H 37.9706 -0.203919 0.801465 0
M  V30 406 H 40.5166 0.34521 1.66152 0
M  V30 407 H 39.2886 0.467865 3.88493 0
M  V30 408 H 38.9116 -1.24372 3.77647 0
M  V30 409 N 39.9087 -1.5758 0.0250728 0
M  V30 410 C 40.8387 -2.13007 -0.956575 0
M  V30 411 C 41.8197 -1.0452 -1.342 0
M  V30 412 O 43.0047 -1.32332 -1.42133 0
M  V30 413 C 40.1347 -2.65386 -2.24026 0
M  V30 414 C 39.0887 -3.78623 -1.99571 0
M  V30 415 C 38.4147 -4.17414 -3.3417 0
M  V30 416 C 39.7147 -5.04867 -1.33814 0
M  V30 417 H 41.4087 -2.9528 -0.494991 0
M  V30 418 H 38.9547 -1.42042 -0.236651 0
M  V30 419 H 40.9077 -3.02794 -2.93076 0
M  V30 420 H 39.6317 -1.80268 -2.72343 0
M  V30 421 H 38.2907 -3.41646 -1.32941 0
M  V30 422 H 37.9387 -3.29284 -3.80238 0
M  V30 423 H 37.6387 -4.93719 -3.18615 0
M  V30 424 H 39.1627 -4.57402 -4.04495 0
M  V30 425 H 40.5767 -5.39888 -1.92857 0
M  V30 426 H 38.9737 -5.86144 -1.28669 0
M  V30 427 H 40.0437 -4.83904 -0.310561 0
M  V30 428 N 41.3868 0.248026 -1.55636 0
M  V30 429 C 42.2968 1.32859 -1.93354 0
M  V30 430 C 43.3128 1.52719 -0.833838 0
M  V30 431 O 44.4888 1.66363 -1.13513 0
M  V30 432 C 41.5538 2.66337 -2.21958 0
M  V30 433 C 40.6148 2.55008 -3.45354 0
M  V30 434 C 39.8478 3.82121 -3.72584 0
M  V30 435 O 40.0708 4.83951 -3.01907 0
M  V30 436 O 39.0048 3.80822 -4.6611 0
M  V30 437 H 42.8308 1.03862 -2.85388 0
M  V30 438 H 40.4158 0.448686 -1.42503 0
M  V30 439 H 42.2978 3.45216 -2.4167 0
M  V30 440 H 40.9728 2.95068 -1.33103 0
M  V30 441 H 39.8798 1.7442 -3.30951 0
M  V30 442 H 41.2128 2.31222 -4.34508 0
M  V30 443 N 42.8649 1.48995 0.513639 0
M  V30 444 C 43.7949 1.67636 1.62544 0
M  V30 445 C 44.7759 0.525087 1.61793 0
M  V30 446 O 45.9609 0.759502 1.78732 0
M  V30 447 C 43.0909 1.73114 3.01079 0
M  V30 448 C 42.0449 2.87905 3.16693 0
M  V30 449 C 41.3709 2.78486 4.56453 0
M  V30 450 C 42.6709 4.29005 2.97913 0
M  V30 451 H 44.3649 2.60716 1.47198 0
M  V30 452 H 41.9109 1.25465 0.706714 0
M  V30 453 H 43.8639 1.84742 3.78746 0
M  V30 454 H 42.5879 0.766241 3.17484 0
M  V30 455 H 41.2469 2.75859 2.41448 0
M  V30 456 H 40.8949 1.7993 4.69717 0
M  V30 457 H 40.5949 3.55523 4.67843 0
M  V30 458 H 42.1189 2.92104 5.36197 0
M  V30 459 H 43.5329 4.41798 3.65359 0
M  V30 460 H 41.9299 5.07166 3.20785 0
M  V30 461 H 42.9999 4.44329 1.94165 0
M  V30 462 N 44.343 -0.763751 1.37857 0
M  V30 463 C 45.754 -1.3405 1.29952 0
M  V30 464 C 46.105 -1.96138 -0.0492898 0
M  V30 465 O 45.23 -1.94372 -0.951239 0
M  V30 466 C 45.825 -2.43729 2.35333 0
M  V30 467 C 44.384 -2.97151 2.31037 0
M  V30 468 C 43.531 -1.70438 2.18738 0
M  V30 469 H 46.482 -0.563396 1.48363 0
M  V30 470 H 46.503 -3.23412 2.00462 0
M  V30 471 H 46.015 -1.9851 3.33489 0
M  V30 472 H 44.116 -3.46724 1.3643 0
M  V30 473 H 44.229 -3.52221 3.24772 0
M  V30 474 H 42.593 -1.93673 1.65418 0
M  V30 475 H 43.376 -1.27312 3.18821 0
M  V30 476 N 45.8211 -1.22559 -0.990812 0
M  V30 477 C 46.7681 -0.997519 -2.0813 0
M  V30 478 C 47.7381 0.0814702 -1.659 0
M  V30 479 O 48.9231 -0.0685424 -1.90677 0
M  V30 480 C 46.0631 -0.583615 -3.40129 0
M  V30 481 C 45.1761 -1.7336 -3.9569 0
M  V30 482 C 44.3111 -1.26748 -5.15857 0
M  V30 483 C 43.3501 -2.38888 -5.63559 0
M  V30 484 N 42.4871 -1.93308 -6.74964 0
M  V30 485 H 47.3271 -1.93099 -2.26973 0
M  V30 486 H 44.8641 -0.962114 -1.11273 0
M  V30 487 H 46.8221 -0.324801 -4.15934 0
M  V30 488 H 45.4521 0.312845 -3.2128 0
M  V30 489 H 44.5041 -2.10669 -3.16738 0
M  V30 490 H 45.8161 -2.57704 -4.27071 0
M  V30 491 H 44.9701 -0.966173 -5.98957 0
M  V30 492 H 43.7091 -0.394272 -4.86104 0
M  V30 493 H 42.7141 -2.69805 -4.79046 0
M  V30 494 H 43.9391 -3.26728 -5.95336 0
M  V30 495 H 41.8851 -1.08352 -6.4699 0
M  V30 496 H 41.8021 -2.71217 -7.05675 0
M  V30 497 H 43.0701 -1.66252 -7.61564 0
M  V30 498 N 47.2992 1.18797 -1.03562 0
M  V30 499 C 48.2292 2.24472 -0.643019 0
M  V30 500 C 49.2102 1.66433 0.351283 0
M  V30 501 O 50.3952 1.92803 0.232505 0
M  V30 502 C 47.5252 3.473 4.24935e-05 0
M  V30 503 C 46.4792 4.18055 -0.917257 0
M  V30 504 C 45.8052 5.34519 -0.138941 0
M  V30 505 C 47.1052 4.72109 -2.23407 0
M  V30 506 H 48.7992 2.57566 -1.52643 0
M  V30 507 H 46.3452 1.23806 -0.735394 0
M  V30 508 H 48.2982 4.20426 0.286383 0
M  V30 509 H 47.0222 3.13424 0.918299 0
M  V30 510 H 45.6812 3.46821 -1.1879 0
M  V30 511 H 45.3292 4.96891 0.781562 0
M  V30 512 H 45.0292 5.82794 -0.750005 0
M  V30 513 H 46.5532 6.10438 0.1405 0
M  V30 514 H 47.9672 5.36955 -2.00879 0
M  V30 515 H 46.3642 5.30897 -2.79765 0
M  V30 516 H 47.4342 3.89807 -2.88407 0
M  V30 517 N 48.7773 0.814389 1.34928 0
M  V30 518 C 49.7403 0.235759 2.27984 0
M  V30 519 C 50.7403 -0.581412 1.49921 0
M  V30 520 O 51.9303 -0.398758 1.69575 0
M  V30 521 C 49.0623 -0.670433 3.34242 0
M  V30 522 H 50.2553 1.05659 2.80671 0
M  V30 523 H 47.8083 0.585614 1.44915 0
M  V30 524 H 48.5433 -1.51466 2.86755 0
M  V30 525 H 48.3283 -0.0860822 3.92005 0
M  V30 526 H 49.8183 -1.06935 4.03676 0
M  V30 527 N 50.2554 -1.46986 0.568584 0
M  V30 528 C 51.5034 -2.02041 0.0487022 0
M  V30 529 C 51.8244 -1.44408 -1.31039 0
M  V30 530 O 51.0944 -0.623477 -1.85714 0
M  V30 531 H 49.6744 -0.746849 0.015014 0
M  V30 532 H 52.3364 -1.80257 0.741168 0
M  V30 533 H 51.4324 -3.12085 -0.0308961 0
M  V30 534 N 51.7335 -0.305618 -1.54608 0
M  V30 535 C 52.9615 0.304775 -2.04643 0
M  V30 536 C 53.3765 1.47167 -1.18268 0
M  V30 537 O 52.7335 1.81296 -0.209328 0
M  V30 538 C 52.7845 0.756564 -3.53495 0
M  V30 539 O 52.5055 -0.36389 -4.36586 0
M  V30 540 C 54.0065 1.43163 -4.19546 0
M  V30 541 H 51.2265 0.0655481 -0.667791 0
M  V30 542 H 53.7705 -0.446592 -1.99564 0
M  V30 543 H 51.9255 1.45794 -3.58919 0
M  V30 544 H 52.3395 -0.0113121 -5.24499 0
M  V30 545 H 53.8135 1.69886 -5.25207 0
M  V30 546 H 54.2905 2.37318 -3.69563 0
M  V30 547 H 54.8965 0.773307 -4.18211 0
M  V30 548 N 53.2116 1.57565 -0.0334293 0
M  V30 549 C 54.4576 1.93088 0.639417 0
M  V30 550 C 54.8126 0.910589 1.69488 0
M  V30 551 O 54.1056 -0.0727725 1.91462 0
M  V30 552 C 54.2996 3.33112 1.29504 0
M  V30 553 C 54.1286 4.48667 0.304604 0
M  V30 554 C 52.8986 5.05207 -0.0970777 0
M  V30 555 C 55.0966 5.1239 -0.442845 0
M  V30 556 N 53.0786 6.04286 -1.08223 0
M  V30 557 C 54.4496 6.06609 -1.28161 0
M  V30 558 C 56.5046 4.95352 -0.50308 0
M  V30 559 C 55.2076 6.85622 -2.17519 0
M  V30 560 C 57.2336 5.74978 -1.38401 0
M  V30 561 C 56.5956 6.68816 -2.21054 0
M  V30 562 H 52.6946 0.754335 0.206161 0
M  V30 563 H 55.2786 1.94435 -0.101613 0
M  V30 564 H 53.4496 3.32576 2.00618 0
M  V30 565 H 55.1816 3.55972 1.92525 0
M  V30 566 H 51.9366 4.72782 0.278255 0
M  V30 567 H 52.3606 6.58516 -1.57117 0
M  V30 568 H 57.0026 4.22625 0.121694 0
M  V30 569 H 54.7206 7.57652 -2.81049 0
M  V30 570 H 58.3066 5.63826 -1.43496 0
M  V30 571 H 57.1866 7.29355 -2.88116 0
M  V30 572 N 54.6897 -0.239769 1.55765 0
M  V30 573 C 55.6397 -1.30002 1.87306 0
M  V30 574 C 56.6237 -1.43156 0.73452 0
M  V30 575 O 57.8157 -1.46277 0.99659 0
M  V30 576 C 54.9447 -2.65409 2.17745 0
M  V30 577 C 54.0307 -2.56231 3.37945 0
M  V30 578 N 54.4217 -2.16689 4.57033 0
M  V30 579 C 52.7197 -2.87229 3.41197 0
M  V30 580 C 53.4207 -2.18318 5.39177 0
M  V30 581 N 52.3967 -2.58098 4.78421 0
M  V30 582 H 56.1987 -0.984912 2.76906 0
M  V30 583 H 53.7127 -0.448381 1.56087 0
M  V30 584 H 55.7097 -3.41934 2.38509 0
M  V30 585 H 54.3697 -2.97781 1.29448 0
M  V30 586 H 55.3807 -1.88116 4.82528 0
M  V30 587 H 52.0577 -3.24094 2.63191 0
M  V30 588 H 53.4477 -1.90025 6.44469 0
M  V30 589 N 56.1678 -1.49265 -0.50573 0
M  V30 590 C 57.3928 -1.62478 -1.28902 0
M  V30 591 C 57.8178 -0.294332 -1.85783 0
M  V30 592 O 57.1758 0.737412 -1.65626 0
M  V30 593 C 57.2238 -2.69268 -2.39848 0
M  V30 594 O 56.3278 -2.28113 -3.43567 0
M  V30 595 H 55.6688 -0.54399 -0.380751 0
M  V30 596 H 58.1988 -1.95421 -0.605952 0
M  V30 597 H 58.2088 -2.91291 -2.85681 0
M  V30 598 H 56.8838 -3.65846 -1.97812 0
M  V30 599 H 55.4608 -2.16401 -3.03685 0
M  V30 600 N 57.6459 0.756429 -1.3826 0
M  V30 601 C 58.5789 1.87802 -1.29637 0
M  V30 602 C 59.5569 1.61667 -0.173939 0
M  V30 603 O 60.7409 1.85208 -0.350775 0
M  V30 604 C 57.8679 3.23354 -1.00797 0
M  V30 605 C 56.9139 3.68379 -2.14939 0
M  V30 606 S 57.7469 3.8025 -3.77054 0
M  V30 607 C 58.9029 5.18626 -3.50396 0
M  V30 608 H 59.1359 1.94829 -2.24564 0
M  V30 609 H 56.6689 0.919117 -1.24063 0
M  V30 610 H 58.6269 4.01637 -0.848413 0
M  V30 611 H 57.2879 3.14008 -0.0759369 0
M  V30 612 H 56.4809 4.66693 -1.90299 0
M  V30 613 H 56.0829 2.97242 -2.26988 0
M  V30 614 H 58.3749 6.04289 -3.06334 0
M  V30 615 H 59.3179 5.48286 -4.48094 0
M  V30 616 H 59.7259 4.87289 -2.84973 0
M  V30 617 N 59.124 1.23083 0.984299 0
M  V30 618 C 60.087 1.00979 2.05757 0
M  V30 619 C 61.087 -0.0269573 1.60777 0
M  V30 620 O 62.277 0.212403 1.729 0
M  V30 621 C 59.409 0.527072 3.36801 0
M  V30 622 H 60.602 1.9622 2.26799 0
M  V30 623 H 58.155 1.05072 1.15714 0
M  V30 624 H 58.89 -0.429294 3.21446 0
M  V30 625 H 58.675 1.27515 3.70786 0
M  V30 626 H 60.165 0.392942 4.15747 0
M  V30 627 N 60.6021 -1.18246 1.0419 0
M  V30 628 C 61.5351 -2.20746 0.578474 0
M  V30 629 C 62.5131 -1.57912 -0.387624 0
M  V30 630 O 63.6971 -1.86071 -0.301634 0
M  V30 631 C 60.8241 -3.38346 -0.154762 0
M  V30 632 C 59.8701 -4.19587 0.764782 0
M  V30 633 S 60.7031 -4.86014 2.24835 0
M  V30 634 C 61.8591 -6.07012 1.526 0
M  V30 635 H 62.0921 -2.59715 1.44691 0
M  V30 636 H 59.6251 -1.287 0.85297 0
M  V30 637 H 61.5831 -4.065 -0.571641 0
M  V30 638 H 60.2441 -2.97786 -0.999105 0
M  V30 639 H 59.4371 -5.03611 0.197976 0
M  V30 640 H 59.0391 -3.56818 1.12057 0
M  V30 641 H 61.3311 -6.72523 0.819733 0
M  V30 642 H 62.2741 -6.68202 2.34333 0
M  V30 643 H 62.6821 -5.55249 1.01779 0
M  V30 644 N 62.0802 -0.821533 -1.34494 0
M  V30 645 C 63.0432 -0.247847 -2.27856 0
M  V30 646 C 64.0432 0.573453 -1.50227 0
M  V30 647 O 65.2332 0.389759 -1.69784 0
M  V30 648 C 62.3652 0.652698 -3.34593 0
M  V30 649 H 63.5582 -1.07146 -2.80107 0
M  V30 650 H 61.1112 -0.593291 -1.44602 0
M  V30 651 H 61.8462 1.49943 -2.87555 0
M  V30 652 H 61.6312 0.065292 -3.92046 0
M  V30 653 H 63.1212 1.04793 -4.04238 0
M  V30 654 N 63.5583 1.46682 -0.576371 0
M  V30 655 C 64.7863 2.06798 -0.0649635 0
M  V30 656 C 65.2013 1.42612 1.23723 0
M  V30 657 O 64.5583 0.529203 1.74659 0
M  V30 658 C 64.6093 3.6132 0.114202 0
M  V30 659 O 64.3303 4.23104 -1.13644 0
M  V30 660 C 65.8313 4.38349 0.66069 0
M  V30 661 H 63.0513 0.668778 -0.0545616 0
M  V30 662 H 65.5953 1.88404 -0.795237 0
M  V30 663 H 63.7503 3.79162 0.794673 0
M  V30 664 H 64.1643 5.15894 -0.946253 0
M  V30 665 H 65.6383 5.47081 0.73526 0
M  V30 666 H 66.1153 4.05953 1.67627 0
M  V30 667 H 66.7213 4.25297 0.0152951 0
M  V30 668 N 65.0364 0.313813 1.54444 0
M  V30 669 C 65.9844 -0.572171 2.25453 0
M  V30 670 C 66.9784 -1.12657 1.2651 0
M  V30 671 O 68.1844 -1.07573 1.44319 0
M  V30 672 H 64.5594 -0.203146 0.724041 0
M  V30 673 H 66.5304 0.0491145 2.9836 0
M  V30 674 C 65.2794 -1.72626 3.0182 0
M  V30 675 H 64.6024 -1.30891 3.77767 0
M  V30 676 H 66.0424 -2.32199 3.54767 0
M  V30 677 C 64.5014 -2.63806 2.09542 0
M  V30 678 O 65.0314 -3.65256 1.67185 0
M  V30 679 N 63.2374 -2.31824 1.75232 0
M  V30 680 H 62.7844 -1.49368 2.09873 0
M  V30 681 H 62.7424 -2.93095 1.13767 0
M  V30 682 N 66.5145 -1.57545 0.0417849 0
M  V30 683 C 67.4625 -2.12148 -0.953723 0
M  V30 684 C 68.4565 -1.05104 -1.32852 0
M  V30 685 O 69.6625 -1.23524 -1.30927 0
M  V30 686 H 66.0375 -0.677957 -0.325389 0
M  V30 687 H 68.0085 -2.94707 -0.467991 0
M  V30 688 C 66.7575 -2.6739 -2.22257 0
M  V30 689 H 66.0805 -3.49413 -1.94295 0
M  V30 690 H 67.5205 -3.09227 -2.90094 0
M  V30 691 C 65.9795 -1.60723 -2.96091 0
M  V30 692 O 66.5095 -1.01449 -3.88679 0
M  V30 693 N 64.7155 -1.32466 -2.58652 0
M  V30 694 H 64.2625 -1.80856 -1.83437 0
M  V30 695 H 64.2205 -0.61325 -3.08361 0
M  V30 696 N 67.9926 0.231505 -1.5589 0
M  V30 697 C 69.2416 0.955346 -1.7764 0
M  V30 698 C 69.5546 1.85893 -0.608546 0
M  V30 699 O 70.7606 2.62067 -0.70943 0
M  V30 700 C 69.2166 1.74886 -3.14552 0
M  V30 701 C 68.8246 0.891915 -4.39032 0
M  V30 702 C 70.5686 2.46452 -3.45633 0
M  V30 703 C 68.4756 1.68221 -5.66971 0
M  V30 704 H 67.4056 0.360446 -0.662265 0
M  V30 705 H 70.0566 0.209516 -1.823 0
M  V30 706 H 68.4386 2.53723 -3.04041 0
M  V30 707 H 69.6126 0.144793 -4.60572 0
M  V30 708 H 67.9276 0.288863 -4.15397 0
M  V30 709 H 70.5246 3.06061 -4.38441 0
M  V30 710 H 70.8676 3.18841 -2.67668 0
M  V30 711 H 71.4006 1.74613 -3.57428 0
M  V30 712 H 68.1396 1.00178 -6.478 0
M  V30 713 H 67.6596 2.4042 -5.49507 0
M  V30 714 H 69.3386 2.24544 -6.06786 0
M  V30 715 N 69.4707 1.49531 0.497807 0
M  V30 716 C 70.6957 1.63159 1.28039 0
M  V30 717 C 71.1207 0.30418 1.85624 0
M  V30 718 O 70.4787 -0.728618 1.66015 0
M  V30 719 C 70.5267 2.70537 2.38416 0
M  V30 720 O 69.6307 2.29931 3.42353 0
M  V30 721 H 68.9717 0.546001 0.377861 0
M  V30 722 H 71.5017 1.9574 0.59558 0
M  V30 723 H 71.5117 2.92802 2.84132 0
M  V30 724 H 70.1867 3.6689 1.95869 0
M  V30 725 H 68.7637 2.18009 3.02533 0
M  V30 726 N 70.9488 -0.749086 1.3866 0
M  V30 727 C 71.8788 -1.8764 1.38973 0
M  V30 728 C 72.8598 -1.68178 0.255004 0
M  V30 729 O 74.0448 -1.88704 0.458754 0
M  V30 730 C 71.1748 -3.25222 1.21851 0
M  V30 731 C 70.1288 -3.59295 2.32575 0
M  V30 732 C 69.4548 -4.95663 2.00555 0
M  V30 733 C 70.7548 -3.63709 3.7485 0
M  V30 734 H 72.4488 -1.87635 2.3331 0
M  V30 735 H 69.9948 -0.901329 1.12303 0
M  V30 736 H 71.9478 -4.03746 1.20695 0
M  V30 737 H 70.6718 -3.25719 0.239775 0
M  V30 738 H 69.3308 -2.83093 2.32925 0
M  V30 739 H 68.9788 -4.92724 1.01154 0
M  V30 740 H 68.6788 -5.19429 2.74714 0
M  V30 741 H 70.2028 -5.7656 2.01024 0
M  V30 742 H 71.6168 -4.32338 3.76506 0
M  V30 743 H 70.0138 -3.98986 4.48252 0
M  V30 744 H 71.0838 -2.63834 4.06841 0
M  V30 745 N 72.4269 -1.23603 -0.977757 0
M  V30 746 C 73.3599 -0.962772 -2.06896 0
M  V30 747 C 74.3379 0.0998743 -1.62293 0
M  V30 748 O 75.5219 -0.0349421 -1.88468 0
M  V30 749 C 72.6489 -0.45095 -3.35685 0
M  V30 750 C 71.6949 -1.50061 -3.99229 0
M  V30 751 S 72.5279 -3.07884 -4.38142 0
M  V30 752 C 73.6839 -2.58378 -5.7008 0
M  V30 753 H 73.9169 -1.88677 -2.29757 0
M  V30 754 H 71.4499 -1.06876 -1.11431 0
M  V30 755 H 73.4079 -0.162261 -4.10179 0
M  V30 756 H 72.0689 0.452179 -3.10828 0
M  V30 757 H 71.2619 -1.09269 -4.92013 0
M  V30 758 H 70.8639 -1.73878 -3.31123 0
M  V30 759 H 73.1559 -2.00563 -6.47133 0
M  V30 760 H 74.0989 -3.49711 -6.15717 0
M  V30 761 H 74.5069 -1.99143 -5.28207 0
M  V30 762 N 73.905 1.17692 -1.04816 0
M  V30 763 C 74.868 2.19787 -0.650117 0
M  V30 764 C 75.868 1.58044 0.296427 0
M  V30 765 O 77.058 1.74012 0.0808097 0
M  V30 766 C 74.19 3.40869 0.0456987 0
M  V30 767 H 75.383 2.56516 -1.5537 0
M  V30 768 H 72.936 1.31708 -0.841594 0
M  V30 769 H 73.671 3.09681 0.962726 0
M  V30 770 H 73.456 3.86928 -0.634727 0
M  V30 771 H 74.946 4.16445 0.310432 0
M  V30 772 N 75.3831 0.828654 1.34056 0
M  V30 773 C 76.6111 0.43262 2.02326 0
M  V30 774 C 77.0261 -0.963147 1.62385 0
M  V30 775 O 76.3831 -1.62425 0.832121 0
M  V30 776 C 76.4341 0.53182 3.57567 0
M  V30 777 O 76.1551 1.87258 3.96063 0
M  V30 778 C 77.6561 0.131422 4.43105 0
M  V30 779 H 74.8761 0.172923 0.648335 0
M  V30 780 H 77.4201 1.1184 1.71208 0
M  V30 781 H 75.5751 -0.105938 3.87255 0
M  V30 782 H 75.9891 1.85087 4.90758 0
M  V30 783 H 77.4631 0.251904 5.51425 0
M  V30 784 H 77.9401 -0.925645 4.29335 0
M  V30 785 H 78.5461 0.743207 4.18756 0
M  V30 786 N 76.8612 -1.46375 0.584142 0
M  V30 787 C 77.7912 -2.33103 -0.136037 0
M  V30 788 C 78.7722 -1.45431 -0.882255 0
M  V30 789 O 79.9572 -1.74246 -0.857434 0
M  V30 790 C 77.0872 -3.27731 -1.14933 0
M  V30 791 C 76.0412 -4.24855 -0.517862 0
M  V30 792 C 75.3672 -5.09001 -1.63773 0
M  V30 793 C 76.6672 -5.19439 0.545886 0
M  V30 794 H 78.3612 -2.93568 0.588086 0
M  V30 795 H 75.9072 -1.41166 0.284259 0
M  V30 796 H 77.8602 -3.87261 -1.66153 0
M  V30 797 H 76.5842 -2.65377 -1.90375 0
M  V30 798 H 75.2432 -3.6659 -0.0267361 0
M  V30 799 H 74.8912 -4.43031 -2.38185 0
M  V30 800 H 74.5912 -5.74777 -1.22085 0
M  V30 801 H 76.1152 -5.71396 -2.15266 0
M  V30 802 H 77.5292 -5.73177 0.118704 0
M  V30 803 H 75.9262 -5.93566 0.88317 0
M  V30 804 H 76.9962 -4.63285 1.43162 0
M  V30 805 N 78.3393 -0.321999 -1.54275 0
M  V30 806 C 79.2863 0.544664 -2.24281 0
M  V30 807 C 80.2563 1.1129 -1.23303 0
M  V30 808 O 81.4413 1.15354 -1.51981 0
M  V30 809 C 78.5813 1.70045 -3.00298 0
M  V30 810 C 77.6943 1.16159 -4.1609 0
M  V30 811 C 76.8293 2.28293 -4.79641 0
M  V30 812 C 75.8683 1.71648 -5.8754 0
M  V30 813 N 75.0053 2.77438 -6.44959 0
M  V30 814 H 79.8453 -0.0588907 -2.97942 0
M  V30 815 H 77.3823 -0.0408345 -1.47043 0
M  V30 816 H 79.3403 2.38054 -3.42616 0
M  V30 817 H 77.9703 2.27531 -2.28975 0
M  V30 818 H 77.0223 0.373092 -3.78566 0
M  V30 819 H 78.3343 0.707087 -4.93763 0
M  V30 820 H 77.4883 3.0421 -5.2492 0
M  V30 821 H 76.2273 2.77079 -4.01346 0
M  V30 822 H 75.2323 0.942282 -5.41665 0
M  V30 823 H 76.4573 1.23741 -6.67731 0
M  V30 824 H 74.4033 3.25519 -5.69538 0
M  V30 825 H 74.3203 2.36547 -7.1804 0
M  V30 826 H 75.5883 3.53189 -6.94894 0
M  V30 827 N 79.8174 1.5752 -0.0501392 0
M  V30 828 C 80.7804 2.1037 0.909786 0
M  V30 829 C 81.7804 1.02308 1.24056 0
M  V30 830 O 82.9704 1.28385 1.17741 0
M  V30 831 C 80.1024 2.58708 2.21998 0
M  V30 832 H 81.2954 2.96479 0.451665 0
M  V30 833 H 78.8484 1.55038 0.198248 0
M  V30 834 H 79.5834 1.75989 2.72394 0
M  V30 835 H 79.3684 3.37675 1.99295 0
M  V30 836 H 80.8584 2.99747 2.9076 0
M  V30 837 N 81.2955 -0.223234 1.56011 0
M  V30 838 C 82.7065 -0.790368 1.69145 0
M  V30 839 C 83.0575 -1.85055 0.651845 0
M  V30 840 O 82.1825 -2.15498 -0.197359 0
M  V30 841 C 82.7775 -1.4404 3.06656 0
M  V30 842 C 81.3365 -1.95494 3.2165 0
M  V30 843 C 80.4835 -0.814506 2.65068 0
M  V30 844 H 83.4345 0.00139011 1.587 0
M  V30 845 H 83.4555 -2.30916 3.0242 0
M  V30 846 H 82.9675 -0.668543 3.82298 0
M  V30 847 H 81.0685 -2.75487 2.50874 0
M  V30 848 H 81.1815 -2.13607 4.28846 0
M  V30 849 H 79.5455 -1.22137 2.23505 0
M  V30 850 H 80.3285 -0.0553515 3.43255 0
M  V30 851 N 82.7736 -1.49793 -0.48987 0
M  V30 852 C 83.7036 -1.70201 -1.59856 0
M  V30 853 C 84.6846 -0.55076 -1.60937 0
M  V30 854 O 85.8696 -0.787841 -1.77501 0
M  V30 855 C 82.9996 -1.77882 -2.98287 0
M  V30 856 C 81.9536 -2.92907 -3.12073 0
M  V30 857 C 81.2796 -2.85712 -4.51965 0
M  V30 858 C 82.5796 -4.3369 -2.91051 0
M  V30 859 H 84.2736 -2.63025 -1.43032 0
M  V30 860 H 81.8196 -1.26574 -0.686664 0
M  V30 861 H 83.7726 -1.90744 -3.75759 0
M  V30 862 H 82.4966 -0.816653 -3.16225 0
M  V30 863 H 81.1556 -2.79665 -2.37029 0
M  V30 864 H 80.8036 -1.8738 -4.66795 0
M  V30 865 H 80.5036 -3.62921 -4.62128 0
M  V30 866 H 82.0276 -3.00598 -5.31482 0
M  V30 867 H 83.4416 -4.47555 -3.58284 0
M  V30 868 H 81.8386 -5.12205 -3.12675 0
M  V30 869 H 82.9086 -4.47362 -1.87071 0
M  V30 870 N 84.2517 0.741722 -1.39055 0
M  V30 871 C 85.6677 1.04638 -1.20512 0
M  V30 872 C 85.8677 2.01405 -0.0620218 0
M  V30 873 O 84.9237 2.45547 0.588457 0
M  V30 874 C 86.2367 1.6151 -2.53643 0
M  V30 875 C 87.7847 1.73623 -2.6043 0
M  V30 876 C 88.2597 2.33906 -3.93767 0
M  V30 877 N 89.7507 2.41323 -3.9537 0
M  V30 878 C 90.4857 2.88888 -4.95309 0
M  V30 879 N 89.9817 3.36401 -6.05645 0
M  V30 880 N 91.7747 2.88037 -4.82692 0
M  V30 881 H 83.9257 0.0998155 -2.12165 0
M  V30 882 H 86.1887 0.106907 -0.941953 0
M  V30 883 H 85.8947 0.978739 -3.37807 0
M  V30 884 H 85.7687 2.60411 -2.72885 0
M  V30 885 H 88.1557 2.36384 -1.76655 0
M  V30 886 H 88.2367 0.733945 -2.45045 0
M  V30 887 H 87.8807 1.71776 -4.7797 0
M  V30 888 H 87.8107 3.34799 -4.06469 0
M  V30 889 H 90.3017 2.07734 -3.15682 0
M  V30 890 H 90.6147 3.71186 -6.77821 0
M  V30 891 H 88.9597 3.34427 -6.09248 0
M  V30 892 H 92.1507 2.50237 -3.95599 0
M  V30 893 H 92.3237 3.24792 -5.60726 0
M  V30 894 N 85.7298 1.2412 0.971189 0
M  V30 895 C 86.9758 1.08041 1.71625 0
M  V30 896 C 87.3088 -0.380407 1.90438 0
M  V30 897 O 86.5838 -1.28127 1.46334 0
M  V30 898 C 86.8668 1.81682 3.10908 0
M  V30 899 C 86.7198 3.35493 2.99608 0
M  V30 900 C 88.0388 1.58671 4.10501 0
M  V30 901 H 85.1578 0.39388 0.622919 0
M  V30 902 H 87.7998 1.52743 1.13003 0
M  V30 903 H 85.9498 1.43684 3.60953 0
M  V30 904 H 87.6218 3.83068 2.57015 0
M  V30 905 H 85.8648 3.64052 2.35899 0
M  V30 906 H 86.5358 3.82217 3.98264 0
M  V30 907 H 89.0118 1.91719 3.69301 0
M  V30 908 H 87.8878 2.1266 5.06031 0
M  V30 909 H 88.1488 0.524161 4.38982 0
M  V30 910 N 87.2079 -1.17134 1.05439 0
M  V30 911 C 88.1579 -2.1919 0.627675 0
M  V30 912 C 89.1419 -1.57328 -0.337147 0
M  V30 913 O 90.3339 -1.76329 -0.153976 0
M  V30 914 C 87.4629 -3.43299 0.00651435 0
M  V30 915 C 86.5489 -4.12255 0.995312 0
M  V30 916 N 86.9399 -4.56997 2.16765 0
M  V30 917 C 85.2379 -4.38316 0.824336 0
M  V30 918 C 85.9389 -5.10239 2.7934 0
M  V30 919 N 84.9149 -5.02595 2.07122 0
M  V30 920 H 88.7169 -2.5149 1.52086 0
M  V30 921 H 86.2309 -1.33491 0.924868 0
M  V30 922 H 88.2279 -4.15693 -0.316965 0
M  V30 923 H 86.8879 -3.1249 -0.882033 0
M  V30 924 H 87.8989 -4.51006 2.54587 0
M  V30 925 H 84.5759 -4.17498 -0.0129526 0
M  V30 926 H 85.9659 -5.54961 3.78772 0
M  V30 927 N 88.686 -0.835752 -1.33615 0
M  V30 928 C 89.935 -0.426289 -1.97144 0
M  V30 929 C 90.248 1.01912 -1.66953 0
M  V30 930 O 91.454 1.53311 -2.24072 0
M  V30 931 C 89.91 -0.711321 -3.52801 0
M  V30 932 C 89.518 -2.1712 -3.91871 0
M  V30 933 C 91.262 -0.368654 -4.22896 0
M  V30 934 C 89.169 -2.40044 -5.40493 0
M  V30 935 H 88.099 -0.15567 -0.737755 0
M  V30 936 H 90.75 -1.0239 -1.52278 0
M  V30 937 H 89.132 -0.0433766 -3.95976 0
M  V30 938 H 90.306 -2.87936 -3.59763 0
M  V30 939 H 88.621 -2.47654 -3.34749 0
M  V30 940 H 91.218 -0.517601 -5.32189 0
M  V30 941 H 91.561 0.688078 -4.10574 0
M  V30 942 H 92.094 -0.991702 -3.8524 0
M  V30 943 H 88.833 -3.44271 -5.57815 0
M  V30 944 H 88.353 -1.73785 -5.74072 0
M  V30 945 H 90.032 -2.23042 -6.0734 0
M  V30 946 N 90.1641 1.46063 -0.591896 0
M  V30 947 C 91.3921 2.06717 -0.0868936 0
M  V30 948 C 91.8071 1.43916 1.22203 0
M  V30 949 O 91.1641 0.547698 1.74088 0
M  V30 950 C 91.2151 3.6142 0.0758725 0
M  V30 951 O 90.9361 4.21874 -1.18126 0
M  V30 952 C 92.4371 4.39025 0.61416 0
M  V30 953 H 89.6571 0.668162 -0.0616518 0
M  V30 954 H 92.2011 1.8755 -0.815175 0
M  V30 955 H 90.3561 3.79983 0.754413 0
M  V30 956 H 90.7701 5.14861 -1.00092 0
M  V30 957 H 92.2441 5.4783 0.677193 0
M  V30 958 H 92.7211 4.07708 1.63312 0
M  V30 959 H 93.3271 4.2529 -0.0298142 0
M  V30 960 N 91.6422 0.330177 1.54103 0
M  V30 961 C 92.8672 -0.274893 2.0557 0
M  V30 962 C 93.2922 -1.44487 1.20437 0
M  V30 963 O 92.6502 -1.80021 0.214991 0
M  V30 964 C 92.6982 -0.68079 3.54115 0
M  V30 965 O 91.8022 -1.7824 3.71893 0
M  V30 966 H 91.1432 -0.0483849 0.662235 0
M  V30 967 H 93.6732 0.480508 1.98878 0
M  V30 968 H 93.6832 -0.961635 3.96505 0
M  V30 969 H 92.3582 0.174903 4.15532 0
M  V30 970 H 90.9352 -1.49985 3.41407 0
M  V30 971 N 93.1203 -1.57491 0.0584922 0
M  V30 972 C 94.0503 -2.14988 -0.911178 0
M  V30 973 C 95.0313 -1.07343 -1.31952 0
M  V30 974 O 96.2163 -1.35318 -1.39294 0
M  V30 975 C 93.3463 -2.70078 -2.18347 0
M  V30 976 C 92.3003 -3.82771 -1.91495 0
M  V30 977 C 91.6263 -4.24408 -3.25241 0
M  V30 978 C 92.9263 -5.07592 -1.23075 0
M  V30 979 H 94.6203 -2.96263 -0.432246 0
M  V30 980 H 92.1663 -1.42512 -0.206469 0
M  V30 981 H 94.1193 -3.08943 -2.86587 0
M  V30 982 H 92.8433 -1.86005 -2.68458 0
M  V30 983 H 91.5023 -3.44389 -1.25664 0
M  V30 984 H 91.1503 -3.37275 -3.73168 0
M  V30 985 H 90.8503 -5.00366 -3.08071 0
M  V30 986 H 92.3743 -4.65879 -3.94701 0
M  V30 987 H 93.7883 -5.43857 -1.81362 0
M  V30 988 H 92.1853 -5.88741 -1.16207 0
M  V30 989 H 93.2553 -4.84454 -0.207847 0
M  V30 990 N 94.5984 0.214957 -1.56127 0
M  V30 991 C 95.5284 1.2695 -1.95974 0
M  V30 992 C 96.5094 1.48539 -0.828868 0
M  V30 993 O 97.6944 1.60611 -1.09168 0
M  V30 994 C 94.8244 2.61794 -2.28214 0
M  V30 995 C 93.7784 2.54851 -3.43853 0
M  V30 996 C 93.1044 3.93785 -3.61715 0
M  V30 997 C 94.4044 2.09065 -4.78632 0
M  V30 998 H 96.0984 0.93846 -2.84312 0
M  V30 999 H 93.6444 0.449996 -1.36788 0
M  V30 1000 H 95.5974 3.35731 -2.54682 0
M  V30 1001 H 94.3214 2.96599 -1.36736 0
M  V30 1002 H 92.9804 1.8337 -3.17444 0
M  V30 1003 H 92.6284 4.25908 -2.67602 0
M  V30 1004 H 92.3284 3.90019 -4.39498 0
M  V30 1005 H 93.8524 4.69374 -3.90539 0
M  V30 1006 H 95.2664 2.7275 -5.04262 0
M  V30 1007 H 93.6634 2.16346 -5.59745 0
M  V30 1008 H 94.7334 1.04315 -4.73547 0
M  V30 1009 N 96.0765 1.50051 0.48192 0
M  V30 1010 C 97.4875 1.5348 1.06305 0
M  V30 1011 C 97.8385 0.331997 1.93371 0
M  V30 1012 O 96.9635 -0.556256 2.09129 0
M  V30 1013 C 97.5585 2.7813 1.93466 0
M  V30 1014 C 96.1175 2.84275 2.46707 0
M  V30 1015 C 95.2645 2.47637 1.24785 0
M  V30 1016 H 98.2155 1.56472 0.264995 0
M  V30 1017 H 98.2365 2.59372 2.78399 0
M  V30 1018 H 97.7485 3.65654 1.30072 0
M  V30 1019 H 95.8495 2.01077 3.13686 0
M  V30 1020 H 95.9625 3.8691 2.82555 0
M  V30 1021 H 94.3265 1.99835 1.57918 0
M  V30 1022 H 95.1095 3.37457 0.630694 0
M  V30 1023 N 97.5546 -0.734337 1.39446 0
M  V30 1024 C 98.7826 -1.52358 1.39981 0
M  V30 1025 C 99.1976 -1.88799 -0.0054975 0
M  V30 1026 O 98.5546 -1.54146 -0.976998 0
M  V30 1027 C 98.6056 -2.81072 2.27333 0
M  V30 1028 O 98.3266 -2.46178 3.62392 0
M  V30 1029 C 99.8276 -3.75096 2.36259 0
M  V30 1030 H 97.0476 -0.470806 0.478103 0
M  V30 1031 H 99.5916 -0.907339 1.83269 0
M  V30 1032 H 97.7466 -3.39026 1.87457 0
M  V30 1033 H 98.1606 -3.28866 4.08592 0
M  V30 1034 H 99.6346 -4.62305 3.01626 0
M  V30 1035 H 100.112 -4.16892 1.38194 0
M  V30 1036 H 100.718 -3.23061 2.76608 0
M  V30 1037 N 99.0327 -1.24633 -0.964593 0
M  V30 1038 C 100.444 -1.08045 -1.5226 0
M  V30 1039 C 100.795 0.347116 -1.93105 0
M  V30 1040 O 99.9197 1.23588 -1.77637 0
M  V30 1041 C 100.515 -1.95514 -2.76695 0
M  V30 1042 C 99.0737 -1.8314 -3.28841 0
M  V30 1043 C 98.2207 -1.90262 -2.01732 0
M  V30 1044 H 101.172 -1.38064 -0.782553 0
M  V30 1045 H 101.193 -1.48925 -3.50145 0
M  V30 1046 H 100.705 -2.99407 -2.46936 0
M  V30 1047 H 98.8057 -0.82092 -3.63444 0
M  V30 1048 H 98.9187 -2.67406 -3.97531 0
M  V30 1049 H 97.2827 -1.34027 -2.16584 0
M  V30 1050 H 98.0657 -2.9574 -1.74334 0
M  V30 1051 N 100.511 1.16574 -1.06058 0
M  V30 1052 C 101.421 2.2452 -0.680282 0
M  V30 1053 C 102.437 1.71348 0.302604 0
M  V30 1054 O 103.613 2.00822 0.152513 0
M  V30 1055 C 100.678 3.46629 -0.0700315 0
M  V30 1056 C 99.7388 4.14849 -1.10448 0
M  V30 1057 C 98.9718 5.31129 -0.523256 0
M  V30 1058 O 99.1948 5.66514 0.664709 0
M  V30 1059 O 98.1288 5.88526 -1.26179 0
M  V30 1060 H 101.955 2.59355 -1.58015 0
M  V30 1061 H 99.5398 1.24043 -0.832694 0
M  V30 1062 H 101.422 4.20543 0.268667 0
M  V30 1063 H 100.097 3.13573 0.803353 0
M  V30 1064 H 99.0038 3.42916 -1.49532 0
M  V30 1065 H 100.337 4.51954 -1.94931 0
M  V30 1066 N 101.989 0.842826 1.3317 0
M  V30 1067 C 103.266 0.362216 1.92217 0
M  V30 1068 C 103.646 -1.15289 1.76838 0
M  V30 1069 O 102.994 -1.96914 1.15919 0
M  V30 1070 C 103.204 0.813495 3.39387 0
M  V30 1071 C 104.552 0.823804 4.16532 0
M  V30 1072 O 105.576 0.757358 3.48055 0
M  V30 1073 O 104.435 0.915193 5.38782 0
M  V30 1074 H 101.529 0.103317 0.820521 0
M  V30 1075 H 104.075 0.928942 1.42017 0
M  V30 1076 H 102.847 1.85624 3.4447 0
M  V30 1077 H 102.47 0.223561 3.96971 0
M  V30 1078 N 103.467 -1.45747 0.599634 0
M  V30 1079 C 104.415 -2.322 -0.136426 0
M  V30 1080 C 105.409 -1.45497 -0.867583 0
M  V30 1081 O 106.615 -1.62027 -0.78405 0
M  V30 1082 H 102.99 -0.749368 -0.0628588 0
M  V30 1083 H 104.961 -2.92072 0.611281 0
M  V30 1084 C 103.71 -3.28974 -1.12567 0
M  V30 1085 H 103.033 -3.9568 -0.572484 0
M  V30 1086 H 104.473 -3.92212 -1.61077 0
M  V30 1087 C 102.932 -2.55561 -2.19523 0
M  V30 1088 O 103.462 -2.33111 -3.27143 0
M  V30 1089 N 101.668 -2.15832 -1.94589 0
M  V30 1090 H 101.215 -2.3429 -1.07078 0
M  V30 1091 H 101.173 -1.67034 -2.66359 0
M  V30 1092 N 104.945 -0.338344 -1.53925 0
M  V30 1093 C 105.875 0.51328 -2.27789 0
M  V30 1094 C 106.856 1.107 -1.29149 0
M  V30 1095 O 108.041 1.12937 -1.57984 0
M  V30 1096 C 105.171 1.66697 -3.04679 0
M  V30 1097 C 104.125 1.20183 -4.1078 0
M  V30 1098 C 103.451 2.44363 -4.75595 0
M  V30 1099 C 104.751 0.30605 -5.21403 0
M  V30 1100 H 106.445 -0.102883 -2.99223 0
M  V30 1101 H 103.991 -0.0509219 -1.4391 0
M  V30 1102 H 105.944 2.26915 -3.55088 0
M  V30 1103 H 104.668 2.30995 -2.30887 0
M  V30 1104 H 103.327 0.622499 -3.61276 0
M  V30 1105 H 102.975 3.07057 -3.98403 0
M  V30 1106 H 102.675 2.13925 -5.47275 0
M  V30 1107 H 104.199 3.05317 -5.28786 0
M  V30 1108 H 105.613 0.814929 -5.67478 0
M  V30 1109 H 104.01 0.0937929 -6.00027 0
M  V30 1110 H 105.08 -0.65921 -4.80398 0
M  V30 1111 N 106.423 1.57458 -0.0668435 0
M  V30 1112 C 107.333 2.15937 0.916975 0
M  V30 1113 C 108.349 1.12123 1.33058 0
M  V30 1114 O 109.525 1.44366 1.40429 0
M  V30 1115 C 106.59 2.70547 2.16807 0
M  V30 1116 C 105.651 3.89215 1.81135 0
M  V30 1117 C 104.884 4.41211 3.0028 0
M  V30 1118 O 105.107 3.92225 4.14144 0
M  V30 1119 O 104.041 5.32605 2.80384 0
M  V30 1120 H 107.867 3.00354 0.449561 0
M  V30 1121 H 105.452 1.48584 0.155949 0
M  V30 1122 H 107.334 3.0557 2.90181 0
M  V30 1123 H 106.009 1.89192 2.62656 0
M  V30 1124 H 104.916 3.59054 1.05028 0
M  V30 1125 H 106.249 4.71848 1.40073 0
M  V30 1126 N 107.901 -0.206675 1.56239 0
M  V30 1127 C 109.15 -0.926964 1.79138 0
M  V30 1128 C 109.463 -1.84901 0.638043 0
M  V30 1129 O 110.669 -2.60906 0.751033 0
M  V30 1130 C 109.125 -1.6986 3.17294 0
M  V30 1131 C 108.733 -0.821956 4.40395 0
M  V30 1132 C 110.477 -2.40922 3.4951 0
M  V30 1133 C 108.384 -1.59179 5.69575 0
M  V30 1134 H 107.314 -0.349864 0.667915 0
M  V30 1135 H 109.965 -0.180487 1.8261 0
M  V30 1136 H 108.347 -2.48853 3.08039 0
M  V30 1137 H 109.521 -0.0715019 4.60745 0
M  V30 1138 H 107.836 -0.222741 4.15804 0
M  V30 1139 H 110.433 -2.99047 4.43255 0
M  V30 1140 H 110.776 -3.14542 2.72707 0
M  V30 1141 H 111.309 -1.68905 3.60161 0
M  V30 1142 H 108.048 -0.898589 6.49312 0
M  V30 1143 H 107.568 -2.31648 5.53262 0
M  V30 1144 H 109.247 -2.14862 6.10281 0
M  V30 1145 N 109.379 -1.50304 -0.473955 0
M  V30 1146 C 110.625 -1.61389 -1.22806 0
M  V30 1147 C 110.958 -0.311955 -1.91678 0
M  V30 1148 O 110.233 0.686384 -1.81986 0
M  V30 1149 C 110.516 -2.79219 -2.27396 0
M  V30 1150 C 110.369 -4.19286 -1.62848 0
M  V30 1151 C 111.688 -2.92614 -3.28732 0
M  V30 1152 H 108.807 -0.587399 -0.445119 0
M  V30 1153 H 111.449 -1.82681 -0.522265 0
M  V30 1154 H 109.599 -2.61195 -2.87592 0
M  V30 1155 H 111.271 -4.48892 -1.06271 0
M  V30 1156 H 109.514 -4.23677 -0.931693 0
M  V30 1157 H 110.185 -4.97655 -2.38838 0
M  V30 1158 H 112.661 -3.09105 -2.78556 0
M  V30 1159 H 111.537 -3.76688 -3.99246 0
M  V30 1160 H 111.798 -2.03107 -3.92683 0
M  V30 1161 N 110.857 0.726932 -1.39834 0
M  V30 1162 C 111.787 1.85405 -1.41941 0
M  V30 1163 C 112.768 1.67751 -0.281728 0
M  V30 1164 O 113.953 1.8795 -0.488717 0
M  V30 1165 C 111.083 3.23243 -1.2701 0
M  V30 1166 C 110.037 3.55549 -2.38262 0
M  V30 1167 C 109.363 4.9241 -2.08415 0
M  V30 1168 C 110.663 3.577 -3.80589 0
M  V30 1169 H 112.357 1.83899 -2.36266 0
M  V30 1170 H 109.903 0.883349 -1.13723 0
M  V30 1171 H 111.856 4.01775 -1.27103 0
M  V30 1172 H 110.58 3.25296 -0.291564 0
M  V30 1173 H 109.239 2.79351 -2.37399 0
M  V30 1174 H 108.887 4.91052 -1.0898 0
M  V30 1175 H 108.587 5.14992 -2.82943 0
M  V30 1176 H 110.111 5.73289 -2.10171 0
M  V30 1177 H 111.525 4.26293 -3.83337 0
M  V30 1178 H 109.922 3.91804 -4.54543 0
M  V30 1179 H 110.992 2.57328 -4.10987 0
M  V30 1180 N 112.336 1.25143 0.95797 0
M  V30 1181 C 113.286 1.01924 2.0395 0
M  V30 1182 C 114.27 -0.0427175 1.60843 0
M  V30 1183 O 115.462 0.17221 1.7616 0
M  V30 1184 C 112.591 0.636373 3.3735 0
M  V30 1185 C 111.677 1.73492 3.8699 0
M  V30 1186 N 112.068 2.96945 4.0946 0
M  V30 1187 C 110.366 1.61467 4.15746 0
M  V30 1188 C 111.067 3.68228 4.50315 0
M  V30 1189 N 110.043 2.95833 4.56053 0
M  V30 1190 H 113.845 1.95653 2.19311 0
M  V30 1191 H 111.359 1.15413 1.14253 0
M  V30 1192 H 113.356 0.451233 4.14451 0
M  V30 1193 H 112.016 -0.293621 3.2337 0
M  V30 1194 H 113.027 3.33025 3.96629 0
M  V30 1195 H 109.704 0.753394 4.10646 0
M  V30 1196 H 111.094 4.74178 4.76031 0
M  V30 1197 N 113.814 -1.1601 1.06675 0
M  V30 1198 C 115.23 -1.38622 0.790948 0
M  V30 1199 C 115.43 -1.92109 -0.607965 0
M  V30 1200 O 114.486 -2.12239 -1.36787 0
M  V30 1201 C 115.799 -2.36347 1.85905 0
M  V30 1202 C 117.347 -2.50023 1.88301 0
M  V30 1203 C 117.822 -3.51033 2.94176 0
M  V30 1204 N 119.313 -3.58563 2.93235 0
M  V30 1205 C 120.048 -4.36521 3.71803 0
M  V30 1206 N 119.544 -5.17869 4.602 0
M  V30 1207 N 121.337 -4.31541 3.60178 0
M  V30 1208 H 113.488 -0.796294 1.96908 0
M  V30 1209 H 115.751 -0.412597 0.853503 0
M  V30 1210 H 115.457 -2.04147 2.86386 0
M  V30 1211 H 115.331 -3.36042 1.71334 0
M  V30 1212 H 117.718 -2.81524 0.884769 0
M  V30 1213 H 117.799 -1.5035 2.06951 0
M  V30 1214 H 117.443 -3.20268 3.94196 0
M  V30 1215 H 117.373 -4.50445 2.72776 0
M  V30 1216 H 119.864 -3.00496 2.29152 0
M  V30 1217 H 120.177 -5.74578 5.16797 0
M  V30 1218 H 118.522 -5.17199 4.64253 0
M  V30 1219 H 121.713 -3.67051 2.90502 0
M  V30 1220 H 121.886 -4.9205 4.21653 0
M  V30 1221 N 115.292 -0.849877 -1.32721 0
M  V30 1222 C 116.538 -0.460855 -1.9811 0
M  V30 1223 C 116.893 0.971716 -1.66059 0
M  V30 1224 O 116.186 1.67184 -0.935944 0
M  V30 1225 C 116.38 -0.631272 -3.51781 0
M  V30 1226 C 116.209 -2.07886 -3.98765 0
M  V30 1227 C 114.979 -2.71637 -4.26077 0
M  V30 1228 C 117.177 -3.04889 -4.14182 0
M  V30 1229 N 115.159 -4.07356 -4.59276 0
M  V30 1230 C 116.53 -4.25583 -4.50865 0
M  V30 1231 C 118.585 -3.01148 -3.96503 0
M  V30 1232 C 117.288 -5.43027 -4.71714 0
M  V30 1233 C 119.314 -4.17832 -4.18533 0
M  V30 1234 C 118.676 -5.37284 -4.55528 0
M  V30 1235 H 114.775 -0.217283 -0.751207 0
M  V30 1236 H 117.359 -1.10026 -1.60631 0
M  V30 1237 H 115.53 -0.0215966 -3.88394 0
M  V30 1238 H 117.262 -0.212614 -4.04141 0
M  V30 1239 H 114.017 -2.22705 -4.17971 0
M  V30 1240 H 114.441 -4.77351 -4.80068 0
M  V30 1241 H 119.083 -2.0992 -3.67006 0
M  V30 1242 H 116.801 -6.34791 -5.00066 0
M  V30 1243 H 120.387 -4.16368 -4.06361 0
M  V30 1244 H 119.267 -6.26071 -4.72234 0
M  V30 1245 N 116.77 1.45427 -0.607355 0
M  V30 1246 C 117.68 2.34325 0.113463 0
M  V30 1247 C 118.696 1.51226 0.860617 0
M  V30 1248 O 119.872 1.84029 0.818255 0
M  V30 1249 C 116.937 3.28839 1.09844 0
M  V30 1250 C 115.998 4.27844 0.353271 0
M  V30 1251 C 115.231 5.17842 1.29133 0
M  V30 1252 O 115.454 5.11264 2.52913 0
M  V30 1253 O 114.388 5.96713 0.788523 0
M  V30 1254 H 118.214 2.97364 -0.617094 0
M  V30 1255 H 115.799 1.44807 -0.367619 0
M  V30 1256 H 117.681 3.8708 1.66575 0
M  V30 1257 H 116.356 2.68365 1.81003 0
M  V30 1258 H 115.263 3.7322 -0.256494 0
M  V30 1259 H 116.596 4.91173 -0.317822 0
M  V30 1260 N 118.248 0.346503 1.53744 0
M  V30 1261 C 119.196 -0.52422 2.26616 0
M  V30 1262 C 120.19 -1.09948 1.28871 0
M  V30 1263 O 121.396 -1.04488 1.46568 0
M  V30 1264 H 117.771 -0.187743 0.728187 0
M  V30 1265 H 119.742 0.11239 2.98188 0
M  V30 1266 C 118.491 -1.66186 3.05414 0
M  V30 1267 H 117.814 -1.22848 3.80458 0
M  V30 1268 H 119.254 -2.24622 3.59612 0
M  V30 1269 C 117.713 -2.59302 2.1509 0
M  V30 1270 O 118.243 -3.61628 1.74895 0
M  V30 1271 N 116.449 -2.28055 1.8011 0
M  V30 1272 H 115.996 -1.44883 2.12994 0
M  V30 1273 H 115.954 -2.90615 1.19958 0
M  V30 1274 N 119.726 -1.57421 0.075193 0
M  V30 1275 C 120.674 -2.14124 -0.908508 0
M  V30 1276 C 121.668 -1.07898 -1.30592 0
M  V30 1277 O 122.874 -1.26273 -1.28277 0
M  V30 1278 H 119.249 -0.684707 -0.310935 0
M  V30 1279 H 121.22 -2.95634 -0.405374 0
M  V30 1280 C 119.969 -2.72044 -2.16535 0
M  V30 1281 H 119.292 -3.53456 -1.86839 0
M  V30 1282 H 120.732 -3.15311 -2.83469 0
M  V30 1283 C 119.191 -1.66968 -2.92615 0
M  V30 1284 O 119.721 -1.0967 -3.86439 0
M  V30 1285 N 117.927 -1.37923 -2.55784 0
M  V30 1286 H 117.474 -1.84706 -1.79559 0
M  V30 1287 H 117.432 -0.67852 -3.06991 0
M  V30 1288 N 121.204 0.198386 -1.56346 0
M  V30 1289 C 122.429 0.939682 -1.84891 0
M  V30 1290 C 122.854 1.76202 -0.658369 0
M  V30 1291 O 122.212 1.76993 0.392851 0
M  V30 1292 C 122.26 1.81428 -3.11635 0
M  V30 1293 O 121.364 2.91265 -2.91956 0
M  V30 1294 H 120.705 0.264807 -0.608912 0
M  V30 1295 H 123.235 0.204695 -2.03573 0
M  V30 1296 H 123.245 2.21958 -3.42343 0
M  V30 1297 H 121.92 1.21004 -3.97908 0
M  V30 1298 H 120.497 2.54514 -2.72538 0
M  V30 1299 N 122.682 1.50554 0.465978 0
M  V30 1300 C 123.922 1.63439 1.22747 0
M  V30 1301 C 124.286 0.329822 1.89146 0
M  V30 1302 O 125.487 0.334161 2.66715 0
M  V30 1303 C 123.758 2.78542 2.2394 0
M  V30 1304 S 125.317 3.11591 3.0896 0
M  V30 1305 H 122.135 0.576113 0.416672 0
M  V30 1306 H 124.737 1.88357 0.523641 0
M  V30 1307 H 123.441 3.71805 1.7375 0
M  V30 1308 H 122.972 2.55726 2.98944 0
M  V30 1309 H 124.987 2.55811 4.25176 0
M  V30 1310 N 124.16 -0.719506 1.40217 0
M  V30 1311 C 125.406 -1.48152 1.38488 0
M  V30 1312 C 125.739 -1.94195 -0.0141867 0
M  V30 1313 O 125.014 -1.67884 -0.982096 0
M  V30 1314 C 125.297 -2.71035 2.37091 0
M  V30 1315 C 125.15 -2.30912 3.86005 0
M  V30 1316 C 126.469 -3.73182 2.33288 0
M  V30 1317 H 123.588 -0.537395 0.504357 0
M  V30 1318 H 126.23 -0.821472 1.71324 0
M  V30 1319 H 124.38 -3.27352 2.0922 0
M  V30 1320 H 126.052 -1.80107 4.24687 0
M  V30 1321 H 124.295 -1.62958 4.02029 0
M  V30 1322 H 124.966 -3.18978 4.50508 0
M  V30 1323 H 127.442 -3.26485 2.57966 0
M  V30 1324 H 126.318 -4.56806 3.04334 0
M  V30 1325 H 126.579 -4.21202 1.34317 0
M  V30 1326 N 125.638 -1.25649 -0.95132 0
M  V30 1327 C 126.548 -1.08073 -2.08224 0
M  V30 1328 C 127.564 -0.0169666 -1.73992 0
M  V30 1329 O 128.74 -0.218593 -2.0021 0
M  V30 1330 C 125.805 -0.704922 -3.39458 0
M  V30 1331 C 124.866 -1.84699 -3.87537 0
M  V30 1332 C 124.099 -1.48902 -5.12508 0
M  V30 1333 O 124.322 -0.386156 -5.69091 0
M  V30 1334 O 123.256 -2.32033 -5.55378 0
M  V30 1335 H 127.082 -2.02924 -2.25954 0
M  V30 1336 H 124.667 -1.04618 -1.06656 0
M  V30 1337 H 126.549 -0.507609 -4.18332 0
M  V30 1338 H 125.224 0.214291 -3.2299 0
M  V30 1339 H 124.131 -2.09919 -3.09653 0
M  V30 1340 H 125.464 -2.74557 -4.08509 0
M  V30 1341 N 127.117 1.15442 -1.07289 0
M  V30 1342 C 128.064 2.20161 -0.692653 0
M  V30 1343 C 129.034 1.63073 0.31564 0
M  V30 1344 O 130.219 1.89725 0.202235 0
M  V30 1345 C 127.359 3.44967 -0.0959509 0
M  V30 1346 C 126.472 4.16256 -1.15564 0
M  V30 1347 C 125.607 5.28609 -0.524011 0
M  V30 1348 C 124.646 5.91715 -1.56653 0
M  V30 1349 N 123.783 6.9554 -0.957531 0
M  V30 1350 H 128.623 2.52037 -1.59002 0
M  V30 1351 H 126.16 1.2378 -0.794798 0
M  V30 1352 H 128.118 4.16341 0.267628 0
M  V30 1353 H 126.748 3.1361 0.764772 0
M  V30 1354 H 125.8 3.43385 -1.6368 0
M  V30 1355 H 127.112 4.59268 -1.94613 0
M  V30 1356 H 126.266 6.06604 -0.108032 0
M  V30 1357 H 125.005 4.86787 0.29825 0
M  V30 1358 H 124.01 5.12433 -1.9923 0
M  V30 1359 H 125.235 6.35614 -2.39107 0
M  V30 1360 H 123.181 6.55814 -0.156162 0
M  V30 1361 H 123.098 7.36977 -1.68526 0
M  V30 1362 H 124.366 7.77435 -0.567032 0
M  V30 1363 N 128.595 0.856903 1.32268 0
M  V30 1364 C 129.542 0.301172 2.28827 0
M  V30 1365 C 130.512 -0.593104 1.5515 0
M  V30 1366 O 131.697 -0.527537 1.83362 0
M  V30 1367 C 128.837 -0.502523 3.41422 0
M  V30 1368 C 127.95 0.417797 4.29975 0
M  V30 1369 C 127.085 -0.398749 5.29701 0
M  V30 1370 C 126.124 0.518827 6.09897 0
M  V30 1371 N 125.261 -0.260674 7.01616 0
M  V30 1372 H 130.101 1.12983 2.75751 0
M  V30 1373 H 127.638 0.568582 1.35667 0
M  V30 1374 H 129.596 -0.984141 4.05426 0
M  V30 1375 H 128.226 -1.29599 2.95642 0
M  V30 1376 H 127.278 1.01781 3.66531 0
M  V30 1377 H 128.59 1.12191 4.86019 0
M  V30 1378 H 127.744 -0.943435 5.9932 0
M  V30 1379 H 126.483 -1.13622 4.7428 0
M  V30 1380 H 125.488 1.07538 5.39181 0
M  V30 1381 H 126.713 1.25495 6.67404 0
M  V30 1382 H 124.659 -0.981198 6.4862 0
M  V30 1383 H 124.576 0.384364 7.55022 0
M  V30 1384 H 125.844 -0.787014 7.75517 0
M  V30 1385 N 130.073 -1.45103 0.615059 0
M  V30 1386 C 131.319 -2.02483 0.113347 0
M  V30 1387 C 131.652 -1.48146 -1.25564 0
M  V30 1388 O 130.927 -0.659104 -1.82992 0
M  V30 1389 C 131.21 -3.60005 0.0825278 0
M  V30 1390 C 131.063 -4.2466 1.48271 0
M  V30 1391 C 132.382 -4.35972 -0.601401 0
M  V30 1392 H 129.501 -0.735764 0.0426632 0
M  V30 1393 H 132.143 -1.72868 0.788461 0
M  V30 1394 H 130.293 -3.85367 -0.492378 0
M  V30 1395 H 131.965 -4.10458 2.10527 0
M  V30 1396 H 130.208 -3.82772 2.04127 0
M  V30 1397 H 130.879 -5.336 1.41332 0
M  V30 1398 H 133.355 -4.15947 -0.112666 0
M  V30 1399 H 132.231 -5.45697 -0.592097 0
M  V30 1400 H 132.492 -4.09391 -1.66887 0
M  V30 1401 N 131.551 -0.354651 -1.53558 0
M  V30 1402 C 132.481 0.489091 -2.2832 0
M  V30 1403 C 133.462 1.09324 -1.30316 0
M  V30 1404 O 134.647 1.11255 -1.59173 0
M  V30 1405 C 131.777 1.63456 -3.0643 0
M  V30 1406 C 130.731 1.1582 -4.12031 0
M  V30 1407 C 130.057 2.39305 -4.7816 0
M  V30 1408 C 131.357 0.250731 -5.21698 0
M  V30 1409 H 133.051 -0.134614 -2.99097 0
M  V30 1410 H 130.597 -0.0661826 -1.43848 0
M  V30 1411 H 132.55 2.23136 -3.57475 0
M  V30 1412 H 131.274 2.28533 -2.33325 0
M  V30 1413 H 129.933 0.584146 -3.61916 0
M  V30 1414 H 129.581 3.02814 -4.01637 0
M  V30 1415 H 129.281 2.08109 -5.49513 0
M  V30 1416 H 130.805 2.99691 -5.31994 0
M  V30 1417 H 132.219 0.754695 -5.68311 0
M  V30 1418 H 130.616 0.0301468 -6.00092 0
M  V30 1419 H 131.686 -0.710125 -4.79672 0
M  V30 1420 N 133.029 1.57378 -0.0835403 0
M  V30 1421 C 134.277 1.93547 0.581718 0
M  V30 1422 C 134.598 0.96524 1.69435 0
M  V30 1423 O 133.868 0.0153369 1.95894 0
M  V30 1424 H 132.448 0.714521 0.217874 0
M  V30 1425 H 135.11 1.94366 -0.144158 0
M  V30 1426 H 134.206 2.95665 0.999423 0
M  V30 1427 N 134.507 -0.190092 1.56449 0
M  V30 1428 C 135.417 -1.25591 1.98152 0
M  V30 1429 C 136.433 -1.49519 0.889944 0
M  V30 1430 O 137.609 -1.62036 1.19609 0
M  V30 1431 C 134.674 -2.57916 2.3169 0
M  V30 1432 C 133.735 -2.42015 3.5458 0
M  V30 1433 C 132.968 -3.6803 3.8651 0
M  V30 1434 O 133.191 -4.72413 3.1966 0
M  V30 1435 O 132.125 -3.6326 4.79923 0
M  V30 1436 H 135.951 -0.931988 2.89046 0
M  V30 1437 H 133.536 -0.395488 1.4407 0
M  V30 1438 H 135.418 -3.36008 2.54316 0
M  V30 1439 H 134.093 -2.89925 1.43963 0
M  V30 1440 H 133 -1.62017 3.37196 0
M  V30 1441 H 134.333 -2.14937 4.4279 0
M  V30 1442 N 135.985 -1.50799 -0.457987 0
M  V30 1443 C 136.932 -1.70617 -1.5543 0
M  V30 1444 C 137.902 -0.547562 -1.56815 0
M  V30 1445 O 139.087 -0.779647 -1.74144 0
M  V30 1446 C 136.227 -1.81831 -2.93311 0
M  V30 1447 C 135.34 -3.09278 -3.01615 0
M  V30 1448 C 134.475 -3.11209 -4.30491 0
M  V30 1449 C 133.514 -4.33055 -4.32585 0
M  V30 1450 N 132.651 -4.32652 -5.52952 0
M  V30 1451 H 137.491 -2.64207 -1.37836 0
M  V30 1452 H 135.028 -1.30959 -0.669937 0
M  V30 1453 H 136.986 -1.86314 -3.73287 0
M  V30 1454 H 135.616 -0.916685 -3.0951 0
M  V30 1455 H 134.668 -3.14203 -2.1443 0
M  V30 1456 H 135.98 -3.99233 -2.99022 0
M  V30 1457 H 135.134 -3.14494 -5.18824 0
M  V30 1458 H 133.873 -2.19106 -4.35711 0
M  V30 1459 H 132.878 -4.29969 -3.42647 0
M  V30 1460 H 134.103 -5.264 -4.29046 0
M  V30 1461 H 132.049 -3.43409 -5.58933 0
M  V30 1462 H 131.966 -5.16392 -5.52155 0
M  V30 1463 H 133.234 -4.40101 -6.43375 0
M  V30 1464 N 137.463 0.71206 -1.40597 0
M  V30 1465 C 138.691 1.50111 -1.42388 0
M  V30 1466 C 139.106 1.88784 -0.0245395 0
M  V30 1467 O 138.463 1.55681 0.952351 0
M  V30 1468 C 138.514 2.7742 -2.31776 0
M  V30 1469 O 138.235 2.40382 -3.66262 0
M  V30 1470 C 139.736 3.7129 -2.42196 0
M  V30 1471 H 136.956 0.46314 -0.485533 0
M  V30 1472 H 139.5 0.878068 -1.8469 0
M  V30 1473 H 137.655 3.36001 -1.92827 0
M  V30 1474 H 138.069 3.22324 -4.13772 0
M  V30 1475 H 139.543 4.57448 -3.08943 0
M  V30 1476 H 140.02 4.14641 -1.44809 0
M  V30 1477 H 140.626 3.18619 -2.81712 0
M  V30 1478 N 138.941 1.26152 0.944643 0
M  V30 1479 C 139.851 1.09176 2.07648 0
M  V30 1480 C 140.867 0.0261935 1.7398 0
M  V30 1481 O 142.043 0.229208 2.00091 0
M  V30 1482 C 139.108 0.722915 3.39079 0
M  V30 1483 C 138.169 1.86752 3.86552 0
M  V30 1484 C 137.402 1.51617 5.11711 0
M  V30 1485 O 137.625 0.416331 5.68879 0
M  V30 1486 O 136.559 2.34975 5.54139 0
M  V30 1487 H 140.385 2.0412 2.24875 0
M  V30 1488 H 137.97 1.05182 1.061 0
M  V30 1489 H 139.852 0.529787 4.18056 0
M  V30 1490 H 138.527 -0.197159 3.23099 0
M  V30 1491 H 137.434 2.11558 3.08535 0
M  V30 1492 H 138.767 2.76719 4.07047 0
M  V30 1493 N 140.419 -1.14872 1.07899 0
M  V30 1494 C 141.367 -2.21857 0.698727 0
M  V30 1495 C 142.361 -1.66845 -0.293086 0
M  V30 1496 O 143.567 -1.79321 -0.156204 0
M  V30 1497 H 139.942 -0.722691 0.207899 0
M  V30 1498 H 141.913 -2.51205 1.61054 0
M  V30 1499 C 140.662 -3.47498 0.11858 0
M  V30 1500 H 139.985 -3.90154 0.872914 0
M  V30 1501 H 141.425 -4.23858 -0.109759 0
M  V30 1502 C 139.884 -3.16947 -1.1422 0
M  V30 1503 O 140.414 -3.3426 -2.22785 0
M  V30 1504 N 138.62 -2.70946 -1.05055 0
M  V30 1505 H 138.167 -2.57058 -0.167038 0
M  V30 1506 H 138.125 -2.50879 -1.89491 0
M  V30 1507 N 141.898 -0.863906 -1.31812 0
M  V30 1508 C 143.309 -0.52522 -1.7916 0
M  V30 1509 C 143.66 0.957518 -1.71248 0
M  V30 1510 O 142.785 1.74734 -1.27659 0
M  V30 1511 C 143.38 -0.9466 -3.25307 0
M  V30 1512 C 141.939 -0.659668 -3.70574 0
M  V30 1513 C 141.086 -1.14126 -2.52726 0
M  V30 1514 H 144.037 -1.05022 -1.1898 0
M  V30 1515 H 144.058 -0.266766 -3.79564 0
M  V30 1516 H 143.57 -2.02579 -3.31034 0
M  V30 1517 H 141.671 0.408416 -3.70355 0
M  V30 1518 H 141.784 -1.23245 -4.62977 0
M  V30 1519 H 140.148 -0.561216 -2.4844 0
M  V30 1520 H 140.931 -2.22775 -2.61201 0
M  V30 1521 N 143.376 1.44774 -0.622745 0
M  V30 1522 C 144.323 2.30635 0.0871679 0
M  V30 1523 C 145.293 1.42994 0.845097 0
M  V30 1524 O 146.478 1.71907 0.827812 0
M  V30 1525 C 143.618 3.28144 1.06844 0
M  V30 1526 C 142.731 4.30888 0.309809 0
M  V30 1527 C 141.866 5.15494 1.28215 0
M  V30 1528 C 140.905 6.09953 0.512198 0
M  V30 1529 N 140.042 6.87287 1.43458 0
M  V30 1530 H 144.882 2.90803 -0.650974 0
M  V30 1531 H 142.419 1.43286 -0.33281 0
M  V30 1532 H 144.377 3.83157 1.65066 0
M  V30 1533 H 143.007 2.69695 1.77382 0
M  V30 1534 H 142.059 3.78414 -0.388181 0
M  V30 1535 H 143.371 4.97955 -0.290254 0
M  V30 1536 H 142.525 5.74983 1.93596 0
M  V30 1537 H 141.264 4.48481 1.91614 0
M  V30 1538 H 140.269 5.49581 -0.155151 0
M  V30 1539 H 141.494 6.78999 -0.116958 0
M  V30 1540 H 139.44 6.2295 2.05594 0
M  V30 1541 H 139.357 7.50763 0.888335 0
M  V30 1542 H 140.625 7.51306 2.07749 0
M  V30 1543 N 144.854 0.36279 1.53368 0
M  V30 1544 C 145.801 -0.485008 2.25646 0
M  V30 1545 C 146.771 -1.07982 1.2621 0
M  V30 1546 O 147.956 -1.11284 1.54986 0
M  V30 1547 C 145.096 -1.62023 3.04701 0
M  V30 1548 C 144.209 -1.05086 4.19024 0
M  V30 1549 C 143.344 -2.15496 4.85525 0
M  V30 1550 C 142.383 -1.5601 5.91884 0
M  V30 1551 N 141.52 -2.60241 6.52088 0
M  V30 1552 H 146.36 0.137864 2.97681 0
M  V30 1553 H 143.897 0.0798061 1.46883 0
M  V30 1554 H 145.855 -2.28887 3.48807 0
M  V30 1555 H 144.485 -2.2138 2.34927 0
M  V30 1556 H 143.537 -0.27259 3.79422 0
M  V30 1557 H 144.849 -0.575926 4.95464 0
M  V30 1558 H 144.003 -2.90186 5.32801 0
M  V30 1559 H 142.742 -2.66341 4.08551 0
M  V30 1560 H 141.747 -0.798338 5.43973 0
M  V30 1561 H 142.972 -1.05994 6.70777 0
M  V30 1562 H 140.918 -3.10304 5.77968 0
M  V30 1563 H 140.835 -2.17426 7.24059 0
M  V30 1564 H 142.103 -3.34641 7.04014 0
M  V30 1565 N 146.332 -1.57332 0.0918853 0
M  V30 1566 C 147.579 -1.94236 -0.572577 0
M  V30 1567 C 147.907 -0.973398 -1.6839 0
M  V30 1568 O 147.162 0.00756912 -1.95699 0
M  V30 1569 C 147.461 -3.37689 -1.17051 0
M  V30 1570 C 147.127 -4.50527 -0.183304 0
M  V30 1571 C 145.789 -4.81119 0.0882276 0
M  V30 1572 C 148.141 -5.18883 0.49095 0
M  V30 1573 C 145.469 -5.77395 1.04076 0
M  V30 1574 C 147.821 -6.1618 1.43193 0
M  V30 1575 C 146.485 -6.45179 1.71173 0
M  V30 1576 H 145.755 -0.710762 -0.209521 0
M  V30 1577 H 148.402 -1.9077 0.167036 0
M  V30 1578 H 146.707 -3.37718 -1.9863 0
M  V30 1579 H 148.404 -3.63543 -1.69227 0
M  V30 1580 H 144.994 -4.26681 -0.405124 0
M  V30 1581 H 149.178 -4.95427 0.294312 0
M  V30 1582 H 144.434 -5.98179 1.26457 0
M  V30 1583 H 148.608 -6.68243 1.96023 0
M  V30 1584 H 146.235 -7.1959 2.4514 0
M  V30 1585 N 147.81 0.181792 -1.56548 0
M  V30 1586 C 148.757 1.22521 -1.95595 0
M  V30 1587 C 149.727 1.4454 -0.818373 0
M  V30 1588 O 150.912 1.57454 -1.07763 0
M  V30 1589 C 148.052 2.56193 -2.31212 0
M  V30 1590 C 147.165 2.41641 -3.58097 0
M  V30 1591 C 146.3 3.68108 -3.82975 0
M  V30 1592 C 145.339 3.48445 -5.03242 0
M  V30 1593 N 144.476 4.66956 -5.24306 0
M  V30 1594 H 149.316 0.885226 -2.84548 0
M  V30 1595 H 146.853 0.425718 -1.40805 0
M  V30 1596 H 148.811 3.34088 -2.49882 0
M  V30 1597 H 147.441 2.88208 -1.45382 0
M  V30 1598 H 146.493 1.54976 -3.474 0
M  V30 1599 H 147.805 2.23052 -4.46149 0
M  V30 1600 H 146.959 4.54441 -4.01956 0
M  V30 1601 H 145.698 3.89666 -2.93278 0
M  V30 1602 H 144.703 2.60499 -4.8417 0
M  V30 1603 H 145.928 3.2832 -5.9446 0
M  V30 1604 H 143.874 4.88752 -4.37559 0
M  V30 1605 H 143.791 4.51242 -6.06561 0
M  V30 1606 H 145.059 5.54602 -5.47756 0
M  V30 1607 N 149.288 1.51039 0.449983 0
M  V30 1608 C 150.537 1.62317 1.19733 0
M  V30 1609 C 150.85 0.339101 1.92638 0
M  V30 1610 O 152.056 0.331069 2.69474 0
M  V30 1611 C 150.512 2.86608 2.17678 0
M  V30 1612 C 150.12 4.21972 1.50479 0
M  V30 1613 C 151.864 3.07239 2.92924 0
M  V30 1614 C 149.771 5.37426 2.46834 0
M  V30 1615 H 148.701 0.604532 0.450619 0
M  V30 1616 H 151.352 1.77494 0.465625 0
M  V30 1617 H 149.734 2.65037 2.94231 0
M  V30 1618 H 150.908 4.53878 0.795716 0
M  V30 1619 H 149.223 4.07117 0.874344 0
M  V30 1620 H 151.82 3.90668 3.65079 0
M  V30 1621 H 152.163 2.19807 3.5354 0
M  V30 1622 H 152.696 3.29091 2.23481 0
M  V30 1623 H 149.435 6.27079 1.90926 0
M  V30 1624 H 148.955 5.09912 3.15832 0
M  V30 1625 H 150.634 5.68862 3.08228 0
M  V30 1626 N 150.766 -0.704594 1.40972 0
M  V30 1627 C 151.714 -1.83994 1.42299 0
M  V30 1628 C 152.708 -1.66684 0.302111 0
M  V30 1629 O 153.914 -1.73655 0.473697 0
M  V30 1630 H 150.289 -0.606171 0.44504 0
M  V30 1631 H 152.26 -1.79992 2.38003 0
M  V30 1632 C 151.009 -3.21946 1.31323 0
M  V30 1633 H 150.332 -3.35878 2.16855 0
M  V30 1634 H 151.772 -4.01491 1.36311 0
M  V30 1635 C 150.231 -3.36891 0.0245977 0
M  V30 1636 O 150.761 -3.90687 -0.934153 0
M  V30 1637 N 148.967 -2.90559 -0.0485243 0
M  V30 1638 H 148.514 -2.46968 0.732419 0
M  V30 1639 H 148.472 -3.00937 -0.910171 0
M  V30 1640 N 152.244 -1.26651 -0.937939 0
M  V30 1641 C 153.474 -1.15006 -1.71631 0
M  V30 1642 C 153.882 0.297026 -1.86854 0
M  V30 1643 O 153.225 1.21493 -1.37786 0
M  V30 1644 C 153.287 -1.74984 -3.14039 0
M  V30 1645 C 152.951 -3.24103 -3.2219 0
M  V30 1646 C 153.948 -4.20877 -3.05219 0
M  V30 1647 C 151.633 -3.64625 -3.45476 0
M  V30 1648 C 153.627 -5.56151 -3.11408 0
M  V30 1649 C 151.314 -5.00032 -3.513 0
M  V30 1650 C 152.312 -5.95604 -3.34282 0
M  V30 1651 O 152 -7.28545 -3.3982 0
M  V30 1652 H 151.732 -0.401183 -0.544085 0
M  V30 1653 H 154.286 -1.67832 -1.18413 0
M  V30 1654 H 152.516 -1.16624 -3.68695 0
M  V30 1655 H 154.205 -1.58199 -3.73802 0
M  V30 1656 H 154.971 -3.90908 -2.87081 0
M  V30 1657 H 150.85 -2.90718 -3.57777 0
M  V30 1658 H 154.394 -6.30727 -2.98043 0
M  V30 1659 H 150.291 -5.29659 -3.68959 0
M  V30 1660 H 151.059 -7.3686 -3.56343 0
M  V30 1661 N 153.722 1.14298 -1.08507 0
M  V30 1662 C 154.95 1.89219 -0.836876 0
M  V30 1663 C 155.365 1.78638 0.611054 0
M  V30 1664 O 154.722 1.14643 1.41998 0
M  V30 1665 C 154.773 3.39158 -1.25116 0
M  V30 1666 O 154.494 3.49449 -2.64229 0
M  V30 1667 C 155.995 4.31073 -1.03398 0
M  V30 1668 H 153.215 0.599328 -0.301739 0
M  V30 1669 H 155.759 1.44746 -1.44461 0
M  V30 1670 H 153.914 3.81251 -0.687514 0
M  V30 1671 H 154.328 4.42589 -2.81452 0
M  V30 1672 H 155.802 5.34646 -1.37323 0
M  V30 1673 H 156.279 4.3919 0.0289259 0
M  V30 1674 H 156.885 3.94738 -1.58311 0
M  V30 1675 N 155.201 0.870884 1.31352 0
M  V30 1676 C 156.447 0.482987 1.96965 0
M  V30 1677 C 156.78 -0.962462 1.68672 0
M  V30 1678 O 156.055 -1.6779 0.98371 0
M  V30 1679 C 156.338 0.741752 3.52378 0
M  V30 1680 C 156.191 2.2368 3.9024 0
M  V30 1681 C 157.51 0.208838 4.39604 0
M  V30 1682 H 154.629 0.176955 0.715441 0
M  V30 1683 H 157.271 1.09229 1.55464 0
M  V30 1684 H 155.421 0.223149 3.87859 0
M  V30 1685 H 157.093 2.82273 3.64856 0
M  V30 1686 H 155.336 2.70901 3.38814 0
M  V30 1687 H 156.007 2.3685 4.98604 0
M  V30 1688 H 158.483 0.652529 4.10952 0
M  V30 1689 H 157.359 0.419336 5.47296 0
M  V30 1690 H 157.62 -0.889275 4.33064 0
M  V30 1691 N 156.679 -1.44442 0.630414 0
M  V30 1692 C 157.642 -2.29107 -0.0652523 0
M  V30 1693 C 158.642 -1.41002 -0.772995 0
M  V30 1694 O 159.832 -1.62881 -0.617692 0
M  V30 1695 C 156.964 -3.22564 -1.10296 0
M  V30 1696 H 158.157 -2.92103 0.679401 0
M  V30 1697 H 155.71 -1.51343 0.390517 0
M  V30 1698 H 156.445 -2.64416 -1.87762 0
M  V30 1699 H 156.23 -3.87491 -0.59941 0
M  V30 1700 H 157.72 -3.86167 -1.5895 0
M  V30 1701 N 158.157 -0.370918 -1.53173 0
M  V30 1702 C 159.105 0.488101 -2.27421 0
M  V30 1703 C 160.099 1.07884 -1.30604 0
M  V30 1704 O 161.305 1.02143 -1.48212 0
M  V30 1705 H 157.68 0.176134 -0.731082 0
M  V30 1706 H 159.651 -0.159815 -2.97972 0
M  V30 1707 C 158.4 1.61306 -3.08019 0
M  V30 1708 H 157.723 1.1678 -3.82364 0
M  V30 1709 H 159.163 2.18872 -3.63141 0
M  V30 1710 C 157.622 2.55848 -2.19188 0
M  V30 1711 O 158.152 3.58799 -1.80626 0
M  V30 1712 N 156.358 2.2516 -1.83715 0
M  V30 1713 H 155.905 1.41476 -2.15273 0
M  V30 1714 H 155.863 2.8867 -1.24567 0
M  V30 1715 N 159.635 1.57281 -0.100228 0
M  V30 1716 C 160.545 2.17833 0.870965 0
M  V30 1717 C 161.561 1.14921 1.30649 0
M  V30 1718 O 162.737 1.47313 1.37335 0
M  V30 1719 C 159.802 2.75085 2.1102 0
M  V30 1720 C 158.863 3.9297 1.72838 0
M  V30 1721 C 158.096 4.47482 2.90854 0
M  V30 1722 O 158.319 4.00922 4.05731 0
M  V30 1723 O 157.253 5.38433 2.69023 0
M  V30 1724 H 161.079 3.0124 0.38575 0
M  V30 1725 H 158.664 1.48881 0.124397 0
M  V30 1726 H 160.546 3.11656 2.83634 0
M  V30 1727 H 159.221 1.94721 2.58584 0
M  V30 1728 H 158.128 3.61201 0.973883 0
M  V30 1729 H 159.461 4.74713 1.30033 0
M  V30 1730 N 161.113 -0.173488 1.56642 0
M  V30 1731 C 162.076 -1.19859 1.95362 0
M  V30 1732 C 163.076 -1.37296 0.83704 0
M  V30 1733 O 164.266 -1.34739 1.10413 0
M  V30 1734 C 161.398 -2.56405 2.24654 0
M  V30 1735 H 162.591 -0.867062 2.87092 0
M  V30 1736 H 160.144 -0.415853 1.50666 0
M  V30 1737 H 160.879 -2.94576 1.35631 0
M  V30 1738 H 160.664 -2.45115 3.06041 0
M  V30 1739 H 162.154 -3.30287 2.5554 0
M  V30 1740 N 162.591 -1.51276 -0.441967 0
M  V30 1741 C 163.819 -1.67516 -1.21434 0
M  V30 1742 C 164.234 -0.37055 -1.85128 0
M  V30 1743 O 163.591 0.650498 -1.70513 0
M  V30 1744 C 163.642 -2.78748 -2.30177 0
M  V30 1745 O 163.363 -4.04154 -1.69089 0
M  V30 1746 C 164.864 -3.06217 -3.20541 0
M  V30 1747 H 162.084 -0.562276 -0.366178 0
M  V30 1748 H 164.628 -1.97666 -0.524244 0
M  V30 1749 H 162.783 -2.5121 -2.94911 0
M  V30 1750 H 163.197 -4.65894 -2.40922 0
M  V30 1751 H 164.671 -3.8764 -3.92987 0
M  V30 1752 H 165.148 -2.18439 -3.81026 0
M  V30 1753 H 165.754 -3.35397 -2.61513 0
M  V30 1754 N 164.069 0.697108 -1.41344 0
M  V30 1755 C 164.999 1.82353 -1.45841 0
M  V30 1756 C 165.98 1.67115 -0.317247 0
M  V30 1757 O 167.165 1.86871 -0.528474 0
M  V30 1758 C 164.295 3.20476 -1.33838 0
M  V30 1759 C 163.249 3.50415 -2.4575 0
M  V30 1760 C 162.575 4.87878 -2.18813 0
M  V30 1761 C 163.875 3.49546 -3.88091 0
M  V30 1762 H 165.569 1.78846 -2.40113 0
M  V30 1763 H 163.115 0.859028 -1.15571 0
M  V30 1764 H 165.068 3.98988 -1.35596 0
M  V30 1765 H 163.792 3.24604 -0.360498 0
M  V30 1766 H 162.451 2.74253 -2.43271 0
M  V30 1767 H 162.099 4.8863 -1.19371 0
M  V30 1768 H 161.799 5.08875 -2.93803 0
M  V30 1769 H 163.323 5.68702 -2.22284 0
M  V30 1770 H 164.737 4.18066 -3.92293 0
M  V30 1771 H 163.134 3.82075 -4.62751 0
M  V30 1772 H 164.204 2.48552 -4.16353 0
M  V30 1773 N 165.547 1.27147 0.931209 0
M  V30 1774 C 166.477 1.12081 2.04842 0
M  V30 1775 C 167.458 0.0232364 1.70084 0
M  V30 1776 O 168.643 0.197085 1.93197 0
M  V30 1777 C 165.773 0.76354 3.38803 0
M  V30 1778 C 164.727 1.81396 3.87659 0
M  V30 1779 C 164.053 1.31075 5.18385 0
M  V30 1780 C 165.353 3.21739 4.11438 0
M  V30 1781 H 167.047 2.05537 2.17703 0
M  V30 1782 H 164.593 0.989603 1.04608 0
M  V30 1783 H 166.546 0.644982 4.16435 0
M  V30 1784 H 165.27 -0.206727 3.25945 0
M  V30 1785 H 163.929 1.92136 3.12217 0
M  V30 1786 H 163.577 0.330037 5.01916 0
M  V30 1787 H 163.277 2.013 5.52044 0
M  V30 1788 H 164.801 1.20506 5.98591 0
M  V30 1789 H 166.215 3.14019 4.79651 0
M  V30 1790 H 164.612 3.89644 4.56397 0
M  V30 1791 H 165.682 3.67054 3.16859 0
M  V30 1792 N 167.025 -1.13721 1.09112 0
M  V30 1793 C 168.302 -1.81155 0.737706 0
M  V30 1794 C 168.682 -1.96253 -0.777683 0
M  V30 1795 O 168.03 -1.52807 -1.69889 0
M  V30 1796 C 168.24 -3.16392 1.47299 0
M  V30 1797 C 169.588 -3.91787 1.63671 0
M  V30 1798 O 170.612 -3.26005 1.43524 0
M  V30 1799 O 169.471 -5.0977 1.96969 0
M  V30 1800 H 166.565 -0.783518 0.26463 0
M  V30 1801 H 169.111 -1.20676 1.19312 0
M  V30 1802 H 167.883 -3.0061 2.50498 0
M  V30 1803 H 167.506 -3.8457 1.00953 0
M  V30 1804 N 168.503 -0.877838 -1.30888 0
M  V30 1805 C 169.731 -0.507414 -2.00581 0
M  V30 1806 C 170.146 0.902216 -1.65848 0
M  V30 1807 O 169.503 1.59225 -0.891831 0
M  V30 1808 C 169.554 -0.664162 -3.55347 0
M  V30 1809 O 169.275 -2.01829 -3.8884 0
M  V30 1810 C 170.776 -0.295787 -4.42312 0
M  V30 1811 H 167.996 -0.196866 -0.641471 0
M  V30 1812 H 170.54 -1.18117 -1.66939 0
M  V30 1813 H 168.695 -0.0378619 -3.87381 0
M  V30 1814 H 169.109 -2.03174 -4.8355 0
M  V30 1815 H 170.583 -0.456388 -5.5011 0
M  V30 1816 H 171.06 0.765663 -4.32475 0
M  V30 1817 H 171.666 -0.898113 -4.15709 0
M  V30 1818 N 169.982 1.44106 -0.638065 0
M  V30 1819 C 171.259 1.95453 -0.0759321 0
M  V30 1820 C 171.639 1.57984 1.40015 0
M  V30 1821 O 170.987 0.857361 2.11806 0
M  V30 1822 C 171.197 3.47655 -0.306132 0
M  V30 1823 C 172.545 4.24114 -0.203008 0
M  V30 1824 O 173.569 3.55405 -0.237871 0
M  V30 1825 O 172.428 5.46381 -0.113827 0
M  V30 1826 H 169.522 0.826797 0.0183332 0
M  V30 1827 H 172.068 1.54122 -0.710251 0
M  V30 1828 H 170.84 3.68 -1.3301 0
M  V30 1829 H 170.463 3.95949 0.361991 0
M  V30 1830 N 171.46 0.379036 1.52974 0
M  V30 1831 C 172.69 -0.20649 2.05566 0
M  V30 1832 C 173.098 -1.41906 1.25137 0
M  V30 1833 O 172.441 -1.81421 0.288464 0
M  V30 1834 C 172.503 -0.651086 3.53555 0
M  V30 1835 C 172.167 0.446626 4.54812 0
M  V30 1836 C 173.164 1.30079 5.03364 0
M  V30 1837 C 170.849 0.610719 4.98573 0
M  V30 1838 C 172.843 2.30426 5.94292 0
M  V30 1839 C 170.53 1.61754 5.89304 0
M  V30 1840 C 171.528 2.46274 6.37054 0
M  V30 1841 O 171.216 3.45237 7.25994 0
M  V30 1842 H 170.948 -0.0372381 0.674974 0
M  V30 1843 H 173.502 0.539718 1.98182 0
M  V30 1844 H 171.732 -1.44911 3.58522 0
M  V30 1845 H 173.421 -1.16112 3.88938 0
M  V30 1846 H 174.187 1.18527 4.70294 0
M  V30 1847 H 170.066 -0.0374044 4.60985 0
M  V30 1848 H 173.61 2.96432 6.31485 0
M  V30 1849 H 169.507 1.73348 6.21788 0
M  V30 1850 H 170.275 3.41124 7.44027 0
M  V30 1851 N 172.938 -1.57226 0.108567 0
M  V30 1852 C 174.215 -1.86333 -0.594939 0
M  V30 1853 C 174.595 -1.00788 -1.85486 0
M  V30 1854 O 173.943 -0.0839293 -2.28346 0
M  V30 1855 C 174.153 -3.37265 -0.897405 0
M  V30 1856 C 175.501 -4.05629 -1.25501 0
M  V30 1857 O 176.525 -3.42224 -0.987998 0
M  V30 1858 O 175.384 -5.17531 -1.75567 0
M  V30 1859 H 172.478 -0.771018 -0.2991 0
M  V30 1860 H 175.024 -1.69102 0.142283 0
M  V30 1861 H 173.796 -3.913 -0.00413806 0
M  V30 1862 H 173.419 -3.59889 -1.69014 0
M  V30 1863 N 174.416 0.165178 -1.56732 0
M  V30 1864 C 175.364 1.22369 -1.97809 0
M  V30 1865 C 176.358 1.45488 -0.867741 0
M  V30 1866 O 177.564 1.45995 -1.05288 0
M  V30 1867 H 173.939 0.411486 -0.629431 0
M  V30 1868 H 175.91 0.850425 -2.86025 0
M  V30 1869 C 174.659 2.55403 -2.35934 0
M  V30 1870 H 173.982 2.38438 -3.20916 0
M  V30 1871 H 175.422 3.2814 -2.68514 0
M  V30 1872 C 173.881 3.14611 -1.20506 0
M  V30 1873 O 174.411 3.98626 -0.496016 0
M  V30 1874 N 172.617 2.7379 -0.97403 0
M  V30 1875 H 172.164 2.0557 -1.55238 0
M  V30 1876 H 172.122 3.1374 -0.203573 0
M  V30 1877 N 175.894 1.51508 0.433938 0
M  V30 1878 C 177.141 1.64345 1.18309 0
M  V30 1879 C 177.469 0.361315 1.91115 0
M  V30 1880 O 176.724 -0.654753 1.84422 0
M  V30 1881 C 177.023 2.79928 2.22205 0
M  V30 1882 C 176.689 4.19078 1.66387 0
M  V30 1883 C 175.351 4.56932 1.50887 0
M  V30 1884 C 177.703 5.05894 1.25381 0
M  V30 1885 C 175.031 5.79305 0.928608 0
M  V30 1886 C 177.383 6.2885 0.687823 0
M  V30 1887 C 176.047 6.65473 0.519755 0
M  V30 1888 H 175.317 0.601381 0.432923 0
M  V30 1889 H 177.964 1.85549 0.473676 0
M  V30 1890 H 176.269 2.52959 2.99197 0
M  V30 1891 H 177.966 2.87059 2.79997 0
M  V30 1892 H 174.556 3.89234 1.79428 0
M  V30 1893 H 178.74 4.77253 1.36175 0
M  V30 1894 H 173.996 6.06324 0.786186 0
M  V30 1895 H 178.17 6.95461 0.361581 0
M  V30 1896 H 175.797 7.6017 0.0679979 0
M  V30 1897 N 177.372 -0.689602 1.41712 0
M  V30 1898 C 178.302 -1.81577 1.46806 0
M  V30 1899 C 179.283 -1.66945 0.326105 0
M  V30 1900 O 180.468 -1.86588 0.538377 0
M  V30 1901 C 177.598 -3.19762 1.35535 0
M  V30 1902 C 176.552 -3.49107 2.47605 0
M  V30 1903 C 175.878 -4.86711 2.21397 0
M  V30 1904 C 177.178 -3.47483 3.89939 0
M  V30 1905 H 178.872 -1.7757 2.41058 0
M  V30 1906 H 176.418 -0.852887 1.16025 0
M  V30 1907 H 178.371 -3.98263 1.3771 0
M  V30 1908 H 177.095 -3.24409 0.377708 0
M  V30 1909 H 175.754 -2.72959 2.44722 0
M  V30 1910 H 175.402 -4.8799 1.21961 0
M  V30 1911 H 175.102 -5.0731 2.96497 0
M  V30 1912 H 176.626 -5.67515 2.25297 0
M  V30 1913 H 178.04 -4.1598 3.94505 0
M  V30 1914 H 176.437 -3.79615 4.64771 0
M  V30 1915 H 177.507 -2.46341 4.17665 0
M  V30 1916 N 178.85 -1.27639 -0.924453 0
M  V30 1917 C 180.097 -1.14167 -1.67249 0
M  V30 1918 C 180.425 0.311863 -1.91984 0
M  V30 1919 O 179.68 1.24425 -1.51053 0
M  V30 1920 C 179.979 -1.87407 -3.04325 0
M  V30 1921 C 179.645 -3.37249 -2.99289 0
M  V30 1922 C 178.307 -3.7812 -2.97622 0
M  V30 1923 C 180.659 -4.32845 -2.90336 0
M  V30 1924 C 177.987 -5.12944 -2.8479 0
M  V30 1925 C 180.339 -5.6773 -2.79045 0
M  V30 1926 C 179.003 -6.07889 -2.7573 0
M  V30 1927 H 178.273 -0.417766 -0.612007 0
M  V30 1928 H 180.92 -1.58286 -1.07786 0
M  V30 1929 H 179.225 -1.35805 -3.67511 0
M  V30 1930 H 180.922 -1.74408 -3.61086 0
M  V30 1931 H 177.512 -3.04748 -3.01374 0
M  V30 1932 H 181.696 -4.02239 -2.90719 0
M  V30 1933 H 176.952 -5.432 -2.80612 0
M  V30 1934 H 181.126 -6.41472 -2.71083 0
M  V30 1935 H 178.753 -7.12314 -2.65544 0
M  V30 1936 N 180.328 1.1314 -1.09713 0
M  V30 1937 C 181.258 2.20748 -0.761102 0
M  V30 1938 C 182.239 1.68061 0.262566 0
M  V30 1939 O 183.424 1.93765 0.129977 0
M  V30 1940 C 180.554 3.46812 -0.184054 0
M  V30 1941 C 179.508 4.12606 -1.13757 0
M  V30 1942 C 178.834 5.33031 -0.422083 0
M  V30 1943 C 180.134 4.59603 -2.48118 0
M  V30 1944 H 181.828 2.49113 -1.66082 0
M  V30 1945 H 179.374 1.19734 -0.799987 0
M  V30 1946 H 181.327 4.21353 0.0631215 0
M  V30 1947 H 180.051 3.17851 0.750868 0
M  V30 1948 H 178.71 3.40036 -1.37007 0
M  V30 1949 H 178.358 5.00335 0.517072 0
M  V30 1950 H 178.058 5.77999 -1.05788 0
M  V30 1951 H 179.582 6.10325 -0.183277 0
M  V30 1952 H 180.996 5.25552 -2.29059 0
M  V30 1953 H 179.393 5.15321 -3.07514 0
M  V30 1954 H 180.463 3.73971 -3.08665 0
M  V30 1955 N 181.806 0.884767 1.30421 0
M  V30 1956 C 183.046 0.509806 1.9794 0
M  V30 1957 C 183.41 -0.923736 1.68319 0
M  V30 1958 O 184.611 -1.40481 2.29169 0
M  V30 1959 C 182.882 0.776732 3.48858 0
M  V30 1960 S 184.441 0.503843 4.35898 0
M  V30 1961 H 181.259 0.189699 0.685227 0
M  V30 1962 H 183.861 1.14399 1.58535 0
M  V30 1963 H 182.565 1.81857 3.67908 0
M  V30 1964 H 182.096 0.1301 3.93185 0
M  V30 1965 H 184.111 -0.657625 4.91823 0
M  V30 1966 N 183.284 -1.43765 0.645699 0
M  V30 1967 C 184.214 -2.33471 -0.0370477 0
M  V30 1968 C 185.195 -1.49042 -0.819779 0
M  V30 1969 O 186.38 -1.77726 -0.782758 0
M  V30 1970 C 183.51 -3.32311 -1.0093 0
M  V30 1971 C 182.464 -4.2667 -0.337201 0
M  V30 1972 C 181.79 -5.1549 -1.42037 0
M  V30 1973 C 183.09 -5.16657 0.765706 0
M  V30 1974 H 184.784 -2.90809 0.712069 0
M  V30 1975 H 182.33 -1.39834 0.343876 0
M  V30 1976 H 184.283 -3.9396 -1.49578 0
M  V30 1977 H 183.007 -2.73213 -1.78948 0
M  V30 1978 H 181.666 -3.66374 0.128771 0
M  V30 1979 H 181.314 -4.52735 -2.1918 0
M  V30 1980 H 181.014 -5.79438 -0.975966 0
M  V30 1981 H 182.538 -5.80012 -1.90838 0
M  V30 1982 H 183.952 -5.72158 0.361702 0
M  V30 1983 H 182.349 -5.89286 1.13413 0
M  V30 1984 H 183.419 -4.56796 1.62683 0
M  V30 1985 N 184.763 -0.387143 -1.52771 0
M  V30 1986 C 185.695 0.484089 -2.2403 0
M  V30 1987 C 186.708 1.02849 -1.26198 0
M  V30 1988 O 187.897 0.931186 -1.52286 0
M  V30 1989 C 184.997 1.68337 -2.94136 0
M  V30 1990 C 184.17 1.26672 -4.18656 0
M  V30 1991 C 183.229 2.33045 -4.7178 0
M  V30 1992 O 182.255 1.94541 -5.34923 0
M  V30 1993 N 183.457 3.64929 -4.5145 0
M  V30 1994 H 186.222 -0.126404 -2.99433 0
M  V30 1995 H 183.783 -0.213392 -1.60488 0
M  V30 1996 H 185.775 2.39019 -3.26577 0
M  V30 1997 H 184.345 2.20025 -2.22053 0
M  V30 1998 H 183.565 0.388878 -3.92277 0
M  V30 1999 H 184.853 0.964964 -4.99566 0
M  V30 2000 H 184.251 3.98974 -4.01044 0
M  V30 2001 H 182.808 4.31651 -4.88386 0
M  V30 2002 N 186.241 1.57166 -0.116904 0
M  V30 2003 C 187.518 1.86645 0.585049 0
M  V30 2004 C 187.898 1.0177 1.84949 0
M  V30 2005 O 187.246 0.0960379 2.28298 0
M  V30 2006 C 187.456 3.37736 0.879507 0
M  V30 2007 C 188.804 4.06289 1.23348 0
M  V30 2008 O 189.828 3.42743 0.969836 0
M  V30 2009 O 188.687 5.18455 1.7282 0
M  V30 2010 H 185.781 0.772593 0.295007 0
M  V30 2011 H 188.327 1.69025 -0.151249 0
M  V30 2012 H 187.099 3.91296 -0.0166136 0
M  V30 2013 H 186.722 3.6078 1.67103 0
M  V30 2014 N 187.719 -0.156864 1.56817 0
M  V30 2015 C 188.947 -0.886316 1.86955 0
M  V30 2016 C 189.362 -1.75185 0.703975 0
M  V30 2017 O 188.719 -1.79555 -0.326552 0
M  V30 2018 C 188.77 -1.75117 3.16253 0
M  V30 2019 O 188.491 -0.920537 4.2832 0
M  V30 2020 C 189.992 -2.58905 3.59837 0
M  V30 2021 H 187.212 -0.25678 0.619923 0
M  V30 2022 H 189.756 -0.152615 2.0393 0
M  V30 2023 H 187.911 -2.43805 3.01062 0
M  V30 2024 H 188.325 -1.51337 5.02192 0
M  V30 2025 H 189.799 -3.1518 4.53172 0
M  V30 2026 H 190.276 -3.34472 2.84649 0
M  V30 2027 H 190.882 -1.95526 3.7769 0
M  V30 2028 N 189.197 -1.51736 -0.425897 0
M  V30 2029 C 190.425 -1.68794 -1.1965 0
M  V30 2030 C 190.84 -0.390164 -1.84725 0
M  V30 2031 O 190.197 0.632376 -1.71194 0
M  V30 2032 C 190.248 -2.81174 -2.27208 0
M  V30 2033 O 189.969 -4.05925 -1.64793 0
M  V30 2034 C 191.47 -3.09599 -3.17275 0
M  V30 2035 H 188.69 -0.566128 -0.360194 0
M  V30 2036 H 191.234 -1.98211 -0.503249 0
M  V30 2037 H 189.389 -2.54324 -2.9223 0
M  V30 2038 H 189.803 -4.68423 -2.35967 0
M  V30 2039 H 191.277 -3.91786 -3.88854 0
M  V30 2040 H 191.754 -2.22468 -3.78688 0
M  V30 2041 H 192.36 -3.38151 -2.57941 0
M  V30 2042 N 190.675 0.682077 -1.42076 0
M  V30 2043 C 191.903 1.47057 -1.4554 0
M  V30 2044 C 192.318 1.8869 -0.0645779 0
M  V30 2045 O 191.675 1.57666 0.919115 0
M  V30 2046 C 191.726 2.72442 -2.37609 0
M  V30 2047 O 191.447 2.32559 -3.71279 0
M  V30 2048 C 192.948 3.66069 -2.50017 0
M  V30 2049 H 190.168 0.452737 -0.495248 0
M  V30 2050 H 192.712 0.838695 -1.8651 0
M  V30 2051 H 190.867 3.31835 -1.9991 0
M  V30 2052 H 191.281 3.13475 -4.20516 0
M  V30 2053 H 192.755 4.50792 -3.18576 0
M  V30 2054 H 193.232 4.11476 -1.53572 0
M  V30 2055 H 193.838 3.12572 -2.88407 0
M  V30 2056 N 192.153 1.28127 0.917671 0
M  V30 2057 C 193.564 1.13622 1.48145 0
M  V30 2058 C 193.915 -0.275207 1.9426 0
M  V30 2059 O 193.04 -1.1691 1.82102 0
M  V30 2060 C 193.635 2.05648 2.69248 0
M  V30 2061 C 192.194 1.95219 3.21818 0
M  V30 2062 C 191.341 1.97618 1.94532 0
M  V30 2063 H 194.292 1.40874 0.730772 0
M  V30 2064 H 194.313 1.61818 3.44377 0
M  V30 2065 H 193.825 3.08365 2.35653 0
M  V30 2066 H 191.926 0.955244 3.60147 0
M  V30 2067 H 192.039 2.81976 3.87333 0
M  V30 2068 H 190.403 1.41973 2.11461 0
M  V30 2069 H 191.186 3.02007 1.63238 0
M  V30 2070 N 193.631 -1.12557 1.10312 0
M  V30 2071 C 194.88 -1.83395 0.839588 0
M  V30 2072 C 195.193 -1.84939 -0.636929 0
M  V30 2073 O 196.399 -2.51761 -1.01631 0
M  V30 2074 C 194.855 -3.29303 1.45215 0
M  V30 2075 C 194.463 -3.36122 2.96186 0
M  V30 2076 C 196.207 -4.05121 1.26796 0
M  V30 2077 C 194.114 -4.76357 3.50483 0
M  V30 2078 H 193.044 -0.687133 0.310425 0
M  V30 2079 H 195.695 -1.26746 1.32694 0
M  V30 2080 H 194.077 -3.85812 0.892469 0
M  V30 2081 H 195.251 -2.89559 3.58458 0
M  V30 2082 H 193.566 -2.73776 3.13745 0
M  V30 2083 H 196.163 -5.08668 1.64806 0
M  V30 2084 H 196.506 -4.15773 0.209409 0
M  V30 2085 H 197.039 -3.54967 1.79563 0
M  V30 2086 H 193.778 -4.70899 4.55998 0
M  V30 2087 H 193.298 -5.23377 2.92978 0
M  V30 2088 H 194.977 -5.45294 3.48228 0
M  V30 2089 N 195.109 -0.891671 -1.2995 0
M  V30 2090 C 196.041 -0.320695 -2.26945 0
M  V30 2091 C 197.054 0.528497 -1.53983 0
M  V30 2092 O 198.243 0.346959 -1.75096 0
M  V30 2093 C 195.343 0.562066 -3.34207 0
M  V30 2094 C 194.516 -0.259576 -4.36629 0
M  V30 2095 C 193.575 0.554739 -5.23268 0
M  V30 2096 O 192.601 -0.0249311 -5.69195 0
M  V30 2097 N 193.803 1.8625 -5.4981 0
M  V30 2098 H 196.568 -1.15432 -2.76578 0
M  V30 2099 H 194.129 -0.755336 -1.432 0
M  V30 2100 H 196.121 1.11304 -3.89093 0
M  V30 2101 H 194.691 1.29637 -2.84452 0
M  V30 2102 H 193.911 -0.991986 -3.81514 0
M  V30 2103 H 195.199 -0.822564 -5.02107 0
M  V30 2104 H 194.597 2.35628 -5.14292 0
M  V30 2105 H 193.154 2.36078 -6.07545 0
M  V30 2106 N 196.587 1.43421 -0.653314 0
M  V30 2107 C 197.812 2.06678 -0.172846 0
M  V30 2108 C 198.237 1.48648 1.15262 0
M  V30 2109 O 197.595 0.596457 1.71208 0
M  V30 2110 C 197.643 3.60474 -0.0953184 0
M  V30 2111 O 196.747 4.01487 0.942442 0
M  V30 2112 H 196.088 0.657181 -0.0949155 0
M  V30 2113 H 198.618 1.83925 -0.896265 0
M  V30 2114 H 198.628 4.07905 0.0879728 0
M  V30 2115 H 197.303 4.02088 -1.06291 0
M  V30 2116 H 195.88 3.65646 0.731932 0
M  V30 2117 N 198.065 0.39524 1.52563 0
M  V30 2118 C 198.998 -0.4813 2.23067 0
M  V30 2119 C 199.976 -1.05927 1.23362 0
M  V30 2120 O 201.16 -1.10979 1.52368 0
M  V30 2121 C 198.287 -1.66676 2.9485 0
M  V30 2122 C 197.333 -1.21348 4.08873 0
M  V30 2123 S 198.166 -0.190102 5.35162 0
M  V30 2124 C 199.322 -1.38121 6.1047 0
M  V30 2125 H 199.555 0.117381 2.97068 0
M  V30 2126 H 197.088 0.179458 1.53354 0
M  V30 2127 H 199.046 -2.3466 3.36816 0
M  V30 2128 H 197.707 -2.23676 2.20518 0
M  V30 2129 H 196.9 -2.09877 4.58222 0
M  V30 2130 H 196.502 -0.612486 3.68951 0
M  V30 2131 H 198.794 -2.30726 6.37002 0
M  V30 2132 H 199.737 -0.928521 7.01986 0
M  V30 2133 H 200.145 -1.60071 5.41329 0
M  V30 2134 N 199.544 -1.57102 0.125237 0
M  V30 2135 C 200.477 -2.11371 -0.860094 0
M  V30 2136 C 201.455 -1.03168 -1.25679 0
M  V30 2137 O 202.639 -1.30862 -1.35674 0
M  V30 2138 C 199.766 -2.61555 -2.1519 0
M  V30 2139 C 198.812 -3.81701 -1.9028 0
M  V30 2140 S 199.645 -5.23797 -1.11343 0
M  V30 2141 C 200.801 -5.77353 -2.41689 0
M  V30 2142 H 201.034 -2.94617 -0.39852 0
M  V30 2143 H 198.567 -1.54145 -0.0886555 0
M  V30 2144 H 200.525 -2.91122 -2.89411 0
M  V30 2145 H 199.186 -1.78479 -2.58465 0
M  V30 2146 H 198.379 -4.14985 -2.86014 0
M  V30 2147 H 197.981 -3.52783 -1.24178 0
M  V30 2148 H 200.273 -5.87458 -3.37489 0
M  V30 2149 H 201.216 -6.75323 -2.12942 0
M  V30 2150 H 201.624 -5.05457 -2.51342 0
M  V30 2151 N 201.022 0.148545 -1.56898 0
M  V30 2152 C 202.262 0.86765 -1.85071 0
M  V30 2153 C 202.626 1.78417 -0.709317 0
M  V30 2154 O 203.827 2.54261 -0.872049 0
M  V30 2155 C 202.098 1.62306 -3.1842 0
M  V30 2156 S 203.657 2.3878 -3.68143 0
M  V30 2157 H 200.475 0.290174 -0.649092 0
M  V30 2158 H 203.077 0.127755 -1.95082 0
M  V30 2159 H 201.781 0.941192 -3.99462 0
M  V30 2160 H 201.312 2.4039 -3.1141 0
M  V30 2161 H 203.327 3.63942 -3.37285 0
M  V30 2162 N 202.5 1.5196 0.417844 0
M  V30 2163 C 203.432 1.70895 1.52733 0
M  V30 2164 C 204.445 0.589405 1.51756 0
M  V30 2165 O 205.634 0.864312 1.56179 0
M  V30 2166 C 202.734 1.72627 2.91639 0
M  V30 2167 C 201.907 3.01479 3.16905 0
M  V30 2168 C 200.966 2.95139 4.35637 0
M  V30 2169 O 199.992 3.69059 4.3334 0
M  V30 2170 N 201.194 2.12328 5.40275 0
M  V30 2171 H 203.959 2.66612 1.36888 0
M  V30 2172 H 201.52 1.50089 0.607037 0
M  V30 2173 H 203.512 1.65928 3.6912 0
M  V30 2174 H 202.082 0.844216 3.00985 0
M  V30 2175 H 201.302 3.21895 2.27546 0
M  V30 2176 H 202.59 3.86736 3.30625 0
M  V30 2177 H 201.988 1.51685 5.44985 0
M  V30 2178 H 200.545 2.11494 6.16534 0
M  V30 2179 N 203.978 -0.674533 1.42435 0
M  V30 2180 C 205.208 -1.46071 1.46105 0
M  V30 2181 C 205.616 -1.89067 0.0709605 0
M  V30 2182 O 204.959 -1.58731 -0.924677 0
M  V30 2183 C 205.021 -2.74145 2.32561 0
M  V30 2184 C 204.685 -2.53224 3.8043 0
M  V30 2185 C 205.682 -2.17809 4.72075 0
M  V30 2186 C 203.367 -2.6821 4.24698 0
M  V30 2187 C 205.361 -1.97648 6.05982 0
M  V30 2188 C 203.048 -2.47665 5.58664 0
M  V30 2189 C 204.046 -2.12437 6.49122 0
M  V30 2190 O 203.734 -1.9209 7.80613 0
M  V30 2191 H 203.466 -0.455959 0.499076 0
M  V30 2192 H 206.02 -0.836193 1.87609 0
M  V30 2193 H 204.25 -3.3908 1.85908 0
M  V30 2194 H 205.939 -3.36028 2.27683 0
M  V30 2195 H 206.705 -2.05826 4.39159 0
M  V30 2196 H 202.584 -2.94609 3.54579 0
M  V30 2197 H 206.128 -1.70075 6.7655 0
M  V30 2198 H 202.025 -2.59244 5.91154 0
M  V30 2199 H 202.793 -2.06686 7.91974 0
M  V30 2200 N 205.456 -1.28612 -0.910864 0
M  V30 2201 C 206.386 -1.15326 -2.03032 0
M  V30 2202 C 207.367 -0.0502924 -1.70026 0
M  V30 2203 O 208.552 -0.227797 -1.92859 0
M  V30 2204 C 205.682 -0.817343 -3.37545 0
M  V30 2205 C 204.636 -1.8754 -3.84724 0
M  V30 2206 C 203.962 -1.39305 -5.16235 0
M  V30 2207 C 205.262 -3.28244 -4.06267 0
M  V30 2208 H 206.956 -2.08975 -2.14406 0
M  V30 2209 H 204.502 -1.00612 -1.03021 0
M  V30 2210 H 206.455 -0.711151 -4.15356 0
M  V30 2211 H 205.179 0.154846 -3.26233 0
M  V30 2212 H 203.838 -1.97079 -3.09121 0
M  V30 2213 H 203.486 -0.409846 -5.01328 0
M  V30 2214 H 203.186 -2.10057 -5.48771 0
M  V30 2215 H 204.71 -1.30014 -5.96598 0
M  V30 2216 H 206.124 -3.21611 -4.74594 0
M  V30 2217 H 204.521 -3.96855 -4.5014 0
M  V30 2218 H 205.591 -3.72048 -3.10979 0
M  V30 2219 N 206.934 1.1197 -1.10907 0
M  V30 2220 C 207.897 2.16031 -0.765707 0
M  V30 2221 C 208.897 1.59393 0.212235 0
M  V30 2222 O 210.087 1.74196 -0.0115441 0
M  V30 2223 C 207.219 3.40632 -0.135053 0
M  V30 2224 H 208.412 2.47919 -1.68748 0
M  V30 2225 H 205.965 1.27061 -0.910226 0
M  V30 2226 H 206.7 3.14348 0.797218 0
M  V30 2227 H 206.485 3.8302 -0.838937 0
M  V30 2228 H 207.975 4.17505 0.0892469 0
M  V30 2229 N 208.412 0.89855 1.29475 0
M  V30 2230 C 209.828 0.594483 1.48115 0
M  V30 2231 C 210.028 -0.86431 1.82022 0
M  V30 2232 O 209.084 -1.64457 1.91599 0
M  V30 2233 C 210.397 1.51932 2.59494 0
M  V30 2234 C 211.945 1.5244 2.7337 0
M  V30 2235 C 212.42 2.43548 3.87877 0
M  V30 2236 N 213.911 2.41589 3.95208 0
M  V30 2237 C 214.646 3.08789 4.83153 0
M  V30 2238 N 214.142 3.85265 5.75798 0
M  V30 2239 N 215.935 2.97952 4.76635 0
M  V30 2240 H 208.086 1.84207 1.05742 0
M  V30 2241 H 210.349 0.789251 0.525154 0
M  V30 2242 H 210.055 2.55865 2.41301 0
M  V30 2243 H 209.929 1.23899 3.56271 0
M  V30 2244 H 212.316 0.492518 2.90961 0
M  V30 2245 H 212.397 1.8451 1.77172 0
M  V30 2246 H 212.041 3.46829 3.71041 0
M  V30 2247 H 211.971 2.08788 4.83441 0
M  V30 2248 H 214.462 1.86025 3.28943 0
M  V30 2249 H 214.775 4.33598 6.39697 0
M  V30 2250 H 213.12 3.89371 5.75687 0
M  V30 2251 H 216.311 2.37723 4.03244 0
M  V30 2252 H 216.484 3.50599 5.44962 0
M  V30 2253 N 209.89 -1.43072 0.660911 0
M  V30 2254 C 211.136 -2.0202 0.177708 0
M  V30 2255 C 211.469 -1.52066 -1.20787 0
M  V30 2256 O 210.744 -0.716987 -1.80802 0
M  V30 2257 C 211.027 -3.59561 0.197019 0
M  V30 2258 C 210.88 -4.19727 1.61706 0
M  V30 2259 C 212.199 -4.37664 -0.462396 0
M  V30 2260 H 209.318 -0.734034 0.0660494 0
M  V30 2261 H 211.96 -1.70272 0.843058 0
M  V30 2262 H 210.11 -3.86739 -0.369527 0
M  V30 2263 H 211.782 -4.03553 2.23479 0
M  V30 2264 H 210.025 -3.76084 2.16201 0
M  V30 2265 H 210.696 -5.28834 1.58237 0
M  V30 2266 H 213.172 -4.16095 0.0197215 0
M  V30 2267 H 212.048 -5.47305 -0.418188 0
M  V30 2268 H 212.309 -4.14493 -1.53778 0
M  V30 2269 N 211.368 -0.403325 -1.52352 0
M  V30 2270 C 212.298 0.416205 -2.29761 0
M  V30 2271 C 213.279 1.05123 -1.33728 0
M  V30 2272 O 214.464 1.06134 -1.62632 0
M  V30 2273 C 211.594 1.53624 -3.11475 0
M  V30 2274 C 210.548 1.02653 -4.15507 0
M  V30 2275 C 209.874 2.23971 -4.85532 0
M  V30 2276 C 211.174 0.08463 -5.22231 0
M  V30 2277 H 212.868 -0.229701 -2.98518 0
M  V30 2278 H 210.414 -0.111913 -1.43564 0
M  V30 2279 H 212.367 2.1165 -3.64393 0
M  V30 2280 H 211.091 2.20994 -2.40477 0
M  V30 2281 H 209.75 0.46871 -3.63591 0
M  V30 2282 H 209.398 2.89883 -4.11068 0
M  V30 2283 H 209.098 1.90521 -5.55856 0
M  V30 2284 H 210.622 2.82614 -5.41259 0
M  V30 2285 H 212.036 0.573509 -5.70424 0
M  V30 2286 H 210.433 -0.160783 -5.99885 0
M  V30 2287 H 211.503 -0.86237 -4.7717 0
M  V30 2288 N 212.846 1.57033 -0.133567 0
M  V30 2289 C 214.092 1.95976 0.521649 0
M  V30 2290 C 214.425 1.01779 1.65393 0
M  V30 2291 O 213.7 0.0576581 1.94415 0
M  V30 2292 C 213.983 3.44738 1.04057 0
M  V30 2293 C 213.836 4.49711 -0.0892897 0
M  V30 2294 C 215.155 3.95682 1.92675 0
M  V30 2295 H 212.274 0.712579 0.188149 0
M  V30 2296 H 214.916 1.88813 -0.212076 0
M  V30 2297 H 213.066 3.50973 1.66583 0
M  V30 2298 H 214.738 4.55565 -0.725152 0
M  V30 2299 H 212.981 4.27261 -0.750378 0
M  V30 2300 H 213.652 5.51099 0.315284 0
M  V30 2301 H 216.128 3.91841 1.39998 0
M  V30 2302 H 215.004 5.00262 2.25897 0
M  V30 2303 H 215.265 3.37239 2.85872 0
M  V30 2304 N 214.325 -0.140222 1.56975 0
M  V30 2305 C 215.235 -1.19223 2.02047 0
M  V30 2306 C 216.251 -1.46612 0.937062 0
M  V30 2307 O 217.427 -1.58148 1.24704 0
M  V30 2308 C 214.492 -2.50414 2.39778 0
M  V30 2309 C 213.553 -2.30612 3.621 0
M  V30 2310 C 212.786 -3.55547 3.98023 0
M  V30 2311 O 213.009 -4.62004 3.34528 0
M  V30 2312 O 211.943 -3.47808 4.91237 0
M  V30 2313 H 215.769 -0.839559 2.91865 0
M  V30 2314 H 213.354 -0.349453 1.45256 0
M  V30 2315 H 215.236 -3.27747 2.64877 0
M  V30 2316 H 213.911 -2.85198 1.53114 0
M  V30 2317 H 212.818 -1.51207 3.4218 0
M  V30 2318 H 214.151 -2.00741 4.49404 0
M  V30 2319 N 215.803 -1.52179 -0.40978 0
M  V30 2320 C 217.08 -1.56769 -1.16974 0
M  V30 2321 C 217.46 -0.348322 -2.08206 0
M  V30 2322 O 216.808 0.664862 -2.18613 0
M  V30 2323 C 217.018 -2.89603 -1.9476 0
M  V30 2324 C 218.366 -3.42579 -2.50849 0
M  V30 2325 O 219.39 -2.91338 -2.04941 0
M  V30 2326 O 218.249 -4.32054 -3.34652 0
M  V30 2327 H 215.343 -0.631439 -0.534054 0
M  V30 2328 H 217.889 -1.64507 -0.416613 0
M  V30 2329 H 216.661 -3.698 -1.27921 0
M  V30 2330 H 216.284 -2.85155 -2.77079 0
M  V30 2331 N 217.281 0.66697 -1.42791 0
M  V30 2332 C 218.558 1.4234 -1.34159 0
M  V30 2333 C 218.938 2.11093 0.0172729 0
M  V30 2334 O 218.286 2.03808 1.03318 0
M  V30 2335 C 218.496 2.41942 -2.51526 0
M  V30 2336 C 219.844 3.06353 -2.93995 0
M  V30 2337 O 220.868 2.52269 -2.51473 0
M  V30 2338 O 219.727 4.04376 -3.67617 0
M  V30 2339 H 216.821 0.635277 -0.529483 0
M  V30 2340 H 219.367 0.695034 -1.54814 0
M  V30 2341 H 218.139 1.89991 -3.42081 0
M  V30 2342 H 217.762 3.22249 -2.32898 0
M  V30 2343 N 218.759 1.29093 0.90403 0
M  V30 2344 C 219.669 1.15727 2.0407 0
M  V30 2345 C 220.685 0.0815308 1.73809 0
M  V30 2346 O 221.861 0.292749 1.99261 0
M  V30 2347 C 218.926 0.830424 3.36608 0
M  V30 2348 C 217.987 1.98955 3.80415 0
M  V30 2349 C 217.22 1.6782 5.06628 0
M  V30 2350 O 217.443 0.597105 5.67266 0
M  V30 2351 O 216.377 2.52486 5.46383 0
M  V30 2352 H 220.203 2.11171 2.18267 0
M  V30 2353 H 217.788 1.08504 1.027 0
M  V30 2354 H 219.67 0.662521 4.16159 0
M  V30 2355 H 218.345 -0.0942678 3.23563 0
M  V30 2356 H 217.252 2.21267 3.01648 0
M  V30 2357 H 218.585 2.89529 3.98037 0
M  V30 2358 N 220.237 -1.11381 1.11499 0
M  V30 2359 C 221.486 -1.82494 0.858993 0
M  V30 2360 C 221.799 -1.85605 -0.617278 0
M  V30 2361 O 223.005 -2.52824 -0.989552 0
M  V30 2362 C 221.461 -3.27745 1.48699 0
M  V30 2363 C 221.069 -3.32961 2.99735 0
M  V30 2364 C 222.813 -4.03754 1.31085 0
M  V30 2365 C 220.72 -4.72612 3.55516 0
M  V30 2366 H 219.65 -0.683802 0.317696 0
M  V30 2367 H 222.301 -1.25331 1.34031 0
M  V30 2368 H 220.683 -3.84844 0.933339 0
M  V30 2369 H 221.857 -2.85741 3.61509 0
M  V30 2370 H 220.172 -2.70433 3.16631 0
M  V30 2371 H 222.769 -5.06891 1.70192 0
M  V30 2372 H 223.112 -4.15527 0.253496 0
M  V30 2373 H 223.645 -3.53043 1.83318 0
M  V30 2374 H 220.384 -4.66036 4.60967 0
M  V30 2375 H 219.904 -5.2024 2.98513 0
M  V30 2376 H 221.583 -5.4157 3.53992 0
M  V30 2377 N 221.715 -0.905404 -1.28997 0
M  V30 2378 C 222.648 -0.331959 -2.25773 0
M  V30 2379 C 223.626 0.559099 -1.52685 0
M  V30 2380 O 224.81 0.50463 -1.8162 0
M  V30 2381 C 221.937 0.526276 -3.34586 0
M  V30 2382 C 220.983 -0.298249 -4.25456 0
M  V30 2383 S 221.816 -1.69968 -5.0781 0
M  V30 2384 C 222.972 -0.848519 -6.20122 0
M  V30 2385 H 223.205 -1.15222 -2.74064 0
M  V30 2386 H 220.738 -0.706112 -1.37308 0
M  V30 2387 H 222.696 1.01565 -3.97737 0
M  V30 2388 H 221.357 1.32084 -2.84978 0
M  V30 2389 H 220.55 0.357607 -5.0273 0
M  V30 2390 H 220.152 -0.720968 -3.66985 0
M  V30 2391 H 222.444 -0.0744325 -6.77459 0
M  V30 2392 H 223.387 -1.59353 -6.89937 0
M  V30 2393 H 223.795 -0.400383 -5.63078 0
M  V30 2394 N 223.193 1.4272 -0.668489 0
M  V30 2395 C 224.125 2.2914 0.052613 0
M  V30 2396 C 225.138 1.43339 0.771857 0
M  V30 2397 O 226.327 1.67123 0.627067 0
M  V30 2398 C 223.427 3.20618 1.09804 0
M  V30 2399 C 222.6 4.35039 0.45389 0
M  V30 2400 C 221.659 5.07282 1.39825 0
M  V30 2401 O 220.685 5.62024 0.900978 0
M  V30 2402 N 221.887 5.12206 2.73176 0
M  V30 2403 H 224.652 2.91668 -0.689209 0
M  V30 2404 H 222.213 1.53577 -0.512422 0
M  V30 2405 H 224.205 3.65815 1.73094 0
M  V30 2406 H 222.775 2.59585 1.74167 0
M  V30 2407 H 221.995 3.92567 -0.358396 0
M  V30 2408 H 223.283 5.088 0.00486972 0
M  V30 2409 H 222.681 4.6913 3.16122 0
M  V30 2410 H 221.238 5.61069 3.31729 0
M  V30 2411 N 224.671 0.411399 1.52136 0
M  V30 2412 C 225.919 -0.163322 2.01439 0
M  V30 2413 C 226.24 -1.45453 1.29879 0
M  V30 2414 O 225.51 -1.91225 0.4254 0
M  V30 2415 H 224.09 -0.0633447 0.744309 0
M  V30 2416 H 226.752 0.548161 1.87033 0
M  V30 2417 H 225.848 -0.357817 3.10042 0
M  V30 2418 N 226.149 -1.5696 0.141893 0
M  V30 2419 C 227.396 -1.9596 -0.510492 0
M  V30 2420 C 227.724 -1.02648 -1.65208 0
M  V30 2421 O 226.979 -0.0546947 -1.95624 0
M  V30 2422 C 227.278 -3.41242 -1.06249 0
M  V30 2423 C 226.944 -4.50882 -0.0398791 0
M  V30 2424 C 225.606 -4.80595 0.241247 0
M  V30 2425 C 227.958 -5.17058 0.65578 0
M  V30 2426 C 225.286 -5.73792 1.22393 0
M  V30 2427 C 227.638 -6.11313 1.62724 0
M  V30 2428 C 226.302 -6.39407 1.91612 0
M  V30 2429 H 225.572 -0.717068 -0.186802 0
M  V30 2430 H 228.219 -1.90142 0.227643 0
M  V30 2431 H 226.524 -3.43866 -1.87785 0
M  V30 2432 H 228.221 -3.68742 -1.57576 0
M  V30 2433 H 224.811 -4.27754 -0.269174 0
M  V30 2434 H 228.995 -4.94239 0.451779 0
M  V30 2435 H 224.251 -5.93853 1.45424 0
M  V30 2436 H 228.425 -6.61668 2.17183 0
M  V30 2437 H 226.052 -7.11427 2.6791 0
M  V30 2438 N 227.627 0.131896 -1.57047 0
M  V30 2439 C 228.876 0.84044 -1.83356 0
M  V30 2440 C 229.189 1.81646 -0.725535 0
M  V30 2441 O 230.395 2.57025 -0.874659 0
M  V30 2442 C 228.851 1.54528 -3.25037 0
M  V30 2443 C 228.459 0.610902 -4.43815 0
M  V30 2444 C 230.203 2.23972 -3.60606 0
M  V30 2445 C 228.11 1.31823 -5.76521 0
M  V30 2446 H 227.04 0.317599 -0.683847 0
M  V30 2447 H 229.691 0.0931561 -1.83263 0
M  V30 2448 H 228.073 2.33873 -3.19561 0
M  V30 2449 H 229.247 -0.148407 -4.60561 0
M  V30 2450 H 227.562 0.0241016 -4.16393 0
M  V30 2451 H 230.159 2.77558 -4.57018 0
M  V30 2452 H 230.502 3.01173 -2.87403 0
M  V30 2453 H 231.035 1.51529 -3.6781 0
M  V30 2454 H 227.774 0.587771 -6.52859 0
M  V30 2455 H 227.294 2.04987 -5.63685 0
M  V30 2456 H 228.973 1.855 -6.19838 0
M  V30 2457 N 229.106 1.52395 0.401703 0
M  V30 2458 C 230.522 1.41363 0.740864 0
M  V30 2459 C 230.722 0.523982 1.94568 0
M  V30 2460 O 229.778 -0.00741204 2.52499 0
M  V30 2461 C 231.091 2.84011 0.987847 0
M  V30 2462 C 232.639 2.93404 1.09011 0
M  V30 2463 C 233.114 4.37036 1.3698 0
M  V30 2464 N 234.605 4.40304 1.43829 0
M  V30 2465 C 235.34 5.48508 1.67112 0
M  V30 2466 N 234.836 6.66819 1.87949 0
M  V30 2467 N 236.629 5.36034 1.69187 0
M  V30 2468 H 228.78 2.08765 -0.391262 0
M  V30 2469 H 231.043 0.941265 -0.112798 0
M  V30 2470 H 230.749 3.51265 0.174835 0
M  V30 2471 H 230.623 3.25502 1.906 0
M  V30 2472 H 233.01 2.26325 1.8937 0
M  V30 2473 H 233.091 2.55359 0.15015 0
M  V30 2474 H 232.735 5.04676 0.571353 0
M  V30 2475 H 232.665 4.72623 2.3224 0
M  V30 2476 H 235.156 3.55024 1.29486 0
M  V30 2477 H 235.469 7.45063 2.05185 0
M  V30 2478 H 233.814 6.6987 1.85199 0
M  V30 2479 H 237.005 4.42579 1.52451 0
M  V30 2480 H 237.178 6.20434 1.86993 0
M  V30 2481 N 230.584 -0.659388 1.43143 0
M  V30 2482 C 231.547 -1.75432 1.47501 0
M  V30 2483 C 232.547 -1.56707 0.360512 0
M  V30 2484 O 233.737 -1.62717 0.622002 0
M  V30 2485 C 230.869 -3.14239 1.32162 0
M  V30 2486 H 232.062 -1.7295 2.45006 0
M  V30 2487 H 229.615 -0.870469 1.29817 0
M  V30 2488 H 230.35 -3.22336 0.356401 0
M  V30 2489 H 230.135 -3.29235 2.12948 0
M  V30 2490 H 231.625 -3.94094 1.3813 0
M  V30 2491 N 232.062 -1.29571 -0.897171 0
M  V30 2492 C 233.309 -1.17689 -1.6479 0
M  V30 2493 C 233.637 0.27107 -1.92602 0
M  V30 2494 O 232.892 1.21193 -1.53658 0
M  V30 2495 C 233.191 -1.9382 -3.00281 0
M  V30 2496 C 232.857 -3.43522 -2.92068 0
M  V30 2497 C 231.519 -3.84348 -2.89535 0
M  V30 2498 C 233.871 -4.38906 -2.81089 0
M  V30 2499 C 231.199 -5.18869 -2.73846 0
M  V30 2500 C 233.551 -5.73521 -2.66939 0
M  V30 2501 C 232.215 -6.13601 -2.62774 0
M  V30 2502 H 231.485 -0.430654 -0.603008 0
M  V30 2503 H 234.132 -1.60536 -1.04404 0
M  V30 2504 H 232.437 -1.4357 -3.64547 0
M  V30 2505 H 234.134 -1.82028 -3.57305 0
M  V30 2506 H 230.724 -3.11072 -2.94842 0
M  V30 2507 H 234.908 -4.08315 -2.82121 0
M  V30 2508 H 230.164 -5.4903 -2.69027 0
M  V30 2509 H 234.338 -6.47078 -2.57416 0
M  V30 2510 H 231.965 -7.17786 -2.50375 0
M  V30 2511 N 233.54 1.10788 -1.12088 0
M  V30 2512 C 234.956 1.34691 -0.856186 0
M  V30 2513 C 235.156 1.94791 0.515615 0
M  V30 2514 O 234.212 2.18524 1.26505 0
M  V30 2515 C 235.525 2.27208 -1.9697 0
M  V30 2516 C 237.073 2.40755 -2.00016 0
M  V30 2517 C 237.548 3.36598 -3.1059 0
M  V30 2518 N 239.039 3.44164 -3.10008 0
M  V30 2519 C 239.774 4.18284 -3.92206 0
M  V30 2520 N 239.27 4.95322 -4.84384 0
M  V30 2521 N 241.063 4.13865 -3.80357 0
M  V30 2522 H 233.214 0.70144 -2.00483 0
M  V30 2523 H 235.477 0.371405 -0.872217 0
M  V30 2524 H 235.183 1.90251 -2.958 0
M  V30 2525 H 235.057 3.27485 -1.87172 0
M  V30 2526 H 237.444 2.76982 -1.01808 0
M  V30 2527 H 237.525 1.40305 -2.13888 0
M  V30 2528 H 237.169 3.01096 -4.09028 0
M  V30 2529 H 237.099 4.36918 -2.93956 0
M  V30 2530 H 239.59 2.8922 -2.43228 0
M  V30 2531 H 239.903 5.49267 -5.43623 0
M  V30 2532 H 238.248 4.94459 -4.884 0
M  V30 2533 H 241.439 3.52773 -3.07683 0
M  V30 2534 H 241.612 4.71372 -4.44649 0
M  V30 2535 N 235.018 0.912232 1.28515 0
M  V30 2536 C 236.429 0.591352 1.77087 0
M  V30 2537 C 236.78 -0.8933 1.74684 0
M  V30 2538 O 235.905 -1.69876 1.34056 0
M  V30 2539 C 236.5 1.06668 3.2157 0
M  V30 2540 C 235.059 0.79675 3.67871 0
M  V30 2541 C 234.206 1.23427 2.48316 0
M  V30 2542 H 237.157 1.09365 1.15 0
M  V30 2543 H 237.178 0.407455 3.78312 0
M  V30 2544 H 236.69 2.14726 3.23287 0
M  V30 2545 H 234.791 -0.270679 3.71616 0
M  V30 2546 H 234.904 1.40343 4.58084 0
M  V30 2547 H 233.268 0.653036 2.46186 0
M  V30 2548 H 234.051 2.32316 2.52753 0
M  V30 2549 N 236.496 -1.42363 0.676048 0
M  V30 2550 C 237.426 -2.33497 0.0124832 0
M  V30 2551 C 238.407 -1.50748 -0.787981 0
M  V30 2552 O 239.592 -1.79346 -0.744884 0
M  V30 2553 C 236.722 -3.34377 -0.938582 0
M  V30 2554 C 235.676 -4.27289 -0.246622 0
M  V30 2555 C 235.002 -5.18386 -1.31071 0
M  V30 2556 C 236.302 -5.14916 0.875125 0
M  V30 2557 H 237.996 -2.89233 0.773593 0
M  V30 2558 H 235.542 -1.39073 0.37346 0
M  V30 2559 H 237.495 -3.97044 -1.41188 0
M  V30 2560 H 236.219 -2.76947 -1.73113 0
M  V30 2561 H 234.878 -3.66018 0.206456 0
M  V30 2562 H 234.526 -4.57282 -2.09528 0
M  V30 2563 H 234.226 -5.81378 -0.852839 0
M  V30 2564 H 235.75 -5.83929 -1.78492 0
M  V30 2565 H 237.164 -5.71262 0.482983 0
M  V30 2566 H 235.561 -5.86747 1.25887 0
M  V30 2567 H 236.631 -4.53242 1.72335 0
M  V30 2568 N 237.974 -0.419461 -1.51915 0
M  V30 2569 C 239.385 0.0477853 -1.86639 0
M  V30 2570 C 239.736 1.43531 -1.33766 0
M  V30 2571 O 238.861 2.05401 -0.68113 0
M  V30 2572 C 239.456 0.0934885 -3.38671 0
M  V30 2573 C 238.015 0.505097 -3.72996 0
M  V30 2574 C 237.162 -0.313792 -2.75519 0
M  V30 2575 H 240.113 -0.636088 -1.45395 0
M  V30 2576 H 240.134 0.906667 -3.6954 0
M  V30 2577 H 239.646 -0.916501 -3.77123 0
M  V30 2578 H 237.747 1.52135 -3.40126 0
M  V30 2579 H 237.86 0.242309 -4.78487 0
M  V30 2580 H 236.224 0.225363 -2.53701 0
M  V30 2581 H 237.007 -1.32232 -3.16812 0
M  V30 2582 N 239.452 1.56882 -0.150215 0
M  V30 2583 C 240.868 1.58263 0.20617 0
M  V30 2584 C 241.068 1.16464 1.64434 0
M  V30 2585 O 240.124 0.866422 2.3717 0
M  V30 2586 C 241.437 3.00649 -0.0555025 0
M  V30 2587 C 242.985 3.12999 0.00795388 0
M  V30 2588 C 243.46 4.5744 -0.226429 0
M  V30 2589 N 244.951 4.62875 -0.173469 0
M  V30 2590 C 245.686 5.72454 -0.329288 0
M  V30 2591 N 245.182 6.90669 -0.543005 0
M  V30 2592 N 246.975 5.61467 -0.266666 0
M  V30 2593 H 239.126 1.82345 -1.08922 0
M  V30 2594 H 241.389 0.844149 -0.431413 0
M  V30 2595 H 241.095 3.3563 -1.05096 0
M  V30 2596 H 240.969 3.71337 0.66246 0
M  V30 2597 H 243.356 2.77857 0.993966 0
M  V30 2598 H 243.437 2.4479 -0.742388 0
M  V30 2599 H 243.081 4.93287 -1.20956 0
M  V30 2600 H 243.011 5.2378 0.544274 0
M  V30 2601 H 245.502 3.77898 -0.0130709 0
M  V30 2602 H 245.815 7.70045 -0.651922 0
M  V30 2603 H 244.16 6.92581 -0.579366 0
M  V30 2604 H 247.351 4.67992 -0.100441 0
M  V30 2605 H 247.524 6.46816 -0.391535 0
M  V30 2606 N 240.93 -0.123565 1.57115 0
M  V30 2607 C 241.88 -1.1575 1.96433 0
M  V30 2608 C 242.864 -1.37313 0.838686 0
M  V30 2609 O 244.056 -1.38482 1.10235 0
M  V30 2610 C 241.185 -2.48526 2.36833 0
M  V30 2611 C 240.271 -2.30457 3.5602 0
M  V30 2612 N 240.662 -1.8219 4.71848 0
M  V30 2613 C 238.96 -2.61129 3.61563 0
M  V30 2614 C 239.661 -1.77721 5.53886 0
M  V30 2615 N 238.637 -2.21899 4.96248 0
M  V30 2616 H 242.439 -0.776797 2.83449 0
M  V30 2617 H 239.953 -0.331364 1.58983 0
M  V30 2618 H 241.95 -3.233 2.63216 0
M  V30 2619 H 240.61 -2.87358 1.5118 0
M  V30 2620 H 241.621 -1.51805 4.95152 0
M  V30 2621 H 238.298 -3.03678 2.86507 0
M  V30 2622 H 239.688 -1.41697 6.56789 0
M  V30 2623 N 242.408 -1.52605 -0.393616 0
M  V30 2624 C 243.338 -1.80022 -1.48709 0
M  V30 2625 C 244.319 -0.651995 -1.57108 0
M  V30 2626 O 245.504 -0.89913 -1.72132 0
M  V30 2627 C 242.634 -1.96492 -2.86371 0
M  V30 2628 C 241.588 -3.12161 -2.92813 0
M  V30 2629 C 240.914 -3.13877 -4.3288 0
M  V30 2630 C 242.214 -4.51322 -2.6288 0
M  V30 2631 H 243.908 -2.71589 -1.26015 0
M  V30 2632 H 241.454 -1.30684 -0.604778 0
M  V30 2633 H 243.407 -2.14255 -3.62867 0
M  V30 2634 H 242.131 -1.01611 -3.10391 0
M  V30 2635 H 240.79 -2.94173 -2.18764 0
M  V30 2636 H 240.438 -2.16687 -4.53933 0
M  V30 2637 H 240.138 -3.91576 -4.38112 0
M  V30 2638 H 241.662 -3.33789 -5.1129 0
M  V30 2639 H 243.076 -4.69435 -3.29096 0
M  V30 2640 H 241.473 -5.31053 -2.79468 0
M  V30 2641 H 242.543 -4.58353 -1.58242 0
M  V30 2642 N 243.887 0.651787 -1.4349 0
M  V30 2643 C 245.133 1.4121 -1.46395 0
M  V30 2644 C 245.488 1.92202 -0.087366 0
M  V30 2645 O 244.781 1.69452 0.894231 0
M  V30 2646 C 244.975 2.60914 -2.44251 0
M  V30 2647 C 244.804 2.21639 -3.91288 0
M  V30 2648 C 243.574 2.09897 -4.59643 0
M  V30 2649 C 245.772 1.81835 -4.81083 0
M  V30 2650 N 243.754 1.63967 -5.91598 0
M  V30 2651 C 245.125 1.46998 -6.02322 0
M  V30 2652 C 247.18 1.69031 -4.6833 0
M  V30 2653 C 245.883 1.00638 -7.12225 0
M  V30 2654 C 247.909 1.24077 -5.78238 0
M  V30 2655 C 247.271 0.901772 -6.98604 0
M  V30 2656 H 243.37 0.512322 -0.590805 0
M  V30 2657 H 245.954 0.74989 -1.7968 0
M  V30 2658 H 244.125 3.24792 -2.1299 0
M  V30 2659 H 245.857 3.27622 -2.37584 0
M  V30 2660 H 242.612 2.297 -4.14168 0
M  V30 2661 H 243.036 1.43359 -6.61647 0
M  V30 2662 H 247.678 1.93878 -3.75727 0
M  V30 2663 H 245.396 0.745399 -8.04655 0
M  V30 2664 H 248.982 1.14657 -5.7039 0
M  V30 2665 H 247.862 0.559226 -7.82203 0
M  V30 2666 N 245.365 1.30045 0.890287 0
M  V30 2667 C 246.595 1.21296 1.67245 0
M  V30 2668 C 247.003 -0.227471 1.87828 0
M  V30 2669 O 246.346 -1.16296 1.422 0
M  V30 2670 C 246.408 1.86519 3.07329 0
M  V30 2671 C 246.072 3.35837 3.09939 0
M  V30 2672 C 247.069 4.31915 2.89389 0
M  V30 2673 C 244.754 3.77196 3.31706 0
M  V30 2674 C 246.748 5.67325 2.90552 0
M  V30 2675 C 244.435 5.12725 3.32499 0
M  V30 2676 C 245.433 6.076 3.11947 0
M  V30 2677 O 245.121 7.40655 3.12547 0
M  V30 2678 H 244.853 0.4211 0.528821 0
M  V30 2679 H 247.407 1.72111 1.12103 0
M  V30 2680 H 245.637 1.30228 3.64112 0
M  V30 2681 H 247.326 1.71963 3.67673 0
M  V30 2682 H 248.092 4.01294 2.72375 0
M  V30 2683 H 243.971 3.03796 3.4674 0
M  V30 2684 H 247.515 6.41354 2.74429 0
M  V30 2685 H 243.412 5.42988 3.49047 0
M  V30 2686 H 244.18 7.49577 3.28749 0
M  V30 2687 N 246.843 -1.10192 1.12674 0
M  V30 2688 C 247.773 -2.18652 0.819362 0
M  V30 2689 C 248.754 -1.68698 -0.217915 0
M  V30 2690 O 249.939 -1.94041 -0.0785581 0
M  V30 2691 C 247.069 -3.46202 0.27594 0
M  V30 2692 C 246.023 -4.09444 1.24656 0
M  V30 2693 C 245.349 -5.31725 0.563258 0
M  V30 2694 C 246.649 -4.52863 2.60217 0
M  V30 2695 H 248.343 -2.44622 1.72628 0
M  V30 2696 H 245.889 -1.17571 0.831451 0
M  V30 2697 H 247.842 -4.21372 0.0486149 0
M  V30 2698 H 246.566 -3.1973 -0.666331 0
M  V30 2699 H 245.225 -3.36284 1.45974 0
M  V30 2700 H 244.873 -5.0153 -0.384235 0
M  V30 2701 H 244.573 -5.74991 1.21075 0
M  V30 2702 H 246.097 -6.09624 0.34503 0
M  V30 2703 H 247.511 -5.19294 2.42913 0
M  V30 2704 H 245.908 -5.06986 3.21068 0
M  V30 2705 H 246.978 -3.65656 3.18471 0
M  V30 2706 N 248.321 -0.919034 -1.28029 0
M  V30 2707 C 249.251 -0.428581 -2.29533 0
M  V30 2708 C 250.232 0.50659 -1.62381 0
M  V30 2709 O 251.417 0.413195 -1.89753 0
M  V30 2710 C 248.547 0.327388 -3.45753 0
M  V30 2711 C 247.501 -0.519137 -4.2484 0
M  V30 2712 C 246.827 0.365486 -5.33449 0
M  V30 2713 C 248.127 -1.77914 -4.91064 0
M  V30 2714 H 249.821 -1.27687 -2.70807 0
M  V30 2715 H 247.367 -0.615428 -1.30186 0
M  V30 2716 H 249.32 0.681378 -4.15855 0
M  V30 2717 H 248.044 1.20963 -3.03374 0
M  V30 2718 H 246.703 -0.855717 -3.56473 0
M  V30 2719 H 246.351 1.24642 -4.87312 0
M  V30 2720 H 246.051 -0.197356 -5.87268 0
M  V30 2721 H 247.575 0.715241 -6.06396 0
M  V30 2722 H 248.989 -1.49374 -5.53498 0
M  V30 2723 H 247.386 -2.2848 -5.54903 0
M  V30 2724 H 248.456 -2.50382 -4.15255 0
M  V30 2725 N 249.799 1.42003 -0.683588 0
M  V30 2726 C 251.076 1.95112 -0.138075 0
M  V30 2727 C 251.456 1.62359 1.34918 0
M  V30 2728 O 250.804 0.924311 2.08971 0
M  V30 2729 C 251.014 3.46505 -0.416581 0
M  V30 2730 C 252.362 4.23254 -0.337834 0
M  V30 2731 O 253.386 3.54468 -0.35082 0
M  V30 2732 O 252.245 5.45743 -0.287596 0
M  V30 2733 H 249.339 0.826961 -0.00797996 0
M  V30 2734 H 251.885 1.51784 -0.758924 0
M  V30 2735 H 250.657 3.63582 -1.4465 0
M  V30 2736 H 250.28 3.969 0.235839 0
M  V30 2737 N 251.277 0.427512 1.51691 0
M  V30 2738 C 252.207 -0.3796 2.30394 0
M  V30 2739 C 253.188 -1.02982 1.35384 0
M  V30 2740 O 254.373 -1.03534 1.643 0
M  V30 2741 C 251.503 -1.48649 3.1388 0
M  V30 2742 C 250.457 -0.960294 4.17088 0
M  V30 2743 C 249.783 -2.16219 4.89033 0
M  V30 2744 C 251.083 -0.00153679 5.223 0
M  V30 2745 H 252.777 0.277164 2.98114 0
M  V30 2746 H 250.323 0.134739 1.43368 0
M  V30 2747 H 252.276 -2.05826 3.67714 0
M  V30 2748 H 251 -2.1714 2.43962 0
M  V30 2749 H 249.659 -0.410806 3.64291 0
M  V30 2750 H 249.307 -2.83307 4.15628 0
M  V30 2751 H 249.007 -1.81654 5.58816 0
M  V30 2752 H 250.531 -2.73968 5.45687 0
M  V30 2753 H 251.945 -0.482687 5.71264 0
M  V30 2754 H 250.342 0.256199 5.99553 0
M  V30 2755 H 251.412 0.938174 4.75738 0
M  V30 2756 N 252.755 -1.56801 0.158532 0
M  V30 2757 C 253.702 -2.17337 -0.776729 0
M  V30 2758 C 254.672 -1.1096 -1.23601 0
M  V30 2759 O 255.857 -1.39054 -1.30647 0
M  V30 2760 C 252.997 -2.80822 -2.00582 0
M  V30 2761 C 252.11 -4.01624 -1.59129 0
M  V30 2762 C 251.245 -4.53072 -2.77306 0
M  V30 2763 C 250.284 -5.66314 -2.32282 0
M  V30 2764 N 249.421 -6.12329 -3.43508 0
M  V30 2765 H 254.261 -2.96918 -0.253701 0
M  V30 2766 H 251.798 -1.46661 -0.113504 0
M  V30 2767 H 253.756 -3.15779 -2.72652 0
M  V30 2768 H 252.386 -2.03866 -2.50277 0
M  V30 2769 H 251.438 -3.72571 -0.767806 0
M  V30 2770 H 252.75 -4.83633 -1.2207 0
M  V30 2771 H 251.904 -4.90145 -3.57551 0
M  V30 2772 H 250.643 -3.70095 -3.17617 0
M  V30 2773 H 249.648 -5.28806 -1.5048 0
M  V30 2774 H 250.873 -6.51085 -1.93043 0
M  V30 2775 H 248.819 -5.32284 -3.83418 0
M  V30 2776 H 248.736 -6.89293 -3.105 0
M  V30 2777 H 250.004 -6.5405 -4.24075 0
M  V30 2778 N 254.233 0.115231 -1.57178 0
M  V30 2779 C 255.165 1.16694 -1.97269 0
M  V30 2780 C 256.178 1.37445 -0.872502 0
M  V30 2781 O 257.367 1.36454 -1.15077 0
M  V30 2782 C 254.467 2.52627 -2.25905 0
M  V30 2783 C 253.64 2.52427 -3.57211 0
M  V30 2784 C 252.699 3.70134 -3.74016 0
M  V30 2785 O 251.725 3.53546 -4.46087 0
M  V30 2786 N 252.927 4.88844 -3.13068 0
M  V30 2787 H 255.692 0.82588 -2.88096 0
M  V30 2788 H 253.253 0.304461 -1.59011 0
M  V30 2789 H 255.245 3.29937 -2.34359 0
M  V30 2790 H 253.815 2.789 -1.41186 0
M  V30 2791 H 253.035 1.60805 -3.5991 0
M  V30 2792 H 254.323 2.49353 -4.43509 0
M  V30 2793 H 253.721 5.05225 -2.54489 0
M  V30 2794 H 252.278 5.63817 -3.27037 0
M  V30 2795 N 255.711 1.52812 0.385517 0
M  V30 2796 C 256.644 1.72592 1.49289 0
M  V30 2797 C 257.622 0.573819 1.52138 0
M  V30 2798 O 258.806 0.80404 1.70492 0
M  V30 2799 C 255.933 1.78669 2.87741 0
M  V30 2800 C 254.979 3.00455 3.02703 0
M  V30 2801 S 255.812 4.60366 2.73538 0
M  V30 2802 C 256.968 4.69263 4.14177 0
M  V30 2803 H 257.201 2.66248 1.32285 0
M  V30 2804 H 254.734 1.43148 0.578611 0
M  V30 2805 H 256.692 1.82855 3.67524 0
M  V30 2806 H 255.353 0.861 3.02069 0
M  V30 2807 H 254.546 3.01258 4.04054 0
M  V30 2808 H 254.148 2.94278 2.30817 0
M  V30 2809 H 256.44 4.48092 5.08153 0
M  V30 2810 H 257.383 5.71276 4.18388 0
M  V30 2811 H 257.791 3.98072 4.00249 0
M  V30 2812 N 257.189 -0.644168 1.43834 0
M  V30 2813 C 258.099 -1.78563 1.52159 0
M  V30 2814 C 259.115 -1.69147 0.408069 0
M  V30 2815 O 260.291 -1.90156 0.663524 0
M  V30 2816 C 257.356 -3.14888 1.45073 0
M  V30 2817 C 256.417 -3.36034 2.6717 0
M  V30 2818 C 255.65 -4.65855 2.60413 0
M  V30 2819 O 255.873 -5.45805 1.65689 0
M  V30 2820 O 254.807 -4.88918 3.5106 0
M  V30 2821 H 258.633 -1.74494 2.48567 0
M  V30 2822 H 256.218 -0.80378 1.25935 0
M  V30 2823 H 258.1 -3.96179 1.43597 0
M  V30 2824 H 256.775 -3.19528 0.518037 0
M  V30 2825 H 255.682 -2.54472 2.74217 0
M  V30 2826 H 257.015 -3.36247 3.59442 0
M  V30 2827 N 258.668 -1.30515 -0.883378 0
M  V30 2828 C 259.578 -1.18959 -2.02203 0
M  V30 2829 C 260.594 -0.109172 -1.73657 0
M  V30 2830 O 261.77 -0.324413 -1.9877 0
M  V30 2831 C 258.835 -0.883871 -3.35244 0
M  V30 2832 C 257.896 -2.04982 -3.77201 0
M  V30 2833 C 257.129 -1.75859 -5.03894 0
M  V30 2834 O 257.352 -0.687276 -5.66244 0
M  V30 2835 O 256.286 -2.61146 -5.42297 0
M  V30 2836 H 260.112 -2.14616 -2.1488 0
M  V30 2837 H 257.697 -1.10124 -1.0096 0
M  V30 2838 H 259.579 -0.728644 -4.15053 0
M  V30 2839 H 258.254 0.0427798 -3.23672 0
M  V30 2840 H 257.161 -2.26038 -2.9809 0
M  V30 2841 H 258.494 -2.95825 -3.93381 0
M  V30 2842 N 260.146 1.09593 -1.13257 0
M  V30 2843 C 261.557 1.63229 -0.906274 0
M  V30 2844 C 261.908 1.8811 0.557578 0
M  V30 2845 O 261.033 1.62953 1.42391 0
M  V30 2846 C 261.628 2.96535 -1.63867 0
M  V30 2847 C 260.187 3.47003 -1.45828 0
M  V30 2848 C 259.334 2.2145 -1.66898 0
M  V30 2849 H 262.285 0.92978 -1.28611 0
M  V30 2850 H 262.306 3.64411 -1.09476 0
M  V30 2851 H 261.818 2.78394 -2.70404 0
M  V30 2852 H 259.919 3.70272 -0.415848 0
M  V30 2853 H 260.032 4.24551 -2.2202 0
M  V30 2854 H 258.396 2.30022 -1.09371 0
M  V30 2855 H 259.179 2.0583 -2.74752 0
M  V30 2856 N 261.624 0.925811 1.2754 0
M  V30 2857 C 262.864 0.572521 1.96218 0
M  V30 2858 C 263.228 -0.869719 1.71172 0
M  V30 2859 O 264.429 -1.33119 2.33523 0
M  V30 2860 C 262.7 0.887325 3.4621 0
M  V30 2861 S 264.259 0.642266 4.34074 0
M  V30 2862 H 261.077 0.211403 0.678845 0
M  V30 2863 H 263.679 1.19384 1.54815 0
M  V30 2864 H 262.383 1.93469 3.61936 0
M  V30 2865 H 261.914 0.255123 3.92572 0
M  V30 2866 H 263.929 -0.500822 4.93666 0
M  V30 2867 N 263.102 -1.41638 0.69111 0
M  V30 2868 C 264.518 -1.55435 0.362224 0
M  V30 2869 C 264.718 -1.66754 -1.13117 0
M  V30 2870 O 263.774 -1.64348 -1.91692 0
M  V30 2871 C 265.087 -2.79588 1.10684 0
M  V30 2872 C 266.635 -2.9338 1.09075 0
M  V30 2873 C 267.11 -4.20414 1.81703 0
M  V30 2874 N 268.601 -4.27362 1.7865 0
M  V30 2875 C 269.336 -5.24507 2.31689 0
M  V30 2876 N 268.832 -6.27708 2.93179 0
M  V30 2877 N 270.625 -5.16416 2.2197 0
M  V30 2878 H 262.776 -1.32536 1.65976 0
M  V30 2879 H 265.039 -0.639115 0.700168 0
M  V30 2880 H 264.745 -2.77419 2.16175 0
M  V30 2881 H 264.619 -3.70973 0.682545 0
M  V30 2882 H 267.006 -2.95067 0.0441238 0
M  V30 2883 H 267.087 -2.0318 1.55407 0
M  V30 2884 H 266.731 -4.19488 2.86343 0
M  V30 2885 H 266.661 -5.09578 1.32808 0
M  V30 2886 H 269.152 -3.53415 1.33815 0
M  V30 2887 H 269.465 -6.98217 3.31229 0
M  V30 2888 H 267.81 -6.28223 2.97255 0
M  V30 2889 H 271.001 -4.34716 1.73607 0
M  V30 2890 H 271.174 -5.91958 2.63609 0
M  V30 2891 N 264.58 -0.43555 -1.51462 0
M  V30 2892 C 265.827 0.131514 -2.02072 0
M  V30 2893 C 266.155 1.42868 -1.31981 0
M  V30 2894 O 265.41 1.91076 -0.422883 0
M  V30 2895 C 265.709 0.39942 -3.55161 0
M  V30 2896 C 265.375 -0.81172 -4.43533 0
M  V30 2897 C 264.037 -1.14387 -4.67407 0
M  V30 2898 C 266.389 -1.61976 -4.95392 0
M  V30 2899 C 263.717 -2.28477 -5.40384 0
M  V30 2900 C 266.069 -2.75164 -5.6962 0
M  V30 2901 C 264.733 -3.08835 -5.91758 0
M  V30 2902 H 264.003 0.0481244 -0.739436 0
M  V30 2903 H 266.65 -0.58238 -1.8243 0
M  V30 2904 H 264.955 1.19519 -3.73125 0
M  V30 2905 H 266.652 0.85157 -3.91854 0
M  V30 2906 H 263.242 -0.542898 -4.25148 0
M  V30 2907 H 267.426 -1.37637 -4.76833 0
M  V30 2908 H 262.682 -2.5488 -5.55739 0
M  V30 2909 H 266.856 -3.38147 -6.08793 0
M  V30 2910 H 264.483 -3.97353 -6.48086 0
M  V30 2911 O 266.097 1.58538 -0.30787 0
M  V30 2912 H 266.788 1.9201 0.255316 0
M  V30 END ATOM
M  V30 BEGIN BOND
M  V30 END BOND
M  V30 END CTAB
M  END
$$$$
