drugbank_drug|DB06752 sp|P14080|PAPA2_CARPA Chymopapain OS=Carica papaya OX=3649 PE=1 SV=2
 OpenBabel12092119123D

  0  0  0     0  0            999 V3000
M  V30 BEGIN CTAB
M  V30 COUNTS 5480 5549 0 0 0
M  V30 BEGIN ATOM
M  V30 1 H -0.908 1.98254 -0.117106 0
M  V30 2 N 0 1.576 0 0
M  V30 3 C 0.933 2.03868 1.02534 0
M  V30 4 C 1.911 0.928543 1.3348 0
M  V30 5 O 3.095 1.19667 1.45644 0
M  V30 6 C 0.222 2.43627 2.35294 0
M  V30 7 C -0.732 3.65373 2.2001 0
M  V30 8 S 0.101 5.13292 1.52614 0
M  V30 9 C 1.257 5.56322 2.86805 0
M  V30 10 H 1.49 2.90518 0.631377 0
M  V30 11 H -0.977 1.52953 0.210867 0
M  V30 12 H 0.981 2.67203 3.11629 0
M  V30 13 H -0.358 1.57376 2.7183 0
M  V30 14 H -1.165 3.90944 3.18086 0
M  V30 15 H -1.563 3.418 1.51819 0
M  V30 16 H 0.729 5.58782 3.83104 0
M  V30 17 H 1.672 6.56266 2.65933 0
M  V30 18 H 2.08 4.83886 2.90714 0
M  V30 19 N 1.4781 -0.272755 1.55222 0
M  V30 20 C 2.4411 -1.32041 1.87344 0
M  V30 21 C 3.4411 -1.42342 0.74803 0
M  V30 22 O 4.6311 -1.41488 1.0162 0
M  V30 23 C 1.7631 -2.70173 2.07893 0
M  V30 24 H 2.9561 -1.04789 2.80997 0
M  V30 25 H 0.5091 -0.51083 1.47717 0
M  V30 26 H 1.2441 -3.02605 1.16622 0
M  V30 27 H 1.0291 -2.64082 2.89833 0
M  V30 28 H 2.5191 -3.45869 2.34017 0
M  V30 29 N 2.9562 -1.48159 -0.537278 0
M  V30 30 C 4.1842 -1.59454 -1.31841 0
M  V30 31 C 4.5992 -0.252065 -1.8711 0
M  V30 32 O 3.9562 0.757621 -1.66031 0
M  V30 33 C 4.0072 -2.63546 -2.47439 0
M  V30 34 O 3.7282 -3.92583 -1.94449 0
M  V30 35 C 5.2292 -2.85212 -3.39366 0
M  V30 36 H 2.4492 -0.53785 -0.401196 0
M  V30 37 H 4.9932 -1.93932 -0.648891 0
M  V30 38 H 3.1482 -2.31946 -3.1029 0
M  V30 39 H 3.5622 -4.49629 -2.70063 0
M  V30 40 H 5.0362 -3.61863 -4.16844 0
M  V30 41 H 5.5132 -1.93765 -3.94147 0
M  V30 42 H 6.1192 -3.18086 -2.82314 0
M  V30 43 N 4.4343 0.785586 -1.36625 0
M  V30 44 C 5.3673 1.90509 -1.25625 0
M  V30 45 C 6.3453 1.62 -0.139607 0
M  V30 46 O 7.5293 1.8591 -0.31141 0
M  V30 47 C 4.6563 3.25419 -0.939158 0
M  V30 48 C 3.7023 3.72856 -2.07077 0
M  V30 49 S 4.5353 3.88162 -3.68904 0
M  V30 50 C 5.6913 5.25942 -3.39317 0
M  V30 51 H 5.9243 1.99549 -2.20381 0
M  V30 52 H 3.4573 0.945226 -1.22085 0
M  V30 53 H 5.4153 4.03346 -0.763029 0
M  V30 54 H 4.0763 3.14099 -0.00931402 0
M  V30 55 H 3.2693 4.70624 -1.80357 0
M  V30 56 H 2.8713 3.01989 -2.20632 0
M  V30 57 H 5.1633 6.10651 -2.93447 0
M  V30 58 H 6.1063 5.57668 -4.36363 0
M  V30 59 H 6.5143 4.93224 -2.74573 0
M  V30 60 N 5.9124 1.20967 1.01018 0
M  V30 61 C 7.1374 1.0503 1.78839 0
M  V30 62 C 7.5624 -0.395752 1.8389 0
M  V30 63 O 6.9204 -1.28529 1.27867 0
M  V30 64 C 6.9684 1.64602 3.2084 0
M  V30 65 O 6.0724 0.887988 4.02726 0
M  V30 66 H 5.4134 0.369987 0.551367 0
M  V30 67 H 7.9434 1.60399 1.27018 0
M  V30 68 H 7.9534 1.68607 3.71532 0
M  V30 69 H 6.6284 2.69841 3.16479 0
M  V30 70 H 5.2054 0.922648 3.61305 0
M  V30 71 N 7.3905 -1.2043 1.01659 0
M  V30 72 C 8.6155 -1.94318 0.724942 0
M  V30 73 C 9.0405 -1.74266 -0.708034 0
M  V30 74 O 8.3985 -1.03694 -1.48719 0
M  V30 75 C 8.4465 -3.44486 1.06591 0
M  V30 76 O 7.5505 -4.12017 0.177599 0
M  V30 77 H 6.8915 -0.60708 0.26898 0
M  V30 78 H 9.4215 -1.52861 1.35995 0
M  V30 79 H 9.4315 -3.95106 1.01762 0
M  V30 80 H 8.1065 -3.58404 2.10997 0
M  V30 81 H 6.6835 -3.71821 0.283421 0
M  V30 82 N 8.8686 -0.792821 -1.36206 0
M  V30 83 C 10.1176 -0.363353 -1.984 0
M  V30 84 C 10.4306 1.07172 -1.63626 0
M  V30 85 O 11.6366 1.60362 -2.19081 0
M  V30 86 C 10.0926 -0.59872 -3.54885 0
M  V30 87 C 9.7006 -2.04543 -3.9858 0
M  V30 88 C 11.4446 -0.233926 -4.23855 0
M  V30 89 C 9.3516 -2.22727 -5.47856 0
M  V30 90 H 8.2816 -0.13212 -0.742334 0
M  V30 91 H 10.9326 -0.974935 -1.55458 0
M  V30 92 H 9.3146 0.0826222 -3.95914 0
M  V30 93 H 10.4886 -2.76345 -3.68741 0
M  V30 94 H 8.8036 -2.36879 -3.42458 0
M  V30 95 H 11.4006 -0.348027 -5.33566 0
M  V30 96 H 11.7436 0.818351 -4.08177 0
M  V30 97 H 12.2766 -0.868639 -3.882 0
M  V30 98 H 9.0156 -3.2635 -5.68486 0
M  V30 99 H 8.5356 -1.55434 -5.7931 0
M  V30 100 H 10.2146 -2.03607 -6.14128 0
M  V30 101 N 10.3467 1.47872 -0.545128 0
M  V30 102 C 11.5717 2.07391 -0.0190611 0
M  V30 103 C 11.9967 1.39688 1.25971 0
M  V30 104 O 11.3547 0.467816 1.7516 0
M  V30 105 C 11.4027 3.60188 0.172335 0
M  V30 106 O 10.5067 3.9339 1.23766 0
M  V30 107 H 9.8477 0.662411 -0.0459059 0
M  V30 108 H 12.3777 1.90066 -0.757365 0
M  V30 109 H 12.3877 4.06129 0.390305 0
M  V30 110 H 11.0627 4.08865 -0.761725 0
M  V30 111 H 9.6397 3.5921 1.00114 0
M  V30 112 N 11.8248 0.280983 1.55075 0
M  V30 113 C 12.7718 -0.603937 2.22758 0
M  V30 114 C 13.7418 -1.1452 1.20309 0
M  V30 115 O 14.9268 -1.19343 1.48869 0
M  V30 116 C 12.0668 -1.77947 2.95684 0
M  V30 117 C 11.1798 -1.2715 4.12864 0
M  V30 118 C 10.3148 -2.4093 4.7342 0
M  V30 119 C 9.3538 -1.87165 5.82783 0
M  V30 120 N 8.4908 -2.94441 6.37377 0
M  V30 121 H 13.3308 -0.020124 2.97993 0
M  V30 122 H 10.8678 0.00183425 1.471 0
M  V30 123 H 12.8258 -2.47055 3.36184 0
M  V30 124 H 11.4558 -2.33522 2.22861 0
M  V30 125 H 10.5078 -0.473331 3.77444 0
M  V30 126 H 11.8198 -0.837751 4.91715 0
M  V30 127 H 10.9738 -3.18021 5.1667 0
M  V30 128 H 9.7128 -2.87623 3.93859 0
M  V30 129 H 8.7178 -1.08556 5.38976 0
M  V30 130 H 9.9428 -1.41401 6.64216 0
M  V30 131 H 7.8888 -3.40505 5.60707 0
M  V30 132 H 7.8058 -2.55501 7.11516 0
M  V30 133 H 9.0738 -3.71489 6.85285 0
M  V30 134 N 13.3029 -1.57598 0.00835791 0
M  V30 135 C 14.5519 -1.90107 -0.673968 0
M  V30 136 C 14.8649 -0.884275 -1.7447 0
M  V30 137 O 16.0709 -1.09987 -2.48224 0
M  V30 138 C 14.5269 -3.37497 -1.24995 0
M  V30 139 C 14.1349 -4.47491 -0.2136 0
M  V30 140 C 15.8789 -3.79104 -1.90999 0
M  V30 141 C 13.7859 -5.85963 -0.80005 0
M  V30 142 H 12.7159 -0.709393 -0.255495 0
M  V30 143 H 15.3669 -1.83365 0.0702693 0
M  V30 144 H 13.7489 -3.39102 -2.04513 0
M  V30 145 H 14.9229 -4.57414 0.557596 0
M  V30 146 H 13.2379 -4.14956 0.346474 0
M  V30 147 H 15.8349 -4.79901 -2.35795 0
M  V30 148 H 16.1779 -3.1306 -2.74407 0
M  V30 149 H 16.7109 -3.79833 -1.18203 0
M  V30 150 H 13.4499 -6.555 -0.00456708 0
M  V30 151 H 12.9699 -5.79687 -1.54021 0
M  V30 152 H 14.6489 -6.33884 -1.29615 0
M  V30 153 N 14.781 0.264519 -1.55364 0
M  V30 154 C 16.03 0.992812 -1.75574 0
M  V30 155 C 16.343 1.87142 -0.568979 0
M  V30 156 O 17.549 2.63513 -0.653682 0
M  V30 157 C 16.005 1.81519 -3.10771 0
M  V30 158 C 15.613 0.984839 -4.37041 0
M  V30 159 C 17.357 2.53727 -3.40327 0
M  V30 160 C 15.264 1.80209 -5.63275 0
M  V30 161 H 14.194 0.374412 -0.65447 0
M  V30 162 H 16.845 0.248138 -1.81815 0
M  V30 163 H 15.227 2.60115 -2.98591 0
M  V30 164 H 16.401 0.242455 -4.60162 0
M  V30 165 H 14.716 0.37691 -4.14691 0
M  V30 166 H 17.313 3.15292 -4.3185 0
M  V30 167 H 17.656 3.24447 -2.60845 0
M  V30 168 H 18.189 1.82156 -3.53644 0
M  V30 169 H 14.928 1.13896 -6.45529 0
M  V30 170 H 14.448 2.52022 -5.44284 0
M  V30 171 H 16.127 2.37364 -6.01887 0
M  V30 172 N 16.2591 1.48442 0.529413 0
M  V30 173 C 17.5061 1.56488 1.28521 0
M  V30 174 C 17.8341 0.239042 1.93025 0
M  V30 175 O 17.0891 -0.770713 1.79885 0
M  V30 176 C 17.3881 2.6523 2.39558 0
M  V30 177 C 17.0541 4.07648 1.92702 0
M  V30 178 C 15.7161 4.46411 1.79641 0
M  V30 179 C 18.0681 4.96896 1.573 0
M  V30 180 C 15.3961 5.72226 1.29514 0
M  V30 181 C 17.7481 6.23202 1.08636 0
M  V30 182 C 16.4121 6.60821 0.941919 0
M  V30 183 H 15.6821 0.572631 0.470292 0
M  V30 184 H 18.3291 1.82161 0.59072 0
M  V30 185 H 16.6341 2.33419 3.14679 0
M  V30 186 H 18.3311 2.68671 2.97686 0
M  V30 187 H 14.9211 3.77036 2.03819 0
M  V30 188 H 19.1051 4.67626 1.66251 0
M  V30 189 H 14.3611 6.00097 1.17019 0
M  V30 190 H 18.5351 6.91753 0.803136 0
M  V30 191 H 16.1621 7.58198 0.5513 0
M  V30 192 N 17.7372 -0.778329 1.37039 0
M  V30 193 C 18.6672 -1.90546 1.34962 0
M  V30 194 C 19.6482 -1.68681 0.219274 0
M  V30 195 O 20.8332 -1.89634 0.418624 0
M  V30 196 C 17.9632 -3.27734 1.14925 0
M  V30 197 C 16.9172 -3.64147 2.24902 0
M  V30 198 C 16.2432 -4.99806 1.89996 0
M  V30 199 C 17.5432 -3.71579 3.67051 0
M  V30 200 H 19.2372 -1.92541 2.29277 0
M  V30 201 H 16.7832 -0.924948 1.10366 0
M  V30 202 H 18.7362 -4.06215 1.12104 0
M  V30 203 H 17.4602 -3.26154 0.170631 0
M  V30 204 H 16.1192 -2.8797 2.26868 0
M  V30 205 H 15.7672 -4.94759 0.906796 0
M  V30 206 H 15.4672 -5.25139 2.63634 0
M  V30 207 H 16.9912 -5.80694 1.88749 0
M  V30 208 H 18.4052 -4.40227 3.67251 0
M  V30 209 H 16.8022 -4.08405 4.39688 0
M  V30 210 H 17.8722 -2.72404 4.01154 0
M  V30 211 N 19.2153 -1.21501 -1.00376 0
M  V30 212 C 20.1783 -0.976927 -2.07337 0
M  V30 213 C 21.1783 0.0525322 -1.60714 0
M  V30 214 O 22.3683 -0.184869 -1.73216 0
M  V30 215 C 19.5003 -0.473423 -3.37597 0
M  V30 216 H 20.6933 -1.92587 -2.29892 0
M  V30 217 H 18.2463 -1.03217 -1.17371 0
M  V30 218 H 18.9813 0.480379 -3.20722 0
M  V30 219 H 18.7663 -1.216 -3.72768 0
M  V30 220 H 20.2563 -0.32675 -4.1632 0
M  V30 221 N 20.6934 1.19889 -1.02296 0
M  V30 222 C 21.9214 1.9339 -0.735399 0
M  V30 223 C 22.3364 1.75148 0.704887 0
M  V30 224 O 21.6934 1.06954 1.47875 0
M  V30 225 C 21.7444 3.45313 -1.06962 0
M  V30 226 O 21.4654 3.62964 -2.45334 0
M  V30 227 C 22.9664 4.35948 -0.804021 0
M  V30 228 H 20.1864 0.61448 -0.269546 0
M  V30 229 H 22.7304 1.522 -1.36585 0
M  V30 230 H 20.8854 3.84359 -0.484455 0
M  V30 231 H 21.2994 4.56886 -2.57595 0
M  V30 232 H 22.7734 5.41174 -1.0879 0
M  V30 233 H 23.2504 4.3842 0.261691 0
M  V30 234 H 23.8564 4.02574 -1.37164 0
M  V30 235 N 22.1715 0.800033 1.35784 0
M  V30 236 C 23.4115 0.382891 2.00782 0
M  V30 237 C 23.7755 -1.02891 1.62103 0
M  V30 238 O 24.9765 -1.54771 2.19771 0
M  V30 239 C 23.2475 0.553299 3.53091 0
M  V30 240 S 24.8065 0.225608 4.3822 0
M  V30 241 H 21.6245 0.145737 0.695904 0
M  V30 242 H 24.2265 1.04085 1.65489 0
M  V30 243 H 22.9305 1.58091 3.78729 0
M  V30 244 H 22.4615 -0.120214 3.93216 0
M  V30 245 H 24.4765 -0.969074 4.86645 0
M  V30 246 N 23.6496 -1.47581 0.552962 0
M  V30 247 C 24.5796 -2.32762 -0.185451 0
M  V30 248 C 25.5606 -1.43527 -0.912905 0
M  V30 249 O 26.7456 -1.72388 -0.894201 0
M  V30 250 C 23.8756 -3.25219 -1.21859 0
M  V30 251 C 22.8296 -4.23661 -0.607864 0
M  V30 252 C 22.1556 -5.05413 -1.74533 0
M  V30 253 C 23.4556 -5.20481 0.435582 0
M  V30 254 H 25.1496 -2.94749 0.525684 0
M  V30 255 H 22.6956 -1.41738 0.254251 0
M  V30 256 H 24.6486 -3.8365 -1.7433 0
M  V30 257 H 23.3726 -2.61279 -1.95961 0
M  V30 258 H 22.0316 -3.66451 -0.104489 0
M  V30 259 H 21.6796 -4.3788 -2.47529 0
M  V30 260 H 21.3796 -5.72059 -1.34249 0
M  V30 261 H 22.9036 -5.66701 -2.27338 0
M  V30 262 H 24.3176 -5.733 -0.00290157 0
M  V30 263 H 22.7146 -5.95305 0.757067 0
M  V30 264 H 23.7846 -4.66217 1.33303 0
M  V30 265 N 25.1277 -0.289203 -1.54924 0
M  V30 266 C 26.3767 0.324231 -1.99077 0
M  V30 267 C 26.6897 1.5591 -1.18117 0
M  V30 268 O 27.8957 2.24637 -1.52481 0
M  V30 269 C 26.3517 0.628209 -3.54375 0
M  V30 270 C 25.9597 -0.587647 -4.44129 0
M  V30 271 C 27.7037 1.20349 -4.07083 0
M  V30 272 C 25.6107 -0.257475 -5.90839 0
M  V30 273 H 24.5407 0.124924 -0.743579 0
M  V30 274 H 27.1917 -0.396063 -1.79175 0
M  V30 275 H 25.5737 1.40778 -3.70132 0
M  V30 276 H 26.7477 -1.36418 -4.40144 0
M  V30 277 H 25.0627 -1.08074 -4.0213 0
M  V30 278 H 27.6597 1.46456 -5.14252 0
M  V30 279 H 28.0027 2.14195 -3.56968 0
M  V30 280 H 28.5357 0.485889 -3.94821 0
M  V30 281 H 25.2747 -1.16419 -6.45079 0
M  V30 282 H 24.7947 0.482018 -5.9786 0
M  V30 283 H 26.4737 0.145238 -6.46837 0
M  V30 284 N 26.6058 1.57591 -0.0167156 0
M  V30 285 C 27.8548 1.90461 0.663877 0
M  V30 286 C 28.1678 0.893515 1.73999 0
M  V30 287 O 29.3738 1.11302 2.47637 0
M  V30 288 C 27.8298 3.38155 1.23204 0
M  V30 289 C 27.4378 4.47597 0.189866 0
M  V30 290 C 29.1818 3.80111 1.88986 0
M  V30 291 C 27.0888 5.86379 0.768964 0
M  V30 292 H 26.0188 0.710738 0.251729 0
M  V30 293 H 28.6698 1.83326 -0.0799926 0
M  V30 294 H 27.0518 3.40182 2.02712 0
M  V30 295 H 28.2258 4.57112 -0.581846 0
M  V30 296 H 26.5408 4.14766 -0.368475 0
M  V30 297 H 29.1378 4.81145 2.33247 0
M  V30 298 H 29.4808 3.14511 2.72743 0
M  V30 299 H 30.0138 3.80454 1.16187 0
M  V30 300 H 26.7528 6.55493 -0.0301957 0
M  V30 301 H 26.2728 5.80496 1.50945 0
M  V30 302 H 27.9518 6.34563 1.26251 0
M  V30 303 N 28.0839 -0.256276 1.55502 0
M  V30 304 C 29.0339 -1.31981 1.85916 0
M  V30 305 C 30.0179 -1.43927 0.719296 0
M  V30 306 O 31.2099 -1.47326 0.981019 0
M  V30 307 C 28.3389 -2.67703 2.14918 0
M  V30 308 C 27.4249 -2.59801 3.35208 0
M  V30 309 N 27.8159 -2.21524 4.54709 0
M  V30 310 C 26.1139 -2.90832 3.38131 0
M  V30 311 C 26.8149 -2.24024 5.36832 0
M  V30 312 N 25.7909 -2.63158 4.75656 0
M  V30 313 H 29.5929 -1.01423 2.75845 0
M  V30 314 H 27.1069 -0.464911 1.55603 0
M  V30 315 H 29.1039 -3.44445 2.34869 0
M  V30 316 H 27.7639 -2.99137 1.26282 0
M  V30 317 H 28.7749 -1.93223 4.80505 0
M  V30 318 H 25.4519 -3.26867 2.59739 0
M  V30 319 H 26.8419 -1.9685 6.42417 0
M  V30 320 N 29.562 -1.4872 -0.521534 0
M  V30 321 C 30.495 -1.58451 -1.64221 0
M  V30 322 C 31.473 -0.434513 -1.56687 0
M  V30 323 O 32.657 -0.647275 -1.77038 0
M  V30 324 C 29.784 -1.52037 -3.02659 0
M  V30 325 C 28.83 -2.71981 -3.28525 0
M  V30 326 S 29.663 -4.33869 -3.13876 0
M  V30 327 C 30.819 -4.30067 -4.54745 0
M  V30 328 H 31.052 -2.53256 -1.55719 0
M  V30 329 H 28.585 -1.37358 -0.705143 0
M  V30 330 H 30.543 -1.49023 -3.82495 0
M  V30 331 H 29.204 -0.585541 -3.08594 0
M  V30 332 H 28.397 -2.63656 -4.29536 0
M  V30 333 H 27.999 -2.72302 -2.56374 0
M  V30 334 H 30.291 -4.00521 -5.46433 0
M  V30 335 H 31.234 -5.31287 -4.68123 0
M  V30 336 H 31.642 -3.60419 -4.34463 0
M  V30 337 N 31.0401 0.771051 -1.3745 0
M  V30 338 C 32.2881 1.52661 -1.32435 0
M  V30 339 C 32.6091 1.9479 0.0905024 0
M  V30 340 O 31.8791 1.66348 1.03466 0
M  V30 341 H 30.4591 0.566218 -0.487244 0
M  V30 342 H 33.1211 0.917636 -1.71946 0
M  V30 343 H 32.2171 2.42568 -1.96385 0
M  V30 344 N 32.5182 1.22032 0.997298 0
M  V30 345 C 33.4482 1.01065 2.10495 0
M  V30 346 C 34.4292 -0.0669542 1.69968 0
M  V30 347 O 35.6142 0.0943987 1.9397 0
M  V30 348 C 32.7442 0.582874 3.42374 0
M  V30 349 C 31.6982 1.60592 3.96729 0
M  V30 350 C 31.0242 1.03412 5.24605 0
M  V30 351 C 32.3242 2.99478 4.27914 0
M  V30 352 H 34.0182 1.93708 2.28292 0
M  V30 353 H 31.5642 0.932761 1.09707 0
M  V30 354 H 33.5172 0.423332 4.19268 0
M  V30 355 H 32.2412 -0.379213 3.24391 0
M  V30 356 H 30.9002 1.75316 3.21963 0
M  V30 357 H 30.5482 0.063518 5.0296 0
M  V30 358 H 30.2482 1.71754 5.61938 0
M  V30 359 H 31.7722 0.886066 6.04137 0
M  V30 360 H 33.1862 2.88153 4.95622 0
M  V30 361 H 31.5832 3.64903 4.76409 0
M  V30 362 H 32.6532 3.49742 3.3587 0
M  V30 363 N 33.9963 -1.19345 1.0293 0
M  V30 364 C 35.2213 -1.93538 0.745511 0
M  V30 365 C 35.6463 -1.75007 -0.689511 0
M  V30 366 O 35.0043 -1.05265 -1.47611 0
M  V30 367 C 35.0523 -3.43336 1.10239 0
M  V30 368 O 34.1563 -4.11806 0.221289 0
M  V30 369 H 33.4973 -0.604193 0.275404 0
M  V30 370 H 36.0273 -1.5141 1.37609 0
M  V30 371 H 36.0373 -3.94004 1.05947 0
M  V30 372 H 34.7123 -3.56146 2.14786 0
M  V30 373 H 33.2893 -3.715 0.322842 0
M  V30 374 N 35.4744 -0.807222 -1.35358 0
M  V30 375 C 36.6994 -0.399309 -2.0352 0
M  V30 376 C 37.1244 0.981986 -1.60433 0
M  V30 377 O 36.4824 1.63601 -0.781299 0
M  V30 378 C 36.5304 -0.491552 -3.57234 0
M  V30 379 O 35.6344 0.494754 -4.09421 0
M  V30 380 H 34.9754 -0.166682 -0.642739 0
M  V30 381 H 37.5054 -1.09328 -1.72941 0
M  V30 382 H 37.5154 -0.361588 -4.06395 0
M  V30 383 H 36.1904 -1.49907 -3.87944 0
M  V30 384 H 34.7674 0.324977 -3.71481 0
M  V30 385 N 36.9525 1.47285 -0.560781 0
M  V30 386 C 37.9155 2.28535 0.174488 0
M  V30 387 C 38.9155 1.37153 0.839388 0
M  V30 388 O 40.1055 1.59748 0.694702 0
M  V30 389 C 37.2375 3.16934 1.25561 0
M  V30 390 H 38.4305 2.95012 -0.539262 0
M  V30 391 H 35.9835 1.53034 -0.317865 0
M  V30 392 H 36.7185 2.55157 2.00164 0
M  V30 393 H 36.5035 3.8419 0.783604 0
M  V30 394 H 37.9935 3.78143 1.77193 0
M  V30 395 N 38.4306 0.297415 1.54768 0
M  V30 396 C 39.7076 -0.365847 1.92148 0
M  V30 397 C 40.0876 -1.71975 1.22424 0
M  V30 398 O 39.4356 -2.25666 0.358739 0
M  V30 399 C 39.6456 -0.484056 3.45627 0
M  V30 400 C 40.9936 -0.756594 4.17805 0
M  V30 401 O 42.0176 -0.568007 3.51642 0
M  V30 402 O 40.8766 -1.11863 5.34929 0
M  V30 403 H 37.9706 -0.203919 0.801465 0
M  V30 404 H 40.5166 0.34521 1.66152 0
M  V30 405 H 39.2886 0.467865 3.88493 0
M  V30 406 H 38.9116 -1.24372 3.77647 0
M  V30 407 N 39.9087 -1.5758 0.0250728 0
M  V30 408 C 41.1557 -1.91633 -0.654444 0
M  V30 409 C 41.4837 -0.901103 -1.72367 0
M  V30 410 O 40.7387 0.0905647 -1.9549 0
M  V30 411 C 41.0377 -3.32421 -1.31268 0
M  V30 412 C 40.7037 -4.49344 -0.374223 0
M  V30 413 C 39.3657 -4.8106 -0.115911 0
M  V30 414 C 41.7177 -5.20498 0.270432 0
M  V30 415 C 39.0457 -5.8129 0.79493 0
M  V30 416 C 41.3977 -6.21699 1.1693 0
M  V30 417 C 40.0617 -6.51859 1.43655 0
M  V30 418 H 39.3317 -0.701236 -0.239478 0
M  V30 419 H 41.9787 -1.91307 0.0859734 0
M  V30 420 H 40.2837 -3.28989 -2.12775 0
M  V30 421 H 41.9807 -3.56038 -1.84494 0
M  V30 422 H 38.5707 -4.24579 -0.58573 0
M  V30 423 H 42.7547 -4.96229 0.0839194 0
M  V30 424 H 38.0107 -6.03005 1.00973 0
M  V30 425 H 42.1847 -6.75955 1.67504 0
M  V30 426 H 39.8117 -7.2934 2.144 0
M  V30 427 N 41.3868 0.248026 -1.55636 0
M  V30 428 C 42.6168 0.992367 -1.81206 0
M  V30 429 C 43.0248 1.7949 -0.598324 0
M  V30 430 O 42.3678 1.78292 0.442434 0
M  V30 431 C 42.4298 1.97926 -3.00109 0
M  V30 432 C 42.0938 1.36377 -4.36177 0
M  V30 433 C 43.0908 0.76682 -5.14214 0
M  V30 434 C 40.7758 1.38347 -4.82872 0
M  V30 435 C 42.7698 0.197778 -6.37093 0
M  V30 436 C 40.4568 0.810574 -6.057 0
M  V30 437 C 41.4548 0.218754 -6.8265 0
M  V30 438 O 41.1428 -0.345298 -8.03158 0
M  V30 439 H 40.8748 0.297704 -0.606917 0
M  V30 440 H 43.4288 0.276517 -2.0353 0
M  V30 441 H 41.6588 2.73339 -2.73538 0
M  V30 442 H 43.3478 2.58694 -3.12781 0
M  V30 443 H 44.1138 0.744114 -4.79258 0
M  V30 444 H 39.9928 1.8335 -4.2297 0
M  V30 445 H 43.5368 -0.264788 -6.97097 0
M  V30 446 H 39.4338 0.830604 -6.40134 0
M  V30 447 H 40.2018 -0.237055 -8.18157 0
M  V30 448 N 42.8649 1.48995 0.513639 0
M  V30 449 C 44.0929 1.61531 1.29288 0
M  V30 450 C 44.5079 0.281801 1.86685 0
M  V30 451 O 43.8649 -0.731111 1.67215 0
M  V30 452 C 43.9159 2.67449 2.43215 0
M  V30 453 O 43.6369 3.95626 1.88179 0
M  V30 454 C 45.1379 2.90575 3.34785 0
M  V30 455 H 42.3579 0.544165 0.392588 0
M  V30 456 H 44.9019 1.9494 0.617956 0
M  V30 457 H 43.0569 2.36853 3.0656 0
M  V30 458 H 43.4709 4.53868 2.62876 0
M  V30 459 H 44.9449 3.68449 4.11035 0
M  V30 460 H 45.4219 2.00011 3.91015 0
M  V30 461 H 46.0279 3.22538 2.77218 0
M  V30 462 N 44.343 -0.763751 1.37857 0
M  V30 463 C 45.589 -1.52483 1.33704 0
M  V30 464 C 45.922 -1.94051 -0.0759612 0
M  V30 465 O 45.197 -1.64675 -1.03501 0
M  V30 466 C 45.48 -2.78441 2.28348 0
M  V30 467 C 45.333 -2.43075 3.78463 0
M  V30 468 C 46.652 -3.80415 2.21298 0
M  V30 469 H 43.771 -0.553169 0.487005 0
M  V30 470 H 46.413 -0.875562 1.68624 0
M  V30 471 H 44.563 -3.33842 1.987 0
M  V30 472 H 46.235 -1.93527 4.18742 0
M  V30 473 H 44.478 -1.75666 3.96641 0
M  V30 474 H 45.149 -3.33149 4.40132 0
M  V30 475 H 47.625 -3.34527 2.47449 0
M  V30 476 H 46.501 -4.66257 2.89647 0
M  V30 477 H 46.762 -4.25262 1.20849 0
M  V30 478 N 45.8211 -1.22559 -0.990812 0
M  V30 479 C 47.0691 -1.04933 -1.72724 0
M  V30 480 C 47.3901 0.416158 -1.90508 0
M  V30 481 O 46.6601 1.29918 -1.46622 0
M  V30 482 H 45.2401 -0.385296 -0.639965 0
M  V30 483 H 47.9021 -1.54105 -1.19322 0
M  V30 484 H 46.9981 -1.52886 -2.72089 0
M  V30 485 N 47.2992 1.18797 -1.03562 0
M  V30 486 C 48.5292 1.92319 -0.754773 0
M  V30 487 C 48.9372 1.7612 0.691248 0
M  V30 488 O 48.2802 1.08491 1.48241 0
M  V30 489 C 48.3422 3.44284 -1.03484 0
M  V30 490 C 48.0062 3.84258 -2.47376 0
M  V30 491 C 49.0032 3.88459 -3.45537 0
M  V30 492 C 46.6882 4.15701 -2.81954 0
M  V30 493 C 48.6822 4.23545 -4.76328 0
M  V30 494 C 46.3692 4.50458 -4.12954 0
M  V30 495 C 47.3672 4.54356 -5.09951 0
M  V30 496 O 47.0552 4.88305 -6.38603 0
M  V30 497 H 46.7872 0.617527 -0.275021 0
M  V30 498 H 49.3412 1.51683 -1.38497 0
M  V30 499 H 47.5712 3.85135 -0.347513 0
M  V30 500 H 49.2602 3.99049 -0.7426 0
M  V30 501 H 50.0262 3.6431 -3.20162 0
M  V30 502 H 45.9052 4.11847 -2.0713 0
M  V30 503 H 49.4492 4.26502 -5.52035 0
M  V30 504 H 45.3462 4.74067 -4.38099 0
M  V30 505 H 46.1142 5.06227 -6.43177 0
M  V30 506 N 48.7773 0.814389 1.34928 0
M  V30 507 C 50.0023 0.410097 2.03305 0
M  V30 508 C 50.4273 -0.973464 1.60951 0
M  V30 509 O 49.7853 -1.63185 0.789964 0
M  V30 510 C 49.8333 0.51049 3.56968 0
M  V30 511 O 48.9373 -0.473035 4.09678 0
M  V30 512 H 48.2783 0.170088 0.641846 0
M  V30 513 H 50.8083 1.10244 1.72358 0
M  V30 514 H 50.8183 0.383135 4.06197 0
M  V30 515 H 49.4933 1.51963 3.87144 0
M  V30 516 H 48.0703 -0.305272 3.71648 0
M  V30 517 N 50.2554 -1.46986 0.568584 0
M  V30 518 C 51.1874 -2.28233 -0.210337 0
M  V30 519 C 52.2004 -1.37682 -0.868767 0
M  V30 520 O 53.3894 -1.62406 -0.740705 0
M  V30 521 C 50.4894 -3.12293 -1.3163 0
M  V30 522 C 49.6624 -4.30878 -0.7525 0
M  V30 523 C 48.7214 -4.96445 -1.74439 0
M  V30 524 O 47.7474 -5.54482 -1.286 0
M  V30 525 N 48.9494 -4.92171 -3.07812 0
M  V30 526 H 51.7144 -2.95723 0.486648 0
M  V30 527 H 49.2754 -1.56742 0.405409 0
M  V30 528 H 51.2674 -3.53022 -1.97883 0
M  V30 529 H 49.8374 -2.46971 -1.91636 0
M  V30 530 H 49.0574 -3.94104 0.0871128 0
M  V30 531 H 50.3454 -5.07558 -0.35536 0
M  V30 532 H 49.7434 -4.46239 -3.47688 0
M  V30 533 H 48.3004 -5.36884 -3.69592 0
M  V30 534 N 51.7335 -0.305618 -1.54608 0
M  V30 535 C 53.0105 0.355652 -1.92339 0
M  V30 536 C 53.3905 1.71324 -1.23335 0
M  V30 537 O 52.7385 2.25473 -0.370702 0
M  V30 538 C 52.9485 0.46572 -3.45879 0
M  V30 539 C 54.2965 0.734426 -4.182 0
M  V30 540 O 55.3205 0.54935 -3.51938 0
M  V30 541 O 54.1795 1.09024 -5.35515 0
M  V30 542 H 51.2735 0.199666 -0.802535 0
M  V30 543 H 53.8195 -0.354017 -1.65966 0
M  V30 544 H 52.5915 -0.488461 -3.88239 0
M  V30 545 H 52.2145 1.22367 -3.78301 0
M  V30 546 N 53.2116 1.57565 -0.0334293 0
M  V30 547 C 54.4886 1.83282 0.683163 0
M  V30 548 C 54.8686 0.91823 1.90084 0
M  V30 549 O 54.2166 -0.025113 2.28486 0
M  V30 550 C 54.4266 3.32599 1.0573 0
M  V30 551 C 55.7746 3.99179 1.44711 0
M  V30 552 O 56.7986 3.3712 1.15015 0
M  V30 553 O 55.6576 5.08565 2.0006 0
M  V30 554 H 52.7516 0.755869 0.335546 0
M  V30 555 H 55.2976 1.69589 -0.0614402 0
M  V30 556 H 54.0696 3.90834 0.190828 0
M  V30 557 H 53.6926 3.51415 1.85993 0
M  V30 558 N 54.6897 -0.239769 1.55765 0
M  V30 559 C 55.6197 -1.30052 1.9393 0
M  V30 560 C 56.6007 -1.49839 0.805132 0
M  V30 561 O 57.7857 -1.62328 1.06599 0
M  V30 562 C 54.9157 -2.65391 2.2402 0
M  V30 563 C 53.8697 -2.60289 3.39755 0
M  V30 564 C 53.1957 -3.99489 3.55405 0
M  V30 565 C 54.4957 -2.16654 4.75246 0
M  V30 566 H 56.1897 -0.983573 2.82783 0
M  V30 567 H 53.7357 -0.471701 1.36055 0
M  V30 568 H 55.6887 -3.3974 2.49308 0
M  V30 569 H 54.4127 -2.98736 1.32 0
M  V30 570 H 53.0717 -1.88398 3.14487 0
M  V30 571 H 52.7197 -4.30112 2.60793 0
M  V30 572 H 52.4197 -3.96962 4.33238 0
M  V30 573 H 53.9437 -4.75528 3.83022 0
M  V30 574 H 55.3577 -2.80737 4.99859 0
M  V30 575 H 53.7547 -2.25223 5.56232 0
M  V30 576 H 54.8247 -1.11835 4.71827 0
M  V30 577 N 56.1678 -1.49265 -0.50573 0
M  V30 578 C 57.3958 -1.62215 -1.28429 0
M  V30 579 C 57.8108 -0.291697 -1.86533 0
M  V30 580 O 57.1678 0.722233 -1.67601 0
M  V30 581 C 57.2188 -2.68735 -2.41793 0
M  V30 582 O 56.9398 -3.96619 -1.86078 0
M  V30 583 C 58.4408 -2.92346 -3.3324 0
M  V30 584 H 55.6608 -0.546239 -0.389697 0
M  V30 585 H 58.2048 -1.95265 -0.607609 0
M  V30 586 H 56.3598 -2.38476 -3.053 0
M  V30 587 H 56.7738 -4.55256 -2.60465 0
M  V30 588 H 58.2478 -3.70623 -4.09075 0
M  V30 589 H 58.7248 -2.02081 -3.89948 0
M  V30 590 H 59.3308 -3.24003 -2.75503 0
M  V30 591 N 57.6459 0.756429 -1.3826 0
M  V30 592 C 58.8709 1.55077 -1.37717 0
M  V30 593 C 59.2959 1.88073 0.03164 0
M  V30 594 O 58.6539 1.50364 1.01293 0
M  V30 595 C 58.7019 2.8283 -2.23695 0
M  V30 596 O 57.8059 3.77862 -1.6521 0
M  V30 597 H 57.1469 0.469152 -0.469885 0
M  V30 598 H 59.6769 0.935019 -1.81985 0
M  V30 599 H 59.6869 3.31783 -2.37453 0
M  V30 600 H 58.3619 2.58144 -3.2609 0
M  V30 601 H 56.9389 3.36555 -1.60578 0
M  V30 602 N 59.124 1.23083 0.984299 0
M  V30 603 C 60.373 1.05466 1.71929 0
M  V30 604 C 60.686 -0.409211 1.91272 0
M  V30 605 O 61.892 -0.705226 2.62181 0
M  V30 606 C 60.348 1.83874 3.09384 0
M  V30 607 C 59.956 3.34566 2.97943 0
M  V30 608 C 61.7 1.74734 3.8687 0
M  V30 609 C 59.607 4.05381 4.30605 0
M  V30 610 H 58.537 0.391039 0.644674 0
M  V30 611 H 61.188 1.47013 1.09815 0
M  V30 612 H 59.57 1.35131 3.72231 0
M  V30 613 H 60.744 3.90767 2.44209 0
M  V30 614 H 59.059 3.44476 2.33934 0
M  V30 615 H 61.656 2.24957 4.85076 0
M  V30 616 H 61.999 0.709372 4.10212 0
M  V30 617 H 62.532 2.21067 3.30717 0
M  V30 618 H 59.271 5.09467 4.1246 0
M  V30 619 H 58.791 3.53967 4.84218 0
M  V30 620 H 60.47 4.11458 4.99311 0
M  V30 621 N 60.6021 -1.18246 1.0419 0
M  V30 622 C 61.5121 -2.25574 0.644476 0
M  V30 623 C 62.5281 -1.70845 -0.329826 0
M  V30 624 O 63.7041 -2.00554 -0.184443 0
M  V30 625 C 60.7691 -3.46697 0.014877 0
M  V30 626 C 59.8301 -4.16554 1.03834 0
M  V30 627 C 59.0631 -5.31894 0.438692 0
M  V30 628 O 59.2861 -5.65385 -0.754752 0
M  V30 629 O 58.2201 -5.90459 1.168 0
M  V30 630 H 62.0461 -2.61836 1.53869 0
M  V30 631 H 59.6311 -1.25352 0.812854 0
M  V30 632 H 61.5131 -4.20062 -0.335538 0
M  V30 633 H 60.1881 -3.12255 -0.853138 0
M  V30 634 H 59.0951 -3.45251 1.44057 0
M  V30 635 H 60.4281 -4.54998 1.87716 0
M  V30 636 N 62.0802 -0.821533 -1.34494 0
M  V30 637 C 63.4962 -0.507117 -1.51329 0
M  V30 638 C 63.6962 0.968964 -1.76673 0
M  V30 639 O 62.7522 1.75348 -1.81685 0
M  V30 640 C 64.0652 -1.36544 -2.67911 0
M  V30 641 C 65.6132 -1.36242 -2.81793 0
M  V30 642 C 66.0882 -2.2052 -4.01416 0
M  V30 643 N 67.5792 -2.18136 -4.08621 0
M  V30 644 C 68.3142 -2.80095 -5.00334 0
M  V30 645 N 67.8102 -3.51039 -5.9728 0
M  V30 646 N 69.6032 -2.69656 -4.93196 0
M  V30 647 H 61.7542 -1.77729 -1.16302 0
M  V30 648 H 64.0172 -0.757291 -0.570276 0
M  V30 649 H 63.7232 -2.41361 -2.55808 0
M  V30 650 H 63.5972 -1.02917 -3.62888 0
M  V30 651 H 65.9842 -0.322041 -2.93338 0
M  V30 652 H 66.0652 -1.73866 -1.87628 0
M  V30 653 H 65.7092 -3.24607 -3.90631 0
M  V30 654 H 65.6392 -1.80247 -4.94791 0
M  V30 655 H 68.1302 -1.6653 -3.39229 0
M  V30 656 H 68.4432 -3.95565 -6.63889 0
M  V30 657 H 66.7882 -3.55145 -5.97409 0
M  V30 658 H 69.9792 -2.13808 -4.16418 0
M  V30 659 H 70.1522 -3.1823 -5.64476 0
M  V30 660 N 63.5583 1.46682 -0.576371 0
M  V30 661 C 64.4883 2.33028 0.148397 0
M  V30 662 C 65.4693 1.44961 0.889956 0
M  V30 663 O 66.6543 1.73789 0.866662 0
M  V30 664 C 63.7843 3.27117 1.1667 0
M  V30 665 C 62.7383 4.24575 0.540386 0
M  V30 666 C 62.0643 5.08126 1.6647 0
M  V30 667 C 63.3643 5.19722 -0.518331 0
M  V30 668 H 65.0583 2.93875 -0.572509 0
M  V30 669 H 62.6043 1.41315 -0.276768 0
M  V30 670 H 64.5573 3.86374 1.68204 0
M  V30 671 H 63.2813 2.64364 1.9178 0
M  V30 672 H 61.9403 3.66571 0.0461769 0
M  V30 673 H 61.5883 4.41762 2.40531 0
M  V30 674 H 61.2883 5.74122 1.25131 0
M  V30 675 H 62.8123 5.70246 2.18293 0
M  V30 676 H 64.2263 5.73232 -0.0883058 0
M  V30 677 H 62.6233 5.94026 -0.851679 0
M  V30 678 H 63.6933 4.64037 -1.40703 0
M  V30 679 N 65.0364 0.313813 1.54444 0
M  V30 680 C 66.2854 -0.292519 1.99568 0
M  V30 681 C 66.5984 -1.54011 1.20582 0
M  V30 682 O 67.8044 -2.22183 1.56035 0
M  V30 683 C 66.2604 -0.571752 3.55329 0
M  V30 684 C 65.8684 0.658229 4.43138 0
M  V30 685 C 67.6124 -1.13857 4.08946 0
M  V30 686 C 65.5194 0.351439 5.90355 0
M  V30 687 H 64.4494 -0.113079 0.745472 0
M  V30 688 H 67.1004 0.424518 1.78522 0
M  V30 689 H 65.4824 -1.34872 3.72325 0
M  V30 690 H 66.6564 1.43403 4.37918 0
M  V30 691 H 64.9714 1.14458 4.0036 0
M  V30 692 H 67.5684 -1.38257 5.16516 0
M  V30 693 H 67.9114 -2.08489 3.6033 0
M  V30 694 H 68.4444 -0.423015 3.95544 0
M  V30 695 H 65.1834 1.26667 6.43145 0
M  V30 696 H 64.7034 -0.386842 5.98551 0
M  V30 697 H 66.3824 -0.0423134 6.46986 0
M  V30 698 N 66.5145 -1.57545 0.0417849 0
M  V30 699 C 67.4465 -2.07904 -0.964799 0
M  V30 700 C 68.4595 -1.00497 -1.28079 0
M  V30 701 O 69.6485 -1.28087 -1.24322 0
M  V30 702 C 66.7485 -2.49928 -2.28887 0
M  V30 703 C 65.9215 -3.80562 -2.15619 0
M  V30 704 C 64.9805 -4.08999 -3.31069 0
M  V30 705 O 64.0065 -4.79061 -3.0739 0
M  V30 706 N 65.2085 -3.6017 -4.55256 0
M  V30 707 H 67.9735 -2.94886 -0.535029 0
M  V30 708 H 65.5345 -1.61252 -0.144681 0
M  V30 709 H 67.5265 -2.66034 -3.04972 0
M  V30 710 H 66.0965 -1.68245 -2.63463 0
M  V30 711 H 65.3165 -3.74129 -1.24183 0
M  V30 712 H 66.6045 -4.66126 -2.03971 0
M  V30 713 H 66.0025 -3.03512 -4.77386 0
M  V30 714 H 64.5595 -3.81532 -5.28466 0
M  V30 715 N 67.9926 0.231505 -1.5589 0
M  V30 716 C 68.9226 1.29022 -1.94617 0
M  V30 717 C 69.9036 1.4941 -0.813067 0
M  V30 718 O 71.0886 1.6176 -1.07459 0
M  V30 719 C 68.2186 2.64199 -2.25424 0
M  V30 720 C 67.1726 2.58484 -3.41131 0
M  V30 721 C 66.4986 3.97599 -3.57518 0
M  V30 722 C 67.7986 2.1413 -4.76388 0
M  V30 723 H 69.4926 0.968563 -2.83301 0
M  V30 724 H 67.0386 0.464479 -1.36303 0
M  V30 725 H 68.9916 3.38413 -2.51107 0
M  V30 726 H 67.7156 2.98032 -1.33583 0
M  V30 727 H 66.3746 1.86727 -3.15481 0
M  V30 728 H 66.0226 4.28723 -2.6307 0
M  V30 729 H 65.7226 3.94659 -4.35337 0
M  V30 730 H 67.2466 4.7349 -3.85538 0
M  V30 731 H 68.6606 2.78083 -5.01341 0
M  V30 732 H 67.0576 2.2227 -5.57419 0
M  V30 733 H 68.1276 1.09331 -4.72414 0
M  V30 734 N 69.4707 1.49531 0.497807 0
M  V30 735 C 70.7177 1.59179 1.25173 0
M  V30 736 C 71.0457 0.279932 1.92475 0
M  V30 737 O 70.3007 -0.732383 1.81479 0
M  V30 738 C 70.5997 2.70252 2.33878 0
M  V30 739 C 70.2657 4.11644 1.84012 0
M  V30 740 C 68.9277 4.50121 1.70132 0
M  V30 741 C 71.2797 5.00121 1.46725 0
M  V30 742 C 68.6077 5.74845 1.17348 0
M  V30 743 C 70.9597 6.25366 0.95392 0
M  V30 744 C 69.6237 6.6267 0.801538 0
M  V30 745 H 68.8937 0.582478 0.45804 0
M  V30 746 H 71.5407 1.83373 0.551948 0
M  V30 747 H 69.8457 2.40041 3.09657 0
M  V30 748 H 71.5427 2.74925 2.9192 0
M  V30 749 H 68.1327 3.81274 1.95775 0
M  V30 750 H 72.3167 4.71048 1.56294 0
M  V30 751 H 67.5727 6.02444 1.04264 0
M  V30 752 H 71.7467 6.93301 0.656225 0
M  V30 753 H 69.3737 7.59197 0.390351 0
M  V30 754 N 70.9488 -0.749086 1.3866 0
M  V30 755 C 72.2258 -1.4992 1.25632 0
M  V30 756 C 72.6058 -2.10633 -0.140317 0
M  V30 757 O 71.9538 -1.97437 -1.15025 0
M  V30 758 C 72.1638 -2.56195 2.36992 0
M  V30 759 C 73.5118 -3.22972 2.75634 0
M  V30 760 O 74.5358 -2.66502 2.36337 0
M  V30 761 O 73.3948 -4.25122 3.43415 0
M  V30 762 H 70.4888 -0.665067 0.491544 0
M  V30 763 H 73.0348 -0.784113 1.50498 0
M  V30 764 H 71.8068 -2.09612 3.30422 0
M  V30 765 H 71.4298 -3.35279 2.13714 0
M  V30 766 N 72.4269 -1.23603 -0.977757 0
M  V30 767 C 73.6519 -1.09735 -1.75991 0
M  V30 768 C 74.0769 0.346858 -1.84874 0
M  V30 769 O 73.4349 1.25093 -1.3123 0
M  V30 770 C 73.4829 -1.73051 -3.16363 0
M  V30 771 O 72.5869 -0.994452 -4.0023 0
M  V30 772 H 71.9279 -0.384476 -0.541364 0
M  V30 773 H 74.4579 -1.6371 -1.2272 0
M  V30 774 H 74.4679 -1.78398 -3.66931 0
M  V30 775 H 73.1429 -2.78137 -3.09213 0
M  V30 776 H 71.7199 -1.01812 -3.58732 0
M  V30 777 N 73.905 1.17692 -1.04816 0
M  V30 778 C 75.151 1.88389 -0.766892 0
M  V30 779 C 75.506 1.79282 0.698269 0
M  V30 780 O 74.799 1.18739 1.50372 0
M  V30 781 C 74.993 3.37462 -1.17703 0
M  V30 782 C 74.822 3.6108 -2.68051 0
M  V30 783 C 73.592 3.78018 -3.35307 0
M  V30 784 C 75.79 3.61039 -3.66273 0
M  V30 785 N 73.772 3.89444 -4.74559 0
M  V30 786 C 75.143 3.78269 -4.91235 0
M  V30 787 C 77.198 3.44168 -3.59796 0
M  V30 788 C 75.901 3.80376 -6.10497 0
M  V30 789 C 77.927 3.4756 -4.78493 0
M  V30 790 C 77.289 3.65295 -6.02278 0
M  V30 791 H 73.388 0.707651 -0.332798 0
M  V30 792 H 75.972 1.41314 -1.33934 0
M  V30 793 H 74.143 3.83214 -0.63257 0
M  V30 794 H 75.875 3.95759 -0.845989 0
M  V30 795 H 72.63 3.77714 -2.85708 0
M  V30 796 H 73.054 3.98962 -5.46954 0
M  V30 797 H 77.696 3.29396 -2.65062 0
M  V30 798 H 75.414 3.93933 -7.05579 0
M  V30 799 H 79 3.3577 -4.75131 0
M  V30 800 H 77.88 3.6782 -6.92588 0
M  V30 801 N 75.3831 0.828654 1.34056 0
M  V30 802 C 76.3161 0.199763 2.27324 0
M  V30 803 C 77.2941 -0.647168 1.49166 0
M  V30 804 O 78.4781 -0.609661 1.78369 0
M  V30 805 C 75.6051 -0.720455 3.30949 0
M  V30 806 C 74.6511 0.0496888 4.26471 0
M  V30 807 S 75.4841 1.40072 5.16856 0
M  V30 808 C 76.6401 0.485527 6.24014 0
M  V30 809 H 76.8731 0.990478 2.80316 0
M  V30 810 H 74.4061 0.624857 1.41191 0
M  V30 811 H 76.3641 -1.24581 3.91139 0
M  V30 812 H 75.0251 -1.48474 2.76793 0
M  V30 813 H 74.2181 -0.650104 4.9979 0
M  V30 814 H 73.8201 0.505779 3.70564 0
M  V30 815 H 76.1121 -0.320672 6.76741 0
M  V30 816 H 77.0551 1.18856 6.98054 0
M  V30 817 H 77.4631 0.0714109 5.64455 0
M  V30 818 N 76.8612 -1.46375 0.584142 0
M  V30 819 C 77.7912 -2.33103 -0.136037 0
M  V30 820 C 78.7722 -1.45431 -0.882255 0
M  V30 821 O 79.9572 -1.74246 -0.857434 0
M  V30 822 C 77.0872 -3.27731 -1.14933 0
M  V30 823 C 76.0412 -4.24855 -0.517862 0
M  V30 824 C 75.3672 -5.09001 -1.63773 0
M  V30 825 C 76.6672 -5.19439 0.545886 0
M  V30 826 H 78.3612 -2.93568 0.588086 0
M  V30 827 H 75.9072 -1.41166 0.284259 0
M  V30 828 H 77.8602 -3.87261 -1.66153 0
M  V30 829 H 76.5842 -2.65377 -1.90375 0
M  V30 830 H 75.2432 -3.6659 -0.0267361 0
M  V30 831 H 74.8912 -4.43031 -2.38185 0
M  V30 832 H 74.5912 -5.74777 -1.22085 0
M  V30 833 H 76.1152 -5.71396 -2.15266 0
M  V30 834 H 77.5292 -5.73177 0.118704 0
M  V30 835 H 75.9262 -5.93566 0.88317 0
M  V30 836 H 76.9962 -4.63285 1.43162 0
M  V30 837 N 78.3393 -0.321999 -1.54275 0
M  V30 838 C 79.2863 0.544664 -2.24281 0
M  V30 839 C 80.2563 1.1129 -1.23303 0
M  V30 840 O 81.4413 1.15354 -1.51981 0
M  V30 841 C 78.5813 1.70045 -3.00298 0
M  V30 842 C 77.6943 1.16159 -4.1609 0
M  V30 843 C 76.8293 2.28293 -4.79641 0
M  V30 844 C 75.8683 1.71648 -5.8754 0
M  V30 845 N 75.0053 2.77438 -6.44959 0
M  V30 846 H 79.8453 -0.0588907 -2.97942 0
M  V30 847 H 77.3823 -0.0408345 -1.47043 0
M  V30 848 H 79.3403 2.38054 -3.42616 0
M  V30 849 H 77.9703 2.27531 -2.28975 0
M  V30 850 H 77.0223 0.373092 -3.78566 0
M  V30 851 H 78.3343 0.707087 -4.93763 0
M  V30 852 H 77.4883 3.0421 -5.2492 0
M  V30 853 H 76.2273 2.77079 -4.01346 0
M  V30 854 H 75.2323 0.942282 -5.41665 0
M  V30 855 H 76.4573 1.23741 -6.67731 0
M  V30 856 H 74.4033 3.25519 -5.69538 0
M  V30 857 H 74.3203 2.36547 -7.1804 0
M  V30 858 H 75.5883 3.53189 -6.94894 0
M  V30 859 N 79.8174 1.5752 -0.0501392 0
M  V30 860 C 80.7674 2.07981 0.934231 0
M  V30 861 C 81.7514 0.984745 1.27246 0
M  V30 862 O 82.9434 1.24809 1.25506 0
M  V30 863 C 80.0724 2.62751 2.20945 0
M  V30 864 C 79.1584 3.79225 1.89865 0
M  V30 865 N 79.5494 4.89036 1.29142 0
M  V30 866 C 77.8474 3.88111 2.19741 0
M  V30 867 C 78.5484 5.70084 1.15669 0
M  V30 868 N 77.5244 5.17659 1.65923 0
M  V30 869 H 81.3264 2.90277 0.460053 0
M  V30 870 H 78.8404 1.61665 0.15434 0
M  V30 871 H 80.8374 2.97205 2.9236 0
M  V30 872 H 79.4974 1.81894 2.6897 0
M  V30 873 H 80.5084 5.08854 0.963756 0
M  V30 874 H 77.1854 3.18194 2.70293 0
M  V30 875 H 78.5754 6.68395 0.685356 0
M  V30 876 N 81.2955 -0.223234 1.56011 0
M  V30 877 C 82.2435 -1.29627 1.93131 0
M  V30 878 C 83.2375 -1.48608 0.813146 0
M  V30 879 O 84.4435 -1.49802 0.997966 0
M  V30 880 H 80.8185 -0.434563 0.613726 0
M  V30 881 H 82.7895 -0.955995 2.82672 0
M  V30 882 C 81.5385 -2.63983 2.26292 0
M  V30 883 H 80.8615 -2.50185 3.11846 0
M  V30 884 H 82.3015 -3.3788 2.56151 0
M  V30 885 C 80.7605 -3.18866 1.08747 0
M  V30 886 O 81.2905 -4.00192 0.347727 0
M  V30 887 N 79.4965 -2.77217 0.871743 0
M  V30 888 H 79.0435 -2.1119 1.47501 0
M  V30 889 H 79.0015 -3.1428 0.0869905 0
M  V30 890 N 82.7736 -1.49793 -0.48987 0
M  V30 891 C 83.7206 -1.67281 -1.59014 0
M  V30 892 C 84.6906 -0.514177 -1.57941 0
M  V30 893 O 85.8756 -0.742533 -1.75759 0
M  V30 894 C 83.0156 -1.75569 -2.97102 0
M  V30 895 C 82.1286 -3.0281 -3.08107 0
M  V30 896 C 81.2636 -3.02008 -4.36995 0
M  V30 897 C 80.3026 -4.23782 -4.41673 0
M  V30 898 N 79.4396 -4.20826 -5.62005 0
M  V30 899 H 84.2796 -2.61224 -1.43409 0
M  V30 900 H 81.8166 -1.29508 -0.697565 0
M  V30 901 H 83.7746 -1.78354 -3.77155 0
M  V30 902 H 82.4046 -0.850827 -3.11385 0
M  V30 903 H 81.4566 -3.09584 -2.21047 0
M  V30 904 H 82.7686 -3.92801 -3.07423 0
M  V30 905 H 81.9226 -3.03418 -5.25378 0
M  V30 906 H 80.6616 -2.09815 -4.4026 0
M  V30 907 H 79.6666 -4.22604 -3.5169 0
M  V30 908 H 80.8916 -5.17181 -4.40115 0
M  V30 909 H 78.8376 -3.31476 -5.66091 0
M  V30 910 H 78.7546 -5.04564 -5.62984 0
M  V30 911 H 80.0226 -4.26355 -6.52565 0
M  V30 912 N 84.2517 0.741722 -1.39055 0
M  V30 913 C 85.5007 1.49656 -1.35225 0
M  V30 914 C 85.8137 1.95533 0.0512708 0
M  V30 915 O 87.0197 2.7067 0.212138 0
M  V30 916 C 85.4757 2.70389 -2.37525 0
M  V30 917 C 85.0837 2.31489 -3.83558 0
M  V30 918 C 86.8277 3.48236 -2.42759 0
M  V30 919 C 84.7347 3.48903 -4.77515 0
M  V30 920 H 83.6647 0.56197 -0.502699 0
M  V30 921 H 86.3157 0.809727 -1.64668 0
M  V30 922 H 84.6977 3.41113 -2.01142 0
M  V30 923 H 85.8717 1.68354 -4.28945 0
M  V30 924 H 84.1867 1.66749 -3.81554 0
M  V30 925 H 86.7837 4.35558 -3.1015 0
M  V30 926 H 87.1267 3.90229 -1.45008 0
M  V30 927 H 87.6597 2.84535 -2.78002 0
M  V30 928 H 84.3987 3.11966 -5.76504 0
M  V30 929 H 83.9187 4.11041 -4.36813 0
M  V30 930 H 85.5977 4.15328 -4.96096 0
M  V30 931 N 85.7298 1.2412 0.971189 0
M  V30 932 C 86.9598 1.10415 1.7462 0
M  V30 933 C 87.3678 -0.346462 1.86001 0
M  V30 934 O 86.7108 -1.25104 1.34517 0
M  V30 935 C 86.7728 1.66596 3.18568 0
M  V30 936 C 86.4368 3.15446 3.3067 0
M  V30 937 C 87.4338 4.12636 3.16271 0
M  V30 938 C 85.1188 3.55337 3.55022 0
M  V30 939 C 87.1128 5.47699 3.26044 0
M  V30 940 C 84.7998 4.90542 3.64434 0
M  V30 941 C 85.7978 5.86532 3.49956 0
M  V30 942 O 85.4858 7.19279 3.59017 0
M  V30 943 H 85.2178 0.386616 0.55453 0
M  V30 944 H 87.7718 1.64633 1.22821 0
M  V30 945 H 86.0018 1.06808 3.71657 0
M  V30 946 H 87.6908 1.48232 3.77865 0
M  V30 947 H 88.4568 3.8316 2.97344 0
M  V30 948 H 84.3358 2.8113 3.65359 0
M  V30 949 H 87.8798 6.22603 3.14661 0
M  V30 950 H 83.7768 5.19691 3.82873 0
M  V30 951 H 84.5448 7.27153 3.75754 0
M  V30 952 N 87.2079 -1.17134 1.05439 0
M  V30 953 C 88.1179 -2.24878 0.668365 0
M  V30 954 C 89.1339 -1.71186 -0.311687 0
M  V30 955 O 90.3099 -2.00738 -0.163161 0
M  V30 956 C 87.3749 -3.46662 0.051648 0
M  V30 957 C 86.4359 -4.15429 1.08246 0
M  V30 958 C 85.6689 -5.31399 0.495082 0
M  V30 959 O 85.8919 -5.66153 -0.694743 0
M  V30 960 O 84.8259 -5.89187 1.23056 0
M  V30 961 H 88.6519 -2.60189 1.56637 0
M  V30 962 H 86.2369 -1.24482 0.826104 0
M  V30 963 H 88.1189 -4.20394 -0.290966 0
M  V30 964 H 86.7939 -3.13142 -0.819971 0
M  V30 965 H 85.7009 -3.43704 1.47711 0
M  V30 966 H 87.0339 -4.52982 1.92532 0
M  V30 967 N 88.686 -0.835752 -1.33615 0
M  V30 968 C 89.911 -0.442389 -2.02627 0
M  V30 969 C 90.336 0.947735 -1.62479 0
M  V30 970 O 89.694 1.61907 -0.815826 0
M  V30 971 C 89.742 -0.567216 -3.56111 0
M  V30 972 O 88.846 0.407799 -4.10379 0
M  V30 973 H 88.187 -0.180278 -0.639059 0
M  V30 974 H 90.717 -1.12972 -1.70583 0
M  V30 975 H 90.727 -0.447708 -4.05536 0
M  V30 976 H 89.402 -1.58103 -3.84677 0
M  V30 977 H 87.979 0.246107 -3.72087 0
M  V30 978 N 90.1641 1.46063 -0.591896 0
M  V30 979 C 91.4131 2.01547 -0.0786637 0
M  V30 980 C 91.7261 1.46796 1.29268 0
M  V30 981 O 92.9321 1.94157 1.89777 0
M  V30 982 C 91.3881 3.59787 -0.0900024 0
M  V30 983 C 90.9961 4.23534 -1.46023 0
M  V30 984 C 92.7401 4.22895 0.368806 0
M  V30 985 C 90.6471 5.73881 -1.4288 0
M  V30 986 H 89.5771 0.753564 -0.0256388 0
M  V30 987 H 92.2281 1.677 -0.744905 0
M  V30 988 H 90.6101 3.90752 0.642586 0
M  V30 989 H 91.7841 4.04167 -2.21328 0
M  V30 990 H 90.0991 3.72558 -1.85982 0
M  V30 991 H 92.6961 5.33116 0.411258 0
M  V30 992 H 93.0391 3.9247 1.38827 0
M  V30 993 H 93.5721 3.9659 -0.31001 0
M  V30 994 H 90.3111 6.0898 -2.42536 0
M  V30 995 H 89.8311 5.95486 -0.718095 0
M  V30 996 H 91.5101 6.36776 -1.14565 0
M  V30 997 N 91.6422 0.330177 1.54103 0
M  V30 998 C 92.9192 -0.325007 1.92881 0
M  V30 999 C 93.2992 -1.6934 1.26045 0
M  V30 1000 O 92.6472 -2.24855 0.406526 0
M  V30 1001 C 92.8572 -0.410634 3.46576 0
M  V30 1002 C 94.2052 -0.667801 4.19316 0
M  V30 1003 O 95.2292 -0.49329 3.52768 0
M  V30 1004 O 94.0882 -1.00491 5.37181 0
M  V30 1005 H 91.1822 -0.186873 0.80561 0
M  V30 1006 H 93.7282 0.380376 1.65382 0
M  V30 1007 H 92.5002 0.550164 3.87413 0
M  V30 1008 H 92.1232 -1.16333 3.802 0
M  V30 1009 N 93.1203 -1.57491 0.0584922 0
M  V30 1010 C 94.0303 -2.15448 -0.928414 0
M  V30 1011 C 95.0463 -1.11416 -1.3365 0
M  V30 1012 O 96.2223 -1.4362 -1.41193 0
M  V30 1013 C 93.2873 -2.69393 -2.18239 0
M  V30 1014 C 92.3483 -3.88249 -1.83196 0
M  V30 1015 C 91.5813 -4.39613 -3.02616 0
M  V30 1016 O 91.8043 -3.90023 -4.16219 0
M  V30 1017 O 90.7383 -5.31111 -2.83204 0
M  V30 1018 H 94.5643 -3.00112 -0.465483 0
M  V30 1019 H 92.1493 -1.48499 -0.163826 0
M  V30 1020 H 94.0313 -3.04026 -2.91798 0
M  V30 1021 H 92.7063 -1.87796 -2.63656 0
M  V30 1022 H 91.6133 -3.58492 -1.06931 0
M  V30 1023 H 92.9463 -4.71098 -1.42573 0
M  V30 1024 N 94.5984 0.214957 -1.56127 0
M  V30 1025 C 95.5454 1.26642 -1.92952 0
M  V30 1026 C 96.5154 1.46244 -0.78753 0
M  V30 1027 O 97.7004 1.59704 -1.04399 0
M  V30 1028 C 94.8404 2.6104 -2.25726 0
M  V30 1029 C 93.9534 2.49183 -3.52891 0
M  V30 1030 C 93.0884 3.76149 -3.7508 0
M  V30 1031 C 92.1274 3.59041 -4.95738 0
M  V30 1032 N 91.2644 4.77972 -5.14283 0
M  V30 1033 H 96.1044 0.945384 -2.82607 0
M  V30 1034 H 93.6414 0.455489 -1.3987 0
M  V30 1035 H 95.5994 3.39313 -2.42739 0
M  V30 1036 H 94.2294 2.91227 -1.39236 0
M  V30 1037 H 93.2814 1.6231 -3.44034 0
M  V30 1038 H 94.5934 2.32466 -4.41318 0
M  V30 1039 H 93.7474 4.62865 -3.92226 0
M  V30 1040 H 92.4864 3.95799 -2.84947 0
M  V30 1041 H 91.4914 2.7071 -4.78535 0
M  V30 1042 H 92.7164 3.40856 -5.87362 0
M  V30 1043 H 90.6624 4.97923 -4.27093 0
M  V30 1044 H 90.5794 4.64006 -5.96853 0
M  V30 1045 H 91.8474 5.66096 -5.35869 0
M  V30 1046 N 96.0765 1.50051 0.48192 0
M  V30 1047 C 97.3255 1.59741 1.23149 0
M  V30 1048 C 97.6385 0.298163 1.93314 0
M  V30 1049 O 98.8445 0.273835 2.70116 0
M  V30 1050 C 97.3005 2.81926 2.23708 0
M  V30 1051 C 96.9085 4.18685 1.59396 0
M  V30 1052 C 98.6525 3.00956 2.99375 0
M  V30 1053 C 96.5595 5.3207 2.58178 0
M  V30 1054 H 95.4895 0.594838 0.46334 0
M  V30 1055 H 98.1405 1.76467 0.503169 0
M  V30 1056 H 96.5225 2.58736 2.99786 0
M  V30 1057 H 97.6965 4.52088 0.891811 0
M  V30 1058 H 96.0115 4.05171 0.960503 0
M  V30 1059 H 98.6085 3.82836 3.73283 0
M  V30 1060 H 98.9515 2.12258 3.58123 0
M  V30 1061 H 99.4845 3.24277 2.30411 0
M  V30 1062 H 96.2235 6.22888 2.04184 0
M  V30 1063 H 95.7435 5.03098 3.26577 0
M  V30 1064 H 97.4225 5.62196 3.20225 0
M  V30 1065 N 97.5546 -0.734337 1.39446 0
M  V30 1066 C 98.7846 -1.52137 1.39778 0
M  V30 1067 C 99.1926 -1.89198 -0.00929312 0
M  V30 1068 O 98.5356 -1.54666 -0.991168 0
M  V30 1069 C 98.5976 -2.83762 2.20724 0
M  V30 1070 C 98.2616 -2.69131 3.69347 0
M  V30 1071 C 99.2586 -2.37635 4.62413 0
M  V30 1072 C 96.9436 -2.85982 4.1294 0
M  V30 1073 C 98.9376 -2.23172 5.97054 0
M  V30 1074 C 96.6246 -2.71137 5.47657 0
M  V30 1075 C 97.6226 -2.39777 6.39528 0
M  V30 1076 O 97.3106 -2.25026 7.71763 0
M  V30 1077 H 97.0426 -0.476717 0.479288 0
M  V30 1078 H 99.5966 -0.915012 1.83893 0
M  V30 1079 H 97.8266 -3.4666 1.71359 0
M  V30 1080 H 99.5156 -3.45383 2.13226 0
M  V30 1081 H 100.282 -2.24267 4.30034 0
M  V30 1082 H 96.1606 -3.09383 3.41765 0
M  V30 1083 H 99.7046 -1.98617 6.68728 0
M  V30 1084 H 95.6016 -2.84083 5.79626 0
M  V30 1085 H 96.3696 -2.40091 7.82495 0
M  V30 1086 N 99.0327 -1.24633 -0.964593 0
M  V30 1087 C 100.449 -1.01239 -1.2338 0
M  V30 1088 C 100.649 0.2769 -1.99588 0
M  V30 1089 O 99.7047 0.992241 -2.32187 0
M  V30 1090 C 101.018 -2.22937 -2.01791 0
M  V30 1091 C 102.566 -2.27594 -2.14872 0
M  V30 1092 C 103.041 -3.48921 -2.96678 0
M  V30 1093 N 104.532 -3.49257 -3.04259 0
M  V30 1094 C 105.267 -4.39795 -3.67924 0
M  V30 1095 N 104.763 -5.40591 -4.33281 0
M  V30 1096 N 106.556 -4.275 -3.64966 0
M  V30 1097 H 98.7067 -2.0748 -0.454502 0
M  V30 1098 H 100.97 -0.910647 -0.26349 0
M  V30 1099 H 100.676 -3.16587 -1.53184 0
M  V30 1100 H 100.55 -2.25306 -3.02518 0
M  V30 1101 H 102.937 -1.34473 -2.6268 0
M  V30 1102 H 103.018 -2.2925 -1.13482 0
M  V30 1103 H 102.662 -4.42359 -2.49562 0
M  V30 1104 H 102.592 -3.4451 -3.98272 0
M  V30 1105 H 105.083 -2.76337 -2.57771 0
M  V30 1106 H 105.396 -6.05904 -4.79687 0
M  V30 1107 H 103.741 -5.44475 -4.3194 0
M  V30 1108 H 106.932 -3.47987 -3.13086 0
M  V30 1109 H 107.105 -4.98258 -4.14298 0
M  V30 1110 N 100.511 1.16574 -1.06058 0
M  V30 1111 C 101.758 1.87047 -0.775873 0
M  V30 1112 C 102.086 1.81562 0.697534 0
M  V30 1113 O 101.341 1.22445 1.52662 0
M  V30 1114 C 101.64 3.36195 -1.21275 0
M  V30 1115 C 101.306 3.6188 -2.68986 0
M  V30 1116 C 99.9678 3.68599 -3.09335 0
M  V30 1117 C 102.32 3.72648 -3.64394 0
M  V30 1118 C 99.6478 3.83584 -4.43937 0
M  V30 1119 C 102 3.89154 -4.98741 0
M  V30 1120 C 100.664 3.94114 -5.3873 0
M  V30 1121 H 99.9338 0.684452 -0.283912 0
M  V30 1122 H 102.581 1.37853 -1.32925 0
M  V30 1123 H 100.886 3.87505 -0.578528 0
M  V30 1124 H 102.583 3.89103 -0.969542 0
M  V30 1125 H 99.1728 3.57281 -2.36744 0
M  V30 1126 H 103.357 3.66769 -3.34356 0
M  V30 1127 H 98.6128 3.85677 -4.74409 0
M  V30 1128 H 102.787 3.96427 -5.72554 0
M  V30 1129 H 100.414 4.05478 -6.43033 0
M  V30 1130 N 101.989 0.842826 1.3317 0
M  V30 1131 C 102.899 0.281444 2.32906 0
M  V30 1132 C 103.915 -0.594587 1.63526 0
M  V30 1133 O 105.091 -0.49777 1.95152 0
M  V30 1134 C 102.156 -0.530929 3.42611 0
M  V30 1135 C 101.217 0.369843 4.27704 0
M  V30 1136 C 100.45 -0.403853 5.3217 0
M  V30 1137 O 100.673 -1.63513 5.46461 0
M  V30 1138 O 99.6069 0.224199 6.01482 0
M  V30 1139 H 103.433 1.10744 2.82789 0
M  V30 1140 H 101.018 0.60545 1.36582 0
M  V30 1141 H 102.9 -0.992437 4.09547 0
M  V30 1142 H 101.575 -1.33392 2.94938 0
M  V30 1143 H 100.482 0.879275 3.6362 0
M  V30 1144 H 101.815 1.13771 4.78871 0
M  V30 1145 N 103.467 -1.45747 0.599634 0
M  V30 1146 C 104.716 -2.01502 0.0893511 0
M  V30 1147 C 105.029 -1.4748 -1.28488 0
M  V30 1148 O 106.235 -1.95161 -1.88745 0
M  V30 1149 C 104.691 -3.59735 0.109082 0
M  V30 1150 C 104.299 -4.22754 1.48267 0
M  V30 1151 C 106.043 -4.23085 -0.346374 0
M  V30 1152 C 103.95 -5.73115 1.45921 0
M  V30 1153 H 102.88 -0.753417 0.0296347 0
M  V30 1154 H 105.531 -1.67303 0.753788 0
M  V30 1155 H 103.913 -3.91087 -0.621854 0
M  V30 1156 H 105.087 -4.02987 2.23468 0
M  V30 1157 H 103.402 -3.71567 1.87955 0
M  V30 1158 H 105.999 -5.33327 -0.38298 0
M  V30 1159 H 106.342 -3.93201 -1.36743 0
M  V30 1160 H 106.875 -3.9642 0.331038 0
M  V30 1161 H 103.614 -6.07685 2.45762 0
M  V30 1162 H 103.134 -5.95097 0.749665 0
M  V30 1163 H 104.813 -6.3616 1.17941 0
M  V30 1164 N 104.945 -0.338344 -1.53925 0
M  V30 1165 C 106.192 0.259758 -2.00827 0
M  V30 1166 C 106.52 1.50973 -1.22628 0
M  V30 1167 O 105.775 1.93379 -0.300509 0
M  V30 1168 C 106.074 0.62448 -3.51902 0
M  V30 1169 C 105.74 -0.528006 -4.47798 0
M  V30 1170 C 104.402 -0.844298 -4.73735 0
M  V30 1171 C 106.754 -1.30143 -5.0469 0
M  V30 1172 C 104.082 -1.93648 -5.53821 0
M  V30 1173 C 106.434 -2.38382 -5.85967 0
M  V30 1174 C 105.098 -2.70576 -6.10201 0
M  V30 1175 H 104.368 0.0950523 -0.734878 0
M  V30 1176 H 107.015 -0.465182 -1.85764 0
M  V30 1177 H 105.32 1.43006 -3.64769 0
M  V30 1178 H 107.017 1.09905 -3.85645 0
M  V30 1179 H 103.607 -0.271421 -4.2774 0
M  V30 1180 H 107.791 -1.07033 -4.84621 0
M  V30 1181 H 103.047 -2.19021 -5.70824 0
M  V30 1182 H 107.221 -2.98746 -6.29066 0
M  V30 1183 H 104.848 -3.55333 -6.72044 0
M  V30 1184 N 106.423 1.57458 -0.0668435 0
M  V30 1185 C 107.839 1.56947 0.289772 0
M  V30 1186 C 108.039 1.07584 1.70376 0
M  V30 1187 O 107.095 0.739486 2.41429 0
M  V30 1188 C 108.408 3.0052 0.103943 0
M  V30 1189 C 109.956 3.12517 0.173857 0
M  V30 1190 C 110.431 4.57997 0.0163682 0
M  V30 1191 N 111.922 4.63144 0.0721352 0
M  V30 1192 C 112.657 5.73394 -0.0253794 0
M  V30 1193 N 112.153 6.92576 -0.176133 0
M  V30 1194 N 113.946 5.62091 0.0313305 0
M  V30 1195 H 106.097 1.87863 -0.991027 0
M  V30 1196 H 108.36 0.86583 -0.38606 0
M  V30 1197 H 108.066 3.40729 -0.871572 0
M  V30 1198 H 107.94 3.67304 0.858366 0
M  V30 1199 H 110.327 2.72197 1.13985 0
M  V30 1200 H 110.408 2.48381 -0.611586 0
M  V30 1201 H 110.052 4.99005 -0.946374 0
M  V30 1202 H 109.982 5.20158 0.821153 0
M  V30 1203 H 112.473 3.77436 0.187263 0
M  V30 1204 H 112.786 7.72418 -0.242821 0
M  V30 1205 H 111.131 6.94678 -0.211429 0
M  V30 1206 H 114.322 4.67867 0.147773 0
M  V30 1207 H 114.495 6.47982 -0.048121 0
M  V30 1208 N 107.901 -0.206675 1.56239 0
M  V30 1209 C 109.178 -0.954051 1.70755 0
M  V30 1210 C 109.558 -2.01841 0.618353 0
M  V30 1211 O 108.906 -2.25444 -0.372434 0
M  V30 1212 C 109.116 -1.551 3.12642 0
M  V30 1213 C 110.464 -2.03757 3.72516 0
M  V30 1214 O 111.488 -1.64965 3.15698 0
M  V30 1215 O 110.347 -2.75103 4.72208 0
M  V30 1216 H 107.441 -0.446636 0.696021 0
M  V30 1217 H 109.987 -0.197283 1.68549 0
M  V30 1218 H 108.759 -0.783212 3.83382 0
M  V30 1219 H 108.382 -2.37291 3.19028 0
M  V30 1220 N 109.379 -1.50304 -0.473955 0
M  V30 1221 C 110.327 -1.69482 -1.59307 0
M  V30 1222 C 111.321 -0.560669 -1.59853 0
M  V30 1223 O 112.527 -0.741087 -1.64036 0
M  V30 1224 H 108.902 -0.534892 -0.528578 0
M  V30 1225 H 110.873 -2.63364 -1.40293 0
M  V30 1226 C 109.622 -1.80354 -2.97267 0
M  V30 1227 H 108.945 -2.67012 -2.97564 0
M  V30 1228 H 110.385 -1.97798 -3.75036 0
M  V30 1229 C 108.844 -0.55448 -3.32306 0
M  V30 1230 O 109.374 0.307661 -4.0052 0
M  V30 1231 N 107.58 -0.409354 -2.87702 0
M  V30 1232 H 107.127 -1.11196 -2.32364 0
M  V30 1233 H 107.085 0.425223 -3.11511 0
M  V30 1234 N 110.857 0.726932 -1.39834 0
M  V30 1235 C 111.787 1.85405 -1.41941 0
M  V30 1236 C 112.768 1.67751 -0.281728 0
M  V30 1237 O 113.953 1.8795 -0.488717 0
M  V30 1238 C 111.083 3.23243 -1.2701 0
M  V30 1239 C 110.037 3.55549 -2.38262 0
M  V30 1240 C 109.363 4.9241 -2.08415 0
M  V30 1241 C 110.663 3.577 -3.80589 0
M  V30 1242 H 112.357 1.83899 -2.36266 0
M  V30 1243 H 109.903 0.883349 -1.13723 0
M  V30 1244 H 111.856 4.01775 -1.27103 0
M  V30 1245 H 110.58 3.25296 -0.291564 0
M  V30 1246 H 109.239 2.79351 -2.37399 0
M  V30 1247 H 108.887 4.91052 -1.0898 0
M  V30 1248 H 108.587 5.14992 -2.82943 0
M  V30 1249 H 110.111 5.73289 -2.10171 0
M  V30 1250 H 111.525 4.26293 -3.83337 0
M  V30 1251 H 109.922 3.91804 -4.54543 0
M  V30 1252 H 110.992 2.57328 -4.10987 0
M  V30 1253 N 112.336 1.25143 0.95797 0
M  V30 1254 C 113.269 0.995565 2.05338 0
M  V30 1255 C 114.247 -0.0740423 1.62431 0
M  V30 1256 O 115.431 0.0649212 1.88388 0
M  V30 1257 C 112.558 0.504298 3.34925 0
M  V30 1258 C 111.604 1.56393 3.96792 0
M  V30 1259 S 112.437 3.14815 4.33188 0
M  V30 1260 C 113.593 2.67415 5.65898 0
M  V30 1261 H 113.826 1.92309 2.26726 0
M  V30 1262 H 111.359 1.08635 1.09716 0
M  V30 1263 H 113.317 0.227497 4.09869 0
M  V30 1264 H 111.978 -0.402671 3.11508 0
M  V30 1265 H 111.171 1.17082 4.90212 0
M  V30 1266 H 110.773 1.79124 3.28315 0
M  V30 1267 H 113.065 2.10833 6.4386 0
M  V30 1268 H 114.008 3.59463 6.10076 0
M  V30 1269 H 114.416 2.07521 5.24972 0
M  V30 1270 N 113.814 -1.1601 1.06675 0
M  V30 1271 C 115.044 -1.90251 0.805497 0
M  V30 1272 C 115.452 -1.77891 -0.64431 0
M  V30 1273 O 114.795 -1.12383 -1.45313 0
M  V30 1274 C 114.857 -3.41419 1.12576 0
M  V30 1275 C 114.521 -3.77564 2.57477 0
M  V30 1276 C 115.518 -3.79161 3.55715 0
M  V30 1277 C 113.203 -4.08079 2.92877 0
M  V30 1278 C 115.197 -4.10767 4.8739 0
M  V30 1279 C 112.884 -4.39351 4.24751 0
M  V30 1280 C 113.882 -4.40675 5.21818 0
M  V30 1281 O 113.57 -4.71202 6.51325 0
M  V30 1282 H 113.302 -0.610018 0.291297 0
M  V30 1283 H 115.856 -1.47958 1.4247 0
M  V30 1284 H 114.086 -3.84079 0.449503 0
M  V30 1285 H 115.775 -3.9694 0.84814 0
M  V30 1286 H 116.541 -3.55693 3.29708 0
M  V30 1287 H 112.42 -4.06211 2.17976 0
M  V30 1288 H 115.964 -4.11715 5.63148 0
M  V30 1289 H 111.861 -4.62285 4.50514 0
M  V30 1290 H 112.629 -4.88996 6.56373 0
M  V30 1291 N 115.292 -0.849877 -1.32721 0
M  V30 1292 C 116.541 -0.447175 -1.96681 0
M  V30 1293 C 116.854 1.00135 -1.68025 0
M  V30 1294 O 118.06 1.50926 -2.25685 0
M  V30 1295 C 116.516 -0.7487 -3.52026 0
M  V30 1296 C 116.124 -2.21264 -3.89546 0
M  V30 1297 C 117.868 -0.413487 -4.22481 0
M  V30 1298 C 115.775 -2.45763 -5.37917 0
M  V30 1299 H 114.705 -0.163486 -0.736063 0
M  V30 1300 H 117.356 -1.03999 -1.51183 0
M  V30 1301 H 115.738 -0.0853727 -3.95908 0
M  V30 1302 H 116.912 -2.91736 -3.56689 0
M  V30 1303 H 115.227 -2.5119 -3.32103 0
M  V30 1304 H 117.824 -0.574017 -5.3161 0
M  V30 1305 H 118.167 0.644492 -4.11281 0
M  V30 1306 H 118.7 -1.03251 -3.84167 0
M  V30 1307 H 115.439 -3.50168 -5.54132 0
M  V30 1308 H 114.959 -1.79864 -5.72197 0
M  V30 1309 H 116.638 -2.29471 -6.0494 0
M  V30 1310 N 116.77 1.45427 -0.607355 0
M  V30 1311 C 118.047 1.9557 -0.0344566 0
M  V30 1312 C 118.427 1.54979 1.43334 0
M  V30 1313 O 117.775 0.812241 2.13576 0
M  V30 1314 C 117.985 3.48226 -0.232321 0
M  V30 1315 C 119.333 4.2445 -0.113001 0
M  V30 1316 O 120.357 3.55829 -0.162431 0
M  V30 1317 O 119.216 5.465 0.00209442 0
M  V30 1318 H 116.31 0.826222 0.0358667 0
M  V30 1319 H 118.856 1.55594 -0.6774 0
M  V30 1320 H 117.628 3.70739 -1.25174 0
M  V30 1321 H 117.251 3.95092 0.445896 0
M  V30 1322 N 118.248 0.346503 1.53744 0
M  V30 1323 C 119.158 -0.517293 2.28826 0
M  V30 1324 C 120.174 -1.10935 1.3405 0
M  V30 1325 O 121.35 -1.1244 1.6709 0
M  V30 1326 C 118.415 -1.65098 3.04866 0
M  V30 1327 C 117.476 -1.0884 4.15274 0
M  V30 1328 C 116.709 -2.16806 4.87679 0
M  V30 1329 O 116.932 -3.3758 4.59778 0
M  V30 1330 O 115.866 -1.80934 5.74061 0
M  V30 1331 H 119.692 0.0931396 3.03557 0
M  V30 1332 H 117.277 0.111458 1.48984 0
M  V30 1333 H 119.159 -2.31053 3.5241 0
M  V30 1334 H 117.834 -2.24717 2.32989 0
M  V30 1335 H 116.741 -0.3933 3.72027 0
M  V30 1336 H 118.074 -0.537036 4.89261 0
M  V30 1337 N 119.726 -1.57421 0.075193 0
M  V30 1338 C 120.954 -1.97946 -0.602076 0
M  V30 1339 C 121.369 -0.953674 -1.62943 0
M  V30 1340 O 120.726 0.0592551 -1.82404 0
M  V30 1341 C 120.777 -3.38546 -1.26762 0
M  V30 1342 O 120.498 -4.37195 -0.281376 0
M  V30 1343 C 121.999 -3.93966 -2.03239 0
M  V30 1344 H 119.219 -0.650918 -0.162931 0
M  V30 1345 H 121.763 -2.03959 0.148601 0
M  V30 1346 H 119.918 -3.33609 -1.96936 0
M  V30 1347 H 120.332 -5.18975 -0.759267 0
M  V30 1348 H 121.806 -4.94555 -2.45193 0
M  V30 1349 H 122.283 -3.30693 -2.8903 0
M  V30 1350 H 122.889 -4.02315 -1.37924 0
M  V30 1351 N 121.204 0.198386 -1.56346 0
M  V30 1352 C 122.152 1.26538 -1.95169 0
M  V30 1353 C 123.146 1.47295 -0.836685 0
M  V30 1354 O 124.352 1.48195 -1.02167 0
M  V30 1355 H 120.727 0.424744 -0.620561 0
M  V30 1356 H 122.698 0.910904 -2.84157 0
M  V30 1357 C 121.447 2.6035 -2.30463 0
M  V30 1358 H 120.77 2.45192 -3.15786 0
M  V30 1359 H 122.21 3.33762 -2.61494 0
M  V30 1360 C 120.669 3.17096 -1.13806 0
M  V30 1361 O 121.199 3.99588 -0.41135 0
M  V30 1362 N 119.405 2.75795 -0.915736 0
M  V30 1363 H 118.952 2.08816 -1.50843 0
M  V30 1364 H 118.91 3.14101 -0.136979 0
M  V30 1365 N 122.682 1.50554 0.465978 0
M  V30 1366 C 123.629 1.6979 1.56333 0
M  V30 1367 C 124.599 0.539239 1.57103 0
M  V30 1368 O 125.784 0.770401 1.74555 0
M  V30 1369 C 122.924 1.80273 2.94271 0
M  V30 1370 C 122.037 3.07674 3.0325 0
M  V30 1371 C 121.172 3.08922 4.32135 0
M  V30 1372 C 120.211 4.30755 4.34875 0
M  V30 1373 N 119.348 4.29714 5.55239 0
M  V30 1374 H 124.188 2.63472 1.39235 0
M  V30 1375 H 121.725 1.30602 0.676873 0
M  V30 1376 H 123.683 1.84332 3.74269 0
M  V30 1377 H 122.313 0.900258 3.09992 0
M  V30 1378 H 121.365 3.13062 2.16094 0
M  V30 1379 H 122.677 3.97642 3.01135 0
M  V30 1380 H 121.831 3.11738 5.20485 0
M  V30 1381 H 120.57 2.16792 4.36866 0
M  V30 1382 H 119.575 4.28146 3.44922 0
M  V30 1383 H 120.8 5.24117 4.31831 0
M  V30 1384 H 118.746 3.4044 5.60746 0
M  V30 1385 H 118.663 5.13456 5.54886 0
M  V30 1386 H 119.931 4.36683 6.457 0
M  V30 1387 N 124.16 -0.719506 1.40217 0
M  V30 1388 C 125.107 -1.83359 1.40172 0
M  V30 1389 C 126.077 -1.64065 0.259206 0
M  V30 1390 O 127.262 -1.85254 0.456677 0
M  V30 1391 C 124.402 -3.2103 1.26624 0
M  V30 1392 C 123.515 -3.51923 2.50548 0
M  V30 1393 C 122.65 -4.79079 2.29471 0
M  V30 1394 C 121.689 -5.02863 3.48992 0
M  V30 1395 N 120.826 -6.2123 3.27135 0
M  V30 1396 H 125.666 -1.82733 2.35399 0
M  V30 1397 H 123.203 -0.892688 1.16917 0
M  V30 1398 H 125.161 -4.00524 1.16776 0
M  V30 1399 H 123.791 -3.20895 0.350176 0
M  V30 1400 H 122.843 -2.67014 2.70939 0
M  V30 1401 H 124.155 -3.6541 3.39525 0
M  V30 1402 H 123.309 -5.66582 2.16955 0
M  V30 1403 H 122.048 -4.67794 1.37913 0
M  V30 1404 H 121.053 -4.13816 3.6199 0
M  V30 1405 H 122.278 -5.16023 4.41472 0
M  V30 1406 H 120.224 -6.11204 2.38256 0
M  V30 1407 H 120.141 -6.35375 4.09675 0
M  V30 1408 H 121.409 -7.11532 3.18344 0
M  V30 1409 N 125.638 -1.25649 -0.95132 0
M  V30 1410 C 126.586 -1.06118 -2.06982 0
M  V30 1411 C 127.58 0.00889169 -1.69398 0
M  V30 1412 O 128.786 -0.146988 -1.79399 0
M  V30 1413 H 125.161 -0.326248 -0.677544 0
M  V30 1414 H 127.132 -2.00932 -2.2061 0
M  V30 1415 C 125.881 -0.700145 -3.40578 0
M  V30 1416 H 125.204 -1.51537 -3.69968 0
M  V30 1417 H 126.644 -0.603211 -4.19687 0
M  V30 1418 C 125.103 0.59403 -3.31622 0
M  V30 1419 O 125.633 1.63522 -3.66911 0
M  V30 1420 N 123.839 0.58089 -2.84735 0
M  V30 1421 H 123.386 -0.266783 -2.56215 0
M  V30 1422 H 123.344 1.44695 -2.79125 0
M  V30 1423 N 127.117 1.15442 -1.07289 0
M  V30 1424 C 128.065 2.22225 -0.686952 0
M  V30 1425 C 129.059 1.66688 0.30193 0
M  V30 1426 O 130.265 1.79236 0.165712 0
M  V30 1427 H 126.64 0.723783 -0.204064 0
M  V30 1428 H 128.611 2.52056 -1.5972 0
M  V30 1429 C 127.36 3.47556 -0.100149 0
M  V30 1430 H 126.683 3.90612 -0.852211 0
M  V30 1431 H 128.123 4.23794 0.132235 0
M  V30 1432 C 126.582 3.16337 1.159 0
M  V30 1433 O 127.112 3.33074 2.24555 0
M  V30 1434 N 125.318 2.70385 1.06491 0
M  V30 1435 H 124.865 2.56966 0.180668 0
M  V30 1436 H 124.823 2.49871 1.90819 0
M  V30 1437 N 128.595 0.856903 1.32268 0
M  V30 1438 C 129.82 0.474569 2.01897 0
M  V30 1439 C 130.245 -0.921766 1.63967 0
M  V30 1440 O 129.603 -1.60589 0.84148 0
M  V30 1441 C 129.651 0.623799 3.55164 0
M  V30 1442 O 128.755 -0.342459 4.10976 0
M  V30 1443 H 128.096 0.190422 0.63611 0
M  V30 1444 H 130.626 1.15672 1.68764 0
M  V30 1445 H 130.636 0.512169 4.04773 0
M  V30 1446 H 129.311 1.64202 3.82113 0
M  V30 1447 H 127.888 -0.18688 3.72431 0
M  V30 1448 N 130.073 -1.45103 0.615059 0
M  V30 1449 C 131.303 -2.06254 0.119596 0
M  V30 1450 C 131.711 -1.4591 -1.20445 0
M  V30 1451 O 131.054 -0.570384 -1.7462 0
M  V30 1452 C 131.116 -3.59396 -0.0865591 0
M  V30 1453 C 130.78 -4.42116 1.15683 0
M  V30 1454 C 131.777 -4.7662 2.07676 0
M  V30 1455 C 129.462 -4.82749 1.38775 0
M  V30 1456 C 131.456 -5.50622 3.21082 0
M  V30 1457 C 129.143 -5.56504 2.52481 0
M  V30 1458 C 130.141 -5.90358 3.43463 0
M  V30 1459 O 129.829 -6.62615 4.55189 0
M  V30 1460 H 129.561 -0.672423 0.0694512 0
M  V30 1461 H 132.115 -1.87219 0.844885 0
M  V30 1462 H 130.345 -3.76859 -0.866823 0
M  V30 1463 H 132.034 -4.02365 -0.534555 0
M  V30 1464 H 132.8 -4.4578 1.91063 0
M  V30 1465 H 128.679 -4.55829 0.688545 0
M  V30 1466 H 132.223 -5.76965 3.92119 0
M  V30 1467 H 128.12 -5.86759 2.69043 0
M  V30 1468 H 128.888 -6.81071 4.53966 0
M  V30 1469 N 131.551 -0.354651 -1.53558 0
M  V30 1470 C 132.797 0.231422 -2.02079 0
M  V30 1471 C 133.152 1.47308 -1.23767 0
M  V30 1472 O 132.445 1.8891 -0.319947 0
M  V30 1473 C 132.639 0.587121 -3.52545 0
M  V30 1474 C 132.468 -0.618513 -4.45426 0
M  V30 1475 C 131.238 -1.12724 -4.92566 0
M  V30 1476 C 133.436 -1.48039 -4.92533 0
M  V30 1477 N 131.418 -2.29404 -5.69427 0
M  V30 1478 C 132.789 -2.49397 -5.67628 0
M  V30 1479 C 134.844 -1.50454 -4.74624 0
M  V30 1480 C 133.547 -3.53013 -6.26717 0
M  V30 1481 C 135.573 -2.52958 -5.34571 0
M  V30 1482 C 134.935 -3.5304 -6.09543 0
M  V30 1483 H 131.034 0.0476909 -0.780544 0
M  V30 1484 H 133.618 -0.496727 -1.88257 0
M  V30 1485 H 131.789 1.28436 -3.6655 0
M  V30 1486 H 133.521 1.15734 -3.87799 0
M  V30 1487 H 130.276 -0.693577 -4.68494 0
M  V30 1488 H 130.7 -2.88347 -6.12524 0
M  V30 1489 H 135.342 -0.744356 -4.16196 0
M  V30 1490 H 133.06 -4.2992 -6.84247 0
M  V30 1491 H 136.646 -2.55667 -5.22614 0
M  V30 1492 H 135.526 -4.31056 -6.55103 0
M  V30 1493 N 133.029 1.57378 -0.0835403 0
M  V30 1494 C 133.959 2.1641 0.87686 0
M  V30 1495 C 134.94 1.09429 1.30228 0
M  V30 1496 O 136.125 1.37516 1.37124 0
M  V30 1497 C 133.255 2.73517 2.14022 0
M  V30 1498 C 132.209 3.85769 1.85381 0
M  V30 1499 C 131.535 4.29529 3.18448 0
M  V30 1500 C 132.835 5.09486 1.14984 0
M  V30 1501 H 134.529 2.96914 0.385059 0
M  V30 1502 H 132.075 1.42823 0.18377 0
M  V30 1503 H 134.028 3.13463 2.81636 0
M  V30 1504 H 132.752 1.90252 2.65465 0
M  V30 1505 H 131.411 3.46345 1.20169 0
M  V30 1506 H 131.059 3.43169 3.67755 0
M  V30 1507 H 130.759 5.05204 3.00071 0
M  V30 1508 H 132.283 4.72099 3.8724 0
M  V30 1509 H 133.697 5.46674 1.72687 0
M  V30 1510 H 132.094 5.90515 1.06826 0
M  V30 1511 H 133.164 4.84724 0.130749 0
M  V30 1512 N 134.507 -0.190092 1.56449 0
M  V30 1513 C 135.755 -0.907908 1.80559 0
M  V30 1514 C 136.076 -1.83583 0.657438 0
M  V30 1515 O 135.346 -1.93203 -0.323924 0
M  V30 1516 H 133.926 -0.338247 0.666032 0
M  V30 1517 H 136.588 -0.194403 1.93928 0
M  V30 1518 H 135.684 -1.49604 2.73907 0
M  V30 1519 N 135.985 -1.50799 -0.457987 0
M  V30 1520 C 136.915 -1.73553 -1.5621 0
M  V30 1521 C 137.896 -0.584774 -1.59732 0
M  V30 1522 O 139.081 -0.825314 -1.7579 0
M  V30 1523 C 136.211 -1.84169 -2.94447 0
M  V30 1524 C 135.165 -2.99461 -3.0579 0
M  V30 1525 C 134.491 -2.95235 -4.45803 0
M  V30 1526 C 135.791 -4.39766 -2.81786 0
M  V30 1527 H 137.485 -2.66 -1.37421 0
M  V30 1528 H 135.031 -1.28002 -0.659662 0
M  V30 1529 H 136.984 -1.98672 -3.71628 0
M  V30 1530 H 135.708 -0.883545 -3.14422 0
M  V30 1531 H 134.367 -2.8463 -2.31044 0
M  V30 1532 H 134.015 -1.97239 -4.62715 0
M  V30 1533 H 133.715 -3.72642 -4.54326 0
M  V30 1534 H 135.239 -3.11803 -5.24987 0
M  V30 1535 H 136.653 -4.55054 -3.4871 0
M  V30 1536 H 135.05 -5.18722 -3.0174 0
M  V30 1537 H 136.12 -4.51229 -1.7754 0
M  V30 1538 N 137.463 0.71206 -1.40597 0
M  V30 1539 C 138.411 1.84746 -1.41321 0
M  V30 1540 C 139.405 1.66842 -0.293268 0
M  V30 1541 O 140.611 1.73904 -0.464481 0
M  V30 1542 H 136.986 0.608522 -0.441819 0
M  V30 1543 H 138.957 1.81252 -2.37045 0
M  V30 1544 C 137.706 3.22638 -1.29614 0
M  V30 1545 H 137.029 3.37023 -2.15071 0
M  V30 1546 H 138.469 4.02209 -1.3418 0
M  V30 1547 C 136.928 3.36899 -0.00673121 0
M  V30 1548 O 137.458 3.90186 0.954859 0
M  V30 1549 N 135.664 2.9053 0.0639327 0
M  V30 1550 H 135.211 2.47353 -0.719311 0
M  V30 1551 H 135.169 3.0045 0.926118 0
M  V30 1552 N 138.941 1.26152 0.944643 0
M  V30 1553 C 140.189 1.11271 1.6871 0
M  V30 1554 C 140.51 -0.345166 1.91921 0
M  V30 1555 O 139.78 -1.24387 1.51343 0
M  V30 1556 H 138.36 0.408783 0.625224 0
M  V30 1557 H 141.022 1.58427 1.1352 0
M  V30 1558 H 140.118 1.62879 2.66227 0
M  V30 1559 N 140.419 -1.14872 1.07899 0
M  V30 1560 C 141.666 -1.85789 0.805532 0
M  V30 1561 C 141.994 -1.82649 -0.668561 0
M  V30 1562 O 141.249 -1.24858 -1.50695 0
M  V30 1563 C 141.548 -3.34223 1.26609 0
M  V30 1564 C 141.214 -3.57555 2.74709 0
M  V30 1565 C 139.876 -3.63631 3.1516 0
M  V30 1566 C 142.228 -3.66803 3.70277 0
M  V30 1567 C 139.556 -3.76473 4.49983 0
M  V30 1568 C 141.908 -3.8117 5.04869 0
M  V30 1569 C 140.572 -3.85494 5.44932 0
M  V30 1570 H 139.842 -0.679849 0.294765 0
M  V30 1571 H 142.489 -1.3572 1.35101 0
M  V30 1572 H 140.794 -3.86536 0.640103 0
M  V30 1573 H 142.491 -3.87511 1.03132 0
M  V30 1574 H 139.081 -3.5347 2.42398 0
M  V30 1575 H 143.265 -3.61404 3.40149 0
M  V30 1576 H 138.521 -3.7808 4.80484 0
M  V30 1577 H 142.695 -3.87268 5.78789 0
M  V30 1578 H 140.322 -3.95197 6.49403 0
M  V30 1579 N 141.898 -0.863906 -1.31812 0
M  V30 1580 C 142.861 -0.320212 -2.26952 0
M  V30 1581 C 143.861 0.525369 -1.51975 0
M  V30 1582 O 145.051 0.335547 -1.70938 0
M  V30 1583 C 142.183 0.545919 -3.365 0
M  V30 1584 H 143.376 -1.16004 -2.76556 0
M  V30 1585 H 140.929 -0.638995 -1.42641 0
M  V30 1586 H 141.664 1.40718 -2.92179 0
M  V30 1587 H 141.449 -0.0594674 -3.92055 0
M  V30 1588 H 142.939 0.918796 -4.07367 0
M  V30 1589 N 143.376 1.44774 -0.622745 0
M  V30 1590 C 144.653 1.95522 -0.0551974 0
M  V30 1591 C 145.033 1.5649 1.41683 0
M  V30 1592 O 144.381 0.834848 2.12703 0
M  V30 1593 C 144.591 3.4796 -0.269242 0
M  V30 1594 C 145.939 4.24306 -0.158014 0
M  V30 1595 O 146.963 3.55637 -0.200162 0
M  V30 1596 O 145.822 5.46471 -0.0558693 0
M  V30 1597 H 142.916 0.826556 0.0271015 0
M  V30 1598 H 145.462 1.54866 -0.693864 0
M  V30 1599 H 144.234 3.6939 -1.29099 0
M  V30 1600 H 143.857 3.95543 0.403966 0
M  V30 1601 N 144.854 0.36279 1.53368 0
M  V30 1602 C 145.784 -0.476976 2.28576 0
M  V30 1603 C 146.765 -1.08631 1.30894 0
M  V30 1604 O 147.95 -1.10409 1.59761 0
M  V30 1605 C 145.08 -1.61828 3.07293 0
M  V30 1606 C 144.034 -1.13633 4.1264 0
M  V30 1607 C 143.36 -2.36766 4.79423 0
M  V30 1608 C 144.66 -0.223061 5.21823 0
M  V30 1609 H 146.354 0.150474 2.99022 0
M  V30 1610 H 143.9 0.0738103 1.43811 0
M  V30 1611 H 145.853 -2.21237 3.58653 0
M  V30 1612 H 144.577 -2.27292 2.34533 0
M  V30 1613 H 143.236 -0.564945 3.62221 0
M  V30 1614 H 142.884 -3.0068 4.03238 0
M  V30 1615 H 142.584 -2.05192 5.50609 0
M  V30 1616 H 144.108 -2.96865 5.33576 0
M  V30 1617 H 145.522 -0.724545 5.68703 0
M  V30 1618 H 143.919 0.001678 6.001 0
M  V30 1619 H 144.989 0.735553 4.79289 0
M  V30 1620 N 146.332 -1.57332 0.0918853 0
M  V30 1621 C 147.557 -1.98995 -0.584442 0
M  V30 1622 C 147.982 -0.970528 -1.61128 0
M  V30 1623 O 147.34 0.0613904 -1.81196 0
M  V30 1624 C 147.388 -3.39636 -1.21161 0
M  V30 1625 O 146.492 -3.40447 -2.32744 0
M  V30 1626 H 145.833 -0.647165 -0.148572 0
M  V30 1627 H 148.363 -2.03873 0.172347 0
M  V30 1628 H 148.373 -3.7726 -1.55367 0
M  V30 1629 H 147.048 -4.13356 -0.459313 0
M  V30 1630 H 145.625 -3.14614 -2.0018 0
M  V30 1631 N 147.81 0.181792 -1.56548 0
M  V30 1632 C 148.758 1.24461 -1.965 0
M  V30 1633 C 149.752 1.464 -0.852261 0
M  V30 1634 O 150.958 1.47103 -1.03733 0
M  V30 1635 H 147.333 0.418138 -0.625031 0
M  V30 1636 H 149.304 0.880714 -2.85107 0
M  V30 1637 C 148.053 2.57891 -2.33212 0
M  V30 1638 H 147.376 2.41829 -3.18369 0
M  V30 1639 H 148.816 3.3097 -2.65019 0
M  V30 1640 C 147.275 3.15871 -1.17163 0
M  V30 1641 O 147.805 3.9913 -0.453708 0
M  V30 1642 N 146.011 2.74808 -0.944936 0
M  V30 1643 H 145.558 2.07205 -1.53049 0
M  V30 1644 H 145.516 3.13939 -0.170286 0
M  V30 1645 N 149.288 1.51039 0.449983 0
M  V30 1646 C 150.565 1.53612 1.21089 0
M  V30 1647 C 150.945 0.292997 2.09057 0
M  V30 1648 O 150.293 -0.72259 2.16774 0
M  V30 1649 C 150.503 2.84337 2.0237 0
M  V30 1650 C 151.851 3.35807 2.59843 0
M  V30 1651 O 152.875 2.85802 2.12593 0
M  V30 1652 O 151.734 4.23029 3.45989 0
M  V30 1653 H 148.828 0.617057 0.550608 0
M  V30 1654 H 151.374 1.63344 0.460082 0
M  V30 1655 H 150.146 3.66278 1.37681 0
M  V30 1656 H 149.769 2.77708 2.84542 0
M  V30 1657 N 150.766 -0.704594 1.40972 0
M  V30 1658 C 151.676 -1.84856 1.44448 0
M  V30 1659 C 152.692 -1.70726 0.335961 0
M  V30 1660 O 153.868 -1.92799 0.582276 0
M  V30 1661 C 150.933 -3.20758 1.31587 0
M  V30 1662 C 149.994 -3.47063 2.52677 0
M  V30 1663 C 149.227 -4.76481 2.4042 0
M  V30 1664 O 149.45 -5.52341 1.42391 0
M  V30 1665 O 148.384 -5.03367 3.30007 0
M  V30 1666 H 152.21 -1.8488 2.40942 0
M  V30 1667 H 149.795 -0.85647 1.22413 0
M  V30 1668 H 151.677 -4.01913 1.26665 0
M  V30 1669 H 150.352 -3.21438 0.382049 0
M  V30 1670 H 149.259 -2.65873 2.63177 0
M  V30 1671 H 150.592 -3.5119 3.44858 0
M  V30 1672 N 152.244 -1.26651 -0.937939 0
M  V30 1673 C 153.491 -1.12387 -1.6845 0
M  V30 1674 C 153.819 0.332208 -1.91642 0
M  V30 1675 O 153.074 1.2602 -1.49725 0
M  V30 1676 C 153.373 -1.84168 -3.06295 0
M  V30 1677 C 153.039 -3.34056 -3.02849 0
M  V30 1678 C 151.701 -3.74942 -3.01616 0
M  V30 1679 C 154.053 -4.29741 -2.9491 0
M  V30 1680 C 151.381 -5.09894 -2.90215 0
M  V30 1681 C 153.733 -5.64738 -2.8505 0
M  V30 1682 C 152.397 -6.0493 -2.82162 0
M  V30 1683 H 151.667 -0.411252 -0.616403 0
M  V30 1684 H 154.314 -1.57134 -1.09459 0
M  V30 1685 H 152.619 -1.319 -3.6893 0
M  V30 1686 H 154.316 -1.70569 -3.62915 0
M  V30 1687 H 150.906 -3.01534 -3.0459 0
M  V30 1688 H 155.09 -3.99133 -2.94969 0
M  V30 1689 H 150.346 -5.40194 -2.86358 0
M  V30 1690 H 154.52 -6.38561 -2.77872 0
M  V30 1691 H 152.147 -7.09457 -2.73084 0
M  V30 1692 N 153.722 1.14298 -1.08507 0
M  V30 1693 C 154.669 2.19414 -0.715965 0
M  V30 1694 C 155.639 1.63399 0.298326 0
M  V30 1695 O 156.824 1.89929 0.182101 0
M  V30 1696 C 153.964 3.44845 -0.132534 0
M  V30 1697 C 153.077 4.15007 -1.19973 0
M  V30 1698 C 152.212 5.28024 -0.580048 0
M  V30 1699 C 151.251 5.9002 -1.62921 0
M  V30 1700 N 150.388 6.94485 -1.03125 0
M  V30 1701 H 155.228 2.50336 -1.61666 0
M  V30 1702 H 152.765 1.2293 -0.807882 0
M  V30 1703 H 154.723 4.16601 0.223454 0
M  V30 1704 H 153.353 3.14403 0.731467 0
M  V30 1705 H 152.405 3.41629 -1.67313 0
M  V30 1706 H 153.717 4.57178 -1.99473 0
M  V30 1707 H 152.871 6.06455 -0.172364 0
M  V30 1708 H 151.61 4.87076 0.246603 0
M  V30 1709 H 150.615 5.10291 -2.04654 0
M  V30 1710 H 151.84 6.33042 -2.45835 0
M  V30 1711 H 149.786 6.55612 -0.225711 0
M  V30 1712 H 149.703 7.35148 -1.76334 0
M  V30 1713 H 150.971 7.7679 -0.649458 0
M  V30 1714 N 155.201 0.870884 1.31352 0
M  V30 1715 C 156.148 0.325425 2.28494 0
M  V30 1716 C 157.118 -0.576615 1.5577 0
M  V30 1717 O 158.303 -0.508059 1.83911 0
M  V30 1718 C 155.443 -0.466283 3.41935 0
M  V30 1719 C 154.556 0.463378 4.29508 0
M  V30 1720 C 153.691 -0.342544 5.30094 0
M  V30 1721 C 152.73 0.583486 6.09313 0
M  V30 1722 N 151.867 -0.186244 7.01853 0
M  V30 1723 H 156.707 1.15901 2.74538 0
M  V30 1724 H 154.244 0.58294 1.35056 0
M  V30 1725 H 156.202 -0.941085 4.06447 0
M  V30 1726 H 154.832 -1.26456 2.97 0
M  V30 1727 H 153.884 1.05663 3.65431 0
M  V30 1728 H 155.196 1.1734 4.84802 0
M  V30 1729 H 154.35 -0.879816 6.00287 0
M  V30 1730 H 153.089 -1.08585 4.75458 0
M  V30 1731 H 152.094 1.13251 5.3801 0
M  V30 1732 H 153.319 1.32566 6.66035 0
M  V30 1733 H 151.265 -0.912348 6.49625 0
M  V30 1734 H 151.182 0.464422 7.54572 0
M  V30 1735 H 152.45 -0.704716 7.76308 0
M  V30 1736 N 156.679 -1.44442 0.630414 0
M  V30 1737 C 157.626 -2.30678 -0.0749355 0
M  V30 1738 C 158.596 -1.4344 -0.837502 0
M  V30 1739 O 159.781 -1.72343 -0.818684 0
M  V30 1740 C 156.921 -3.28706 -1.05103 0
M  V30 1741 C 156.034 -4.31046 -0.286954 0
M  V30 1742 C 155.169 -5.16167 -1.2548 0
M  V30 1743 C 154.208 -6.10216 -0.479843 0
M  V30 1744 N 153.345 -6.88039 -1.39811 0
M  V30 1745 H 158.185 -2.90454 0.666386 0
M  V30 1746 H 155.722 -1.43107 0.340404 0
M  V30 1747 H 157.68 -3.84027 -1.63031 0
M  V30 1748 H 156.31 -2.70632 -1.75949 0
M  V30 1749 H 155.362 -3.78203 0.408243 0
M  V30 1750 H 156.674 -4.97794 0.316657 0
M  V30 1751 H 155.828 -5.76002 -1.90544 0
M  V30 1752 H 154.567 -4.49491 -1.89233 0
M  V30 1753 H 153.572 -5.49491 0.184295 0
M  V30 1754 H 154.797 -6.78928 0.152965 0
M  V30 1755 H 152.743 -6.24032 -2.02287 0
M  V30 1756 H 152.66 -7.51223 -0.848508 0
M  V30 1757 H 153.928 -7.52397 -2.03762 0
M  V30 1758 N 158.157 -0.370918 -1.53173 0
M  V30 1759 C 159.387 0.217389 -2.05453 0
M  V30 1760 C 159.795 1.42568 -1.24382 0
M  V30 1761 O 159.138 1.81571 -0.278839 0
M  V30 1762 C 159.2 0.669827 -3.53205 0
M  V30 1763 C 158.864 -0.4225 -4.55043 0
M  V30 1764 C 159.861 -1.27407 -5.04047 0
M  V30 1765 C 157.546 -0.58427 -4.9889 0
M  V30 1766 C 159.54 -2.27271 -5.95505 0
M  V30 1767 C 157.227 -1.58627 -5.90153 0
M  V30 1768 C 158.225 -2.42892 -6.38351 0
M  V30 1769 O 157.913 -3.41382 -7.27814 0
M  V30 1770 H 157.645 0.0408171 -0.674767 0
M  V30 1771 H 160.199 -0.5292 -1.98466 0
M  V30 1772 H 158.429 1.4681 -3.57748 0
M  V30 1773 H 160.118 1.18173 -3.88317 0
M  V30 1774 H 160.884 -1.16031 -4.70916 0
M  V30 1775 H 156.763 0.061851 -4.60959 0
M  V30 1776 H 160.307 -2.93079 -6.33049 0
M  V30 1777 H 156.204 -1.70048 -6.22699 0
M  V30 1778 H 156.972 -3.37173 -7.45826 0
M  V30 1779 N 159.635 1.57281 -0.100228 0
M  V30 1780 C 160.881 1.94826 0.563101 0
M  V30 1781 C 161.214 0.982475 1.67514 0
M  V30 1782 O 160.489 0.0164069 1.94493 0
M  V30 1783 C 160.772 3.42453 1.11346 0
M  V30 1784 C 160.625 4.498 0.00612081 0
M  V30 1785 C 161.944 3.91506 2.01024 0
M  V30 1786 H 159.063 0.708428 0.203221 0
M  V30 1787 H 161.705 1.8922 -0.171979 0
M  V30 1788 H 159.855 3.47361 1.7399 0
M  V30 1789 H 161.527 4.57 -0.628357 0
M  V30 1790 H 159.77 4.28756 -0.659581 0
M  V30 1791 H 160.441 5.50306 0.432109 0
M  V30 1792 H 162.917 3.88784 1.48278 0
M  V30 1793 H 161.793 4.95358 2.36457 0
M  V30 1794 H 162.054 3.31099 2.92961 0
M  V30 1795 N 161.113 -0.173488 1.56642 0
M  V30 1796 C 162.361 -0.888706 1.81512 0
M  V30 1797 C 162.682 -1.82875 0.676872 0
M  V30 1798 O 161.952 -1.93536 -0.303414 0
M  V30 1799 H 160.532 -0.331164 0.669582 0
M  V30 1800 H 163.194 -0.173823 1.94123 0
M  V30 1801 H 162.29 -1.46691 2.75478 0
M  V30 1802 N 162.591 -1.51276 -0.441967 0
M  V30 1803 C 163.838 -1.63715 -1.19179 0
M  V30 1804 C 164.166 -0.351175 -1.91303 0
M  V30 1805 O 163.421 0.664524 -1.84072 0
M  V30 1806 C 163.72 -2.78746 -2.23686 0
M  V30 1807 C 163.386 -4.18189 -1.68607 0
M  V30 1808 C 162.048 -4.56125 -1.53308 0
M  V30 1809 C 164.4 -5.05222 -1.28062 0
M  V30 1810 C 161.728 -5.78804 -0.959317 0
M  V30 1811 C 164.08 -6.28476 -0.721162 0
M  V30 1812 C 162.744 -6.65188 -0.55504 0
M  V30 1813 H 162.014 -0.599076 -0.436106 0
M  V30 1814 H 164.661 -1.85296 -0.48351 0
M  V30 1815 H 162.966 -2.51369 -3.00535 0
M  V30 1816 H 164.663 -2.8557 -2.81515 0
M  V30 1817 H 161.253 -3.88277 -1.8149 0
M  V30 1818 H 165.437 -4.76524 -1.38704 0
M  V30 1819 H 160.693 -6.05899 -0.81833 0
M  V30 1820 H 164.867 -6.95259 -0.398458 0
M  V30 1821 H 162.494 -7.60123 -0.108311 0
M  V30 1822 N 164.069 0.697108 -1.41344 0
M  V30 1823 C 165.315 1.4593 -1.40827 0
M  V30 1824 C 165.648 1.94193 -0.0167098 0
M  V30 1825 O 164.923 1.69425 0.955263 0
M  V30 1826 C 165.206 2.67229 -2.41373 0
M  V30 1827 C 165.059 2.24741 -3.8963 0
M  V30 1828 C 166.378 3.69423 -2.39196 0
M  V30 1829 H 163.497 0.529303 -0.512842 0
M  V30 1830 H 166.139 0.794112 -1.72609 0
M  V30 1831 H 164.289 3.23982 -2.14401 0
M  V30 1832 H 165.961 1.73327 -4.27499 0
M  V30 1833 H 164.204 1.56542 -4.0457 0
M  V30 1834 H 164.875 3.1177 -4.55525 0
M  V30 1835 H 167.351 3.2234 -2.63128 0
M  V30 1836 H 166.227 4.51907 -3.11563 0
M  V30 1837 H 166.488 4.19012 -1.41001 0
M  V30 1838 N 165.547 1.27147 0.931209 0
M  V30 1839 C 166.51 1.09615 2.01289 0
M  V30 1840 C 167.51 0.0412581 1.60747 0
M  V30 1841 O 168.7 0.285545 1.71844 0
M  V30 1842 C 165.832 0.669447 3.34262 0
M  V30 1843 H 167.025 2.05662 2.18273 0
M  V30 1844 H 164.578 1.09885 1.11153 0
M  V30 1845 H 165.313 -0.292572 3.22978 0
M  V30 1846 H 165.098 1.43127 3.65044 0
M  V30 1847 H 166.588 0.568921 4.13706 0
M  V30 1848 N 167.025 -1.13721 1.09112 0
M  V30 1849 C 167.935 -2.22638 0.73957 0
M  V30 1850 C 168.951 -1.72091 -0.257068 0
M  V30 1851 O 170.127 -2.01155 -0.0992154 0
M  V30 1852 C 167.192 -3.46322 0.16191 0
M  V30 1853 C 166.253 -4.11775 1.21408 0
M  V30 1854 C 165.486 -5.29555 0.663891 0
M  V30 1855 O 165.709 -5.68077 -0.514274 0
M  V30 1856 O 164.643 -5.84973 1.41738 0
M  V30 1857 H 168.469 -2.55074 1.64836 0
M  V30 1858 H 166.054 -1.21791 0.865289 0
M  V30 1859 H 167.936 -4.21107 -0.157073 0
M  V30 1860 H 166.611 -3.15593 -0.719932 0
M  V30 1861 H 165.518 -3.3883 1.58571 0
M  V30 1862 H 166.851 -4.46627 2.06845 0
M  V30 1863 N 168.503 -0.877838 -1.30888 0
M  V30 1864 C 169.78 -0.413052 -1.91189 0
M  V30 1865 C 170.16 1.1056 -1.79832 0
M  V30 1866 O 169.508 1.93771 -1.21099 0
M  V30 1867 C 169.718 -0.903191 -3.3711 0
M  V30 1868 C 171.066 -0.93395 -4.14201 0
M  V30 1869 O 172.09 -0.849373 -3.45925 0
M  V30 1870 O 170.949 -1.05772 -5.36167 0
M  V30 1871 H 168.043 -0.125035 -0.817493 0
M  V30 1872 H 170.589 -0.966269 -1.39504 0
M  V30 1873 H 169.361 -1.94692 -3.39427 0
M  V30 1874 H 168.984 -0.328732 -3.96239 0
M  V30 1875 N 169.982 1.44106 -0.638065 0
M  V30 1876 C 171.229 2.01978 -0.14533 0
M  V30 1877 C 171.557 1.50234 1.23532 0
M  V30 1878 O 170.812 0.679548 1.83523 0
M  V30 1879 C 171.111 3.5729 -0.0887327 0
M  V30 1880 C 170.777 4.28317 -1.40909 0
M  V30 1881 C 169.439 4.47437 -1.77069 0
M  V30 1882 C 171.791 4.6867 -2.28031 0
M  V30 1883 C 169.119 5.04171 -3.00047 0
M  V30 1884 C 171.471 5.26766 -3.50286 0
M  V30 1885 C 170.135 5.44104 -3.86661 0
M  V30 1886 H 169.405 0.739089 -0.0531801 0
M  V30 1887 H 172.052 1.72781 -0.825761 0
M  V30 1888 H 170.357 3.8594 0.675095 0
M  V30 1889 H 172.054 3.99807 0.309145 0
M  V30 1890 H 168.644 4.1377 -1.1177 0
M  V30 1891 H 172.828 4.53604 -2.01388 0
M  V30 1892 H 168.084 5.15782 -3.28298 0
M  V30 1893 H 172.258 5.56983 -4.18023 0
M  V30 1894 H 169.885 5.87832 -4.82034 0
M  V30 1895 N 171.46 0.379036 1.52974 0
M  V30 1896 C 172.688 -0.20679 2.05864 0
M  V30 1897 C 173.103 -1.41356 1.25155 0
M  V30 1898 O 172.46 -1.8009 0.295588 0
M  V30 1899 C 172.511 -0.587045 3.56702 0
M  V30 1900 O 172.232 0.571776 4.34353 0
M  V30 1901 C 173.733 -1.22983 4.25899 0
M  V30 1902 H 170.953 -0.0336123 0.670158 0
M  V30 1903 H 173.497 0.541298 1.97206 0
M  V30 1904 H 171.652 -1.28504 3.65466 0
M  V30 1905 H 172.066 0.261544 5.23847 0
M  V30 1906 H 173.54 -1.44635 5.32715 0
M  V30 1907 H 174.017 -2.19416 3.80465 0
M  V30 1908 H 174.623 -0.572892 4.21424 0
M  V30 1909 N 172.938 -1.57226 0.108567 0
M  V30 1910 C 174.186 -1.94448 -0.550853 0
M  V30 1911 C 174.507 -0.992074 -1.67878 0
M  V30 1912 O 173.777 -0.0465 -1.95845 0
M  V30 1913 H 172.357 -0.717897 -0.206479 0
M  V30 1914 H 175.019 -1.94112 0.175062 0
M  V30 1915 H 174.115 -2.97218 -0.952259 0
M  V30 1916 N 174.416 0.165178 -1.56732 0
M  V30 1917 C 175.346 1.20651 -1.99914 0
M  V30 1918 C 176.327 1.45827 -0.875705 0
M  V30 1919 O 177.512 1.57057 -1.14223 0
M  V30 1920 C 174.642 2.54401 -2.36427 0
M  V30 1921 C 173.596 2.43782 -3.51787 0
M  V30 1922 C 172.922 3.82078 -3.7406 0
M  V30 1923 C 174.222 1.93732 -4.85041 0
M  V30 1924 H 175.916 0.847534 -2.87154 0
M  V30 1925 H 173.462 0.40625 -1.38151 0
M  V30 1926 H 175.415 3.27458 -2.65234 0
M  V30 1927 H 174.139 2.92098 -1.46103 0
M  V30 1928 H 172.798 1.73178 -3.23117 0
M  V30 1929 H 172.446 4.17179 -2.81017 0
M  V30 1930 H 172.146 3.7584 -4.51684 0
M  V30 1931 H 173.67 4.56712 -4.05274 0
M  V30 1932 H 175.084 2.56569 -5.12684 0
M  V30 1933 H 173.481 1.98428 -5.66345 0
M  V30 1934 H 174.551 0.891962 -4.76626 0
M  V30 1935 N 175.894 1.51508 0.433938 0
M  V30 1936 C 176.804 1.75917 1.5521 0
M  V30 1937 C 177.82 0.643545 1.61662 0
M  V30 1938 O 178.996 0.926183 1.7884 0
M  V30 1939 C 176.061 1.88213 2.91164 0
M  V30 1940 C 175.122 3.12074 2.94802 0
M  V30 1941 C 174.355 3.23774 4.24271 0
M  V30 1942 O 174.578 2.4133 5.16833 0
M  V30 1943 O 173.512 4.16774 4.34262 0
M  V30 1944 H 177.338 2.70777 1.37527 0
M  V30 1945 H 174.923 1.36051 0.617293 0
M  V30 1946 H 176.805 1.98267 3.71845 0
M  V30 1947 H 175.48 0.965413 3.08968 0
M  V30 1948 H 174.387 3.07497 2.13065 0
M  V30 1949 H 175.72 4.03446 2.81943 0
M  V30 1950 N 177.372 -0.689602 1.41712 0
M  V30 1951 C 178.322 -1.79571 1.40493 0
M  V30 1952 C 179.306 -1.58473 0.278409 0
M  V30 1953 O 180.498 -1.69204 0.519532 0
M  V30 1954 C 177.627 -3.17923 1.29536 0
M  V30 1955 C 176.713 -3.44695 2.47075 0
M  V30 1956 N 177.104 -3.42132 3.72531 0
M  V30 1957 C 175.402 -3.75269 2.41017 0
M  V30 1958 C 176.103 -3.67976 4.50521 0
M  V30 1959 N 175.079 -3.88014 3.80718 0
M  V30 1960 H 178.881 -1.75961 2.35404 0
M  V30 1961 H 176.395 -0.889839 1.35851 0
M  V30 1962 H 178.392 -3.97167 1.26745 0
M  V30 1963 H 177.052 -3.22741 0.356153 0
M  V30 1964 H 178.063 -3.22375 4.05333 0
M  V30 1965 H 174.74 -3.87421 1.55599 0
M  V30 1966 H 176.13 -3.7208 5.59469 0
M  V30 1967 N 178.85 -1.27639 -0.924453 0
M  V30 1968 C 180.097 -1.14167 -1.67249 0
M  V30 1969 C 180.425 0.311863 -1.91984 0
M  V30 1970 O 179.68 1.24425 -1.51053 0
M  V30 1971 C 179.979 -1.87407 -3.04325 0
M  V30 1972 C 179.645 -3.37249 -2.99289 0
M  V30 1973 C 178.307 -3.7812 -2.97622 0
M  V30 1974 C 180.659 -4.32845 -2.90336 0
M  V30 1975 C 177.987 -5.12944 -2.8479 0
M  V30 1976 C 180.339 -5.6773 -2.79045 0
M  V30 1977 C 179.003 -6.07889 -2.7573 0
M  V30 1978 H 178.273 -0.417766 -0.612007 0
M  V30 1979 H 180.92 -1.58286 -1.07786 0
M  V30 1980 H 179.225 -1.35805 -3.67511 0
M  V30 1981 H 180.922 -1.74408 -3.61086 0
M  V30 1982 H 177.512 -3.04748 -3.01374 0
M  V30 1983 H 181.696 -4.02239 -2.90719 0
M  V30 1984 H 176.952 -5.432 -2.80612 0
M  V30 1985 H 181.126 -6.41472 -2.71083 0
M  V30 1986 H 178.753 -7.12314 -2.65544 0
M  V30 1987 N 180.328 1.1314 -1.09713 0
M  V30 1988 C 181.605 1.80762 -0.747302 0
M  V30 1989 C 181.985 1.96663 0.767265 0
M  V30 1990 O 181.333 1.53706 1.69076 0
M  V30 1991 C 181.543 3.15606 -1.48975 0
M  V30 1992 C 182.891 3.90914 -1.65746 0
M  V30 1993 O 183.915 3.25239 -1.45251 0
M  V30 1994 O 182.774 5.08718 -1.9967 0
M  V30 1995 H 179.868 0.782103 -0.268782 0
M  V30 1996 H 182.414 1.20041 -1.19951 0
M  V30 1997 H 181.186 2.99278 -2.52088 0
M  V30 1998 H 180.809 3.84029 -1.02991 0
M  V30 1999 N 181.806 0.884767 1.30421 0
M  V30 2000 C 182.754 0.340869 2.30089 0
M  V30 2001 C 183.748 -0.55201 1.60154 0
M  V30 2002 O 184.954 -0.436467 1.74628 0
M  V30 2003 H 181.329 0.0915739 0.746404 0
M  V30 2004 H 183.3 1.19513 2.73421 0
M  V30 2005 C 182.049 -0.429779 3.45034 0
M  V30 2006 H 181.372 0.248024 3.9903 0
M  V30 2007 H 182.812 -0.775445 4.16849 0
M  V30 2008 C 181.271 -1.62677 2.95022 0
M  V30 2009 O 181.801 -2.72614 2.95033 0
M  V30 2010 N 180.007 -1.46387 2.51036 0
M  V30 2011 H 179.554 -0.569506 2.51226 0
M  V30 2012 H 179.512 -2.26612 2.17932 0
M  V30 2013 N 183.284 -1.43765 0.645699 0
M  V30 2014 C 184.194 -2.34544 -0.0512957 0
M  V30 2015 C 185.21 -1.53455 -0.82022 0
M  V30 2016 O 186.386 -1.86133 -0.769176 0
M  V30 2017 C 183.451 -3.31636 -1.01087 0
M  V30 2018 C 182.512 -4.2863 -0.239712 0
M  V30 2019 C 181.745 -5.21084 -1.15358 0
M  V30 2020 O 181.968 -5.1779 -2.39269 0
M  V30 2021 O 180.902 -5.98593 -0.630038 0
M  V30 2022 H 184.728 -2.95624 0.695718 0
M  V30 2023 H 182.313 -1.43781 0.405882 0
M  V30 2024 H 184.195 -3.9136 -1.56254 0
M  V30 2025 H 182.87 -2.73069 -1.73824 0
M  V30 2026 H 181.777 -3.72408 0.355356 0
M  V30 2027 H 183.11 -4.90157 0.447936 0
M  V30 2028 N 184.763 -0.387143 -1.52771 0
M  V30 2029 C 186.04 0.253197 -1.93954 0
M  V30 2030 C 186.42 1.64545 -1.32243 0
M  V30 2031 O 185.768 2.23191 -0.489699 0
M  V30 2032 C 185.978 0.281722 -3.47861 0
M  V30 2033 C 187.326 0.511715 -4.21505 0
M  V30 2034 O 188.35 0.362023 -3.54356 0
M  V30 2035 O 187.209 0.804847 -5.40541 0
M  V30 2036 H 184.303 0.156845 -0.811991 0
M  V30 2037 H 186.849 -0.441494 -1.63856 0
M  V30 2038 H 185.621 -0.693571 -3.85104 0
M  V30 2039 H 185.244 1.02142 -3.84256 0
M  V30 2040 N 186.241 1.57166 -0.116904 0
M  V30 2041 C 187.488 1.95123 0.541603 0
M  V30 2042 C 187.816 1.00006 1.6682 0
M  V30 2043 O 187.071 0.0235658 1.95686 0
M  V30 2044 C 187.37 3.39508 1.11664 0
M  V30 2045 C 187.036 4.50762 0.111606 0
M  V30 2046 C 185.698 4.80918 -0.164758 0
M  V30 2047 C 188.05 5.18036 -0.573438 0
M  V30 2048 C 185.378 5.75666 -1.13249 0
M  V30 2049 C 187.73 6.13824 -1.52978 0
M  V30 2050 C 186.394 6.42374 -1.81415 0
M  V30 2051 H 185.664 0.714005 0.198187 0
M  V30 2052 H 188.311 1.9048 -0.197365 0
M  V30 2053 H 186.616 3.40835 1.93232 0
M  V30 2054 H 188.313 3.66189 1.63422 0
M  V30 2055 H 184.903 4.27272 0.337192 0
M  V30 2056 H 189.087 4.94896 -0.373092 0
M  V30 2057 H 184.343 5.96092 -1.35958 0
M  V30 2058 H 188.517 6.65039 -2.06629 0
M  V30 2059 H 186.144 7.15599 -2.56557 0
M  V30 2060 N 187.719 -0.156864 1.56817 0
M  V30 2061 C 188.947 -0.886316 1.86955 0
M  V30 2062 C 189.362 -1.75185 0.703975 0
M  V30 2063 O 188.719 -1.79555 -0.326552 0
M  V30 2064 C 188.77 -1.75117 3.16253 0
M  V30 2065 O 188.491 -0.920537 4.2832 0
M  V30 2066 C 189.992 -2.58905 3.59837 0
M  V30 2067 H 187.212 -0.25678 0.619923 0
M  V30 2068 H 189.756 -0.152615 2.0393 0
M  V30 2069 H 187.911 -2.43805 3.01062 0
M  V30 2070 H 188.325 -1.51337 5.02192 0
M  V30 2071 H 189.799 -3.1518 4.53172 0
M  V30 2072 H 190.276 -3.34472 2.84649 0
M  V30 2073 H 190.882 -1.95526 3.7769 0
M  V30 2074 N 189.197 -1.51736 -0.425897 0
M  V30 2075 C 190.427 -1.68549 -1.19476 0
M  V30 2076 C 190.835 -0.387288 -1.85194 0
M  V30 2077 O 190.178 0.645142 -1.71999 0
M  V30 2078 C 190.24 -2.75275 -2.31223 0
M  V30 2079 C 189.904 -4.17534 -1.8578 0
M  V30 2080 C 190.901 -5.01936 -1.35485 0
M  V30 2081 C 188.586 -4.6369 -1.93123 0
M  V30 2082 C 190.58 -6.30559 -0.931347 0
M  V30 2083 C 188.267 -5.92307 -1.50384 0
M  V30 2084 C 189.265 -6.75569 -1.00473 0
M  V30 2085 O 188.953 -8.0178 -0.583452 0
M  V30 2086 H 188.685 -0.568525 -0.365725 0
M  V30 2087 H 191.239 -1.98982 -0.509444 0
M  V30 2088 H 189.469 -2.40182 -3.03067 0
M  V30 2089 H 191.158 -2.80853 -2.93047 0
M  V30 2090 H 191.924 -4.67475 -1.29197 0
M  V30 2091 H 187.803 -3.98997 -2.30916 0
M  V30 2092 H 191.347 -6.95498 -0.541084 0
M  V30 2093 H 187.244 -6.2628 -1.56346 0
M  V30 2094 H 188.012 -8.1543 -0.708275 0
M  V30 2095 N 190.675 0.682077 -1.42076 0
M  V30 2096 C 191.622 1.79578 -1.44984 0
M  V30 2097 C 192.592 1.6332 -0.302614 0
M  V30 2098 O 193.777 1.83978 -0.505633 0
M  V30 2099 C 190.917 3.1756 -1.35091 0
M  V30 2100 C 190.03 3.45156 -2.59791 0
M  V30 2101 C 189.165 4.72826 -2.42093 0
M  V30 2102 C 188.204 4.93433 -3.62202 0
M  V30 2103 N 187.341 6.12338 -3.43491 0
M  V30 2104 H 192.181 1.76427 -2.40161 0
M  V30 2105 H 189.718 0.861376 -1.19242 0
M  V30 2106 H 191.676 3.97287 -1.27354 0
M  V30 2107 H 190.306 3.19854 -0.435133 0
M  V30 2108 H 189.358 2.59736 -2.77923 0
M  V30 2109 H 190.67 3.5628 -3.49094 0
M  V30 2110 H 189.824 5.60631 -2.319 0
M  V30 2111 H 188.563 4.63973 -1.50268 0
M  V30 2112 H 187.568 4.04073 -3.72834 0
M  V30 2113 H 188.793 5.04136 -4.54998 0
M  V30 2114 H 186.739 6.04672 -2.54377 0
M  V30 2115 H 186.656 6.2429 -4.26377 0
M  V30 2116 H 187.924 7.02841 -3.37097 0
M  V30 2117 N 192.153 1.28127 0.917671 0
M  V30 2118 C 193.103 1.08361 2.00604 0
M  V30 2119 C 194.087 0.00847518 1.60898 0
M  V30 2120 O 195.279 0.228167 1.75523 0
M  V30 2121 C 192.408 0.743376 3.35155 0
M  V30 2122 C 191.494 1.85716 3.81275 0
M  V30 2123 N 191.885 3.09822 3.99805 0
M  V30 2124 C 190.183 1.74612 4.10398 0
M  V30 2125 C 190.884 3.82368 4.38372 0
M  V30 2126 N 189.86 3.10192 4.4641 0
M  V30 2127 H 193.662 2.02531 2.12975 0
M  V30 2128 H 191.176 1.18989 1.10523 0
M  V30 2129 H 193.173 0.582859 4.12805 0
M  V30 2130 H 191.833 -0.190595 3.2414 0
M  V30 2131 H 192.844 3.45475 3.85833 0
M  V30 2132 H 189.521 0.883657 4.08041 0
M  V30 2133 H 190.911 4.89082 4.60704 0
M  V30 2134 N 193.631 -1.12557 1.10312 0
M  V30 2135 C 194.877 -1.84311 0.846011 0
M  V30 2136 C 195.21 -1.83805 -0.626859 0
M  V30 2137 O 194.485 -1.28268 -1.46211 0
M  V30 2138 C 194.768 -3.32048 1.39341 0
M  V30 2139 C 194.621 -3.41016 2.93305 0
M  V30 2140 C 195.94 -4.27764 1.03468 0
M  V30 2141 H 193.059 -0.669192 0.30879 0
M  V30 2142 H 195.701 -1.32057 1.36605 0
M  V30 2143 H 193.851 -3.76678 0.951087 0
M  V30 2144 H 195.523 -3.05031 3.46055 0
M  V30 2145 H 193.766 -2.81603 3.29973 0
M  V30 2146 H 194.437 -4.44948 3.26689 0
M  V30 2147 H 196.913 -3.91253 1.41633 0
M  V30 2148 H 195.789 -5.29549 1.44463 0
M  V30 2149 H 196.05 -4.42064 -0.0560404 0
M  V30 2150 N 195.109 -0.891671 -1.2995 0
M  V30 2151 C 196.337 -0.52866 -2.00032 0
M  V30 2152 C 196.752 0.884574 -1.66795 0
M  V30 2153 O 196.109 1.5827 -0.908669 0
M  V30 2154 C 196.16 -0.701814 -3.54622 0
M  V30 2155 O 195.881 -2.05942 -3.86678 0
M  V30 2156 C 197.382 -0.342683 -4.41973 0
M  V30 2157 H 194.602 -0.203659 -0.639347 0
M  V30 2158 H 197.146 -1.19881 -1.65677 0
M  V30 2159 H 195.301 -0.0789468 -3.8732 0
M  V30 2160 H 195.715 -2.08291 -4.81368 0
M  V30 2161 H 197.189 -0.514709 -5.49595 0
M  V30 2162 H 197.666 0.71975 -4.33262 0
M  V30 2163 H 198.272 -0.942154 -4.14733 0
M  V30 2164 N 196.587 1.43421 -0.653314 0
M  V30 2165 C 197.535 2.32546 0.0501531 0
M  V30 2166 C 198.529 1.48617 0.812985 0
M  V30 2167 O 199.735 1.64825 0.723375 0
M  V30 2168 H 196.11 0.751185 0.0350032 0
M  V30 2169 H 198.081 2.89602 -0.719261 0
M  V30 2170 C 196.83 3.32925 1.00279 0
M  V30 2171 H 196.153 3.97532 0.425236 0
M  V30 2172 H 197.593 3.9792 1.46409 0
M  V30 2173 C 196.052 2.63532 2.09886 0
M  V30 2174 O 196.582 2.45092 3.18265 0
M  V30 2175 N 194.788 2.22905 1.86445 0
M  V30 2176 H 194.335 2.38103 0.98309 0
M  V30 2177 H 194.293 1.76805 2.59976 0
M  V30 2178 N 198.065 0.39524 1.52563 0
M  V30 2179 C 199.295 -0.184675 2.05773 0
M  V30 2180 C 199.703 -1.40571 1.26635 0
M  V30 2181 O 199.046 -1.81105 0.30769 0
M  V30 2182 C 199.108 -0.613551 3.54226 0
M  V30 2183 C 198.772 0.49484 4.54313 0
M  V30 2184 C 199.769 1.3541 5.01956 0
M  V30 2185 C 197.454 0.663565 4.97898 0
M  V30 2186 C 199.448 2.36716 5.91814 0
M  V30 2187 C 197.135 1.67996 5.87555 0
M  V30 2188 C 198.133 2.53017 6.34406 0
M  V30 2189 O 197.821 3.52917 7.22291 0
M  V30 2190 H 197.553 -0.030077 0.675331 0
M  V30 2191 H 200.107 0.560708 1.97599 0
M  V30 2192 H 198.337 -1.411 3.60038 0
M  V30 2193 H 200.026 -1.11981 3.90148 0
M  V30 2194 H 200.792 1.23509 4.6901 0
M  V30 2195 H 196.671 0.0114913 4.60999 0
M  V30 2196 H 200.215 3.03113 6.28306 0
M  V30 2197 H 196.112 1.79933 6.19915 0
M  V30 2198 H 196.88 3.48996 7.40367 0
M  V30 2199 N 199.544 -1.57102 0.125237 0
M  V30 2200 C 200.955 -1.82384 -0.399142 0
M  V30 2201 C 201.306 -1.04276 -1.66195 0
M  V30 2202 O 200.431 -0.281269 -2.14564 0
M  V30 2203 C 201.026 -3.30821 -0.730932 0
M  V30 2204 C 199.585 -3.56762 -1.19992 0
M  V30 2205 C 198.732 -2.7649 -0.211792 0
M  V30 2206 H 201.683 -1.54786 0.350277 0
M  V30 2207 H 201.704 -3.4579 -1.58775 0
M  V30 2208 H 201.216 -3.87643 0.188345 0
M  V30 2209 H 199.317 -3.05305 -2.13588 0
M  V30 2210 H 199.43 -4.65317 -1.14093 0
M  V30 2211 H 197.794 -2.4489 -0.700085 0
M  V30 2212 H 198.577 -3.36073 0.700691 0
M  V30 2213 N 201.022 0.148545 -1.56898 0
M  V30 2214 C 201.954 1.20852 -1.9475 0
M  V30 2215 C 202.967 1.39265 -0.843152 0
M  V30 2216 O 204.156 1.38864 -1.12156 0
M  V30 2217 C 201.256 2.57362 -2.20495 0
M  V30 2218 C 200.429 2.59947 -3.51776 0
M  V30 2219 C 199.488 3.77984 -3.6608 0
M  V30 2220 O 198.514 3.62929 -4.38487 0
M  V30 2221 N 199.716 4.95375 -3.02629 0
M  V30 2222 H 202.481 0.886804 -2.86279 0
M  V30 2223 H 200.042 0.338121 -1.5833 0
M  V30 2224 H 202.034 3.34833 -2.27307 0
M  V30 2225 H 200.604 2.81832 -1.35238 0
M  V30 2226 H 199.824 1.68403 -3.56419 0
M  V30 2227 H 201.112 2.58704 -4.38121 0
M  V30 2228 H 200.51 5.10509 -2.43715 0
M  V30 2229 H 199.067 5.70627 -3.15004 0
M  V30 2230 N 202.5 1.5196 0.417844 0
M  V30 2231 C 203.725 1.69717 1.1921 0
M  V30 2232 C 204.15 0.402148 1.83751 0
M  V30 2233 O 203.508 -0.639593 1.69643 0
M  V30 2234 C 203.556 2.82794 2.2374 0
M  V30 2235 O 202.66 2.47756 3.29683 0
M  V30 2236 H 202.001 0.565263 0.348387 0
M  V30 2237 H 204.531 1.98621 0.490985 0
M  V30 2238 H 204.541 3.07452 2.68212 0
M  V30 2239 H 203.216 3.76756 1.76146 0
M  V30 2240 H 201.793 2.33739 2.90552 0
M  V30 2241 N 203.978 -0.674533 1.42435 0
M  V30 2242 C 205.227 -1.43034 1.42212 0
M  V30 2243 C 205.54 -1.95555 0.0420788 0
M  V30 2244 O 206.746 -2.71374 -0.0827558 0
M  V30 2245 C 205.202 -2.58748 2.50155 0
M  V30 2246 C 204.81 -2.12925 3.94166 0
M  V30 2247 C 206.554 -3.36257 2.59098 0
M  V30 2248 C 204.461 -3.25723 4.93618 0
M  V30 2249 H 203.391 -0.537345 0.528939 0
M  V30 2250 H 206.042 -0.73024 1.68344 0
M  V30 2251 H 204.424 -3.31128 2.17188 0
M  V30 2252 H 205.598 -1.47697 4.36488 0
M  V30 2253 H 203.913 -1.48354 3.89076 0
M  V30 2254 H 206.51 -4.20264 3.30578 0
M  V30 2255 H 206.853 -3.82866 1.63461 0
M  V30 2256 H 207.386 -2.70947 2.9126 0
M  V30 2257 H 204.125 -2.84105 5.90732 0
M  V30 2258 H 203.645 -3.89732 4.55926 0
M  V30 2259 H 205.324 -3.91186 5.15347 0
M  V30 2260 N 205.456 -1.28612 -0.910864 0
M  V30 2261 C 206.733 -1.06632 -1.63979 0
M  V30 2262 C 207.113 0.393351 -2.07403 0
M  V30 2263 O 206.461 1.37999 -1.82122 0
M  V30 2264 C 206.671 -2.0436 -2.8291 0
M  V30 2265 C 208.019 -2.34666 -3.5386 0
M  V30 2266 O 209.043 -2.02467 -2.93062 0
M  V30 2267 O 207.902 -2.89631 -4.63439 0
M  V30 2268 H 204.996 -0.407737 -0.7195 0
M  V30 2269 H 207.542 -1.39942 -0.959914 0
M  V30 2270 H 206.314 -3.02727 -2.47936 0
M  V30 2271 H 205.937 -1.71714 -3.58609 0
M  V30 2272 N 206.934 1.1197 -1.10907 0
M  V30 2273 C 208.18 1.84059 -0.865674 0
M  V30 2274 C 208.535 1.82731 0.602254 0
M  V30 2275 O 207.828 1.26543 1.43866 0
M  V30 2276 C 208.022 3.30749 -1.35425 0
M  V30 2277 C 207.851 3.46363 -2.86815 0
M  V30 2278 C 206.621 3.59712 -3.54874 0
M  V30 2279 C 208.819 3.41116 -3.84895 0
M  V30 2280 N 206.801 3.63741 -4.94536 0
M  V30 2281 C 208.172 3.51698 -5.10596 0
M  V30 2282 C 210.227 3.24612 -3.77533 0
M  V30 2283 C 208.93 3.4748 -6.29802 0
M  V30 2284 C 210.956 3.21708 -4.96244 0
M  V30 2285 C 210.318 3.32856 -6.20795 0
M  V30 2286 H 206.417 0.689015 -0.369841 0
M  V30 2287 H 209.001 1.34016 -1.41237 0
M  V30 2288 H 207.172 3.79322 -0.834814 0
M  V30 2289 H 208.904 3.90718 -1.05458 0
M  V30 2290 H 205.659 3.62038 -3.05329 0
M  V30 2291 H 206.083 3.69408 -5.67333 0
M  V30 2292 H 210.725 3.14883 -2.8215 0
M  V30 2293 H 208.443 3.55978 -7.25469 0
M  V30 2294 H 212.029 3.10113 -4.92261 0
M  V30 2295 H 210.909 3.3059 -7.11112 0
M  V30 2296 N 208.412 0.89855 1.29475 0
M  V30 2297 C 209.828 0.594483 1.48115 0
M  V30 2298 C 210.028 -0.86431 1.82022 0
M  V30 2299 O 209.084 -1.64457 1.91599 0
M  V30 2300 C 210.397 1.51932 2.59494 0
M  V30 2301 C 211.945 1.5244 2.7337 0
M  V30 2302 C 212.42 2.43548 3.87877 0
M  V30 2303 N 213.911 2.41589 3.95208 0
M  V30 2304 C 214.646 3.08789 4.83153 0
M  V30 2305 N 214.142 3.85265 5.75798 0
M  V30 2306 N 215.935 2.97952 4.76635 0
M  V30 2307 H 208.086 1.84207 1.05742 0
M  V30 2308 H 210.349 0.789251 0.525154 0
M  V30 2309 H 210.055 2.55865 2.41301 0
M  V30 2310 H 209.929 1.23899 3.56271 0
M  V30 2311 H 212.316 0.492518 2.90961 0
M  V30 2312 H 212.397 1.8451 1.77172 0
M  V30 2313 H 212.041 3.46829 3.71041 0
M  V30 2314 H 211.971 2.08788 4.83441 0
M  V30 2315 H 214.462 1.86025 3.28943 0
M  V30 2316 H 214.775 4.33598 6.39697 0
M  V30 2317 H 213.12 3.89371 5.75687 0
M  V30 2318 H 216.311 2.37723 4.03244 0
M  V30 2319 H 216.484 3.50599 5.44962 0
M  V30 2320 N 209.89 -1.43072 0.660911 0
M  V30 2321 C 210.853 -2.29194 -0.0166406 0
M  V30 2322 C 211.853 -1.42609 -0.742912 0
M  V30 2323 O 213.043 -1.64155 -0.583004 0
M  V30 2324 C 210.175 -3.24831 -1.0343 0
M  V30 2325 H 211.368 -2.90596 0.741208 0
M  V30 2326 H 208.921 -1.5048 0.422532 0
M  V30 2327 H 209.656 -2.68339 -1.82111 0
M  V30 2328 H 209.441 -3.88676 -0.517082 0
M  V30 2329 H 210.931 -3.89451 -1.50723 0
M  V30 2330 N 211.368 -0.403325 -1.52352 0
M  V30 2331 C 212.315 0.425011 -2.26853 0
M  V30 2332 C 213.285 1.04598 -1.29029 0
M  V30 2333 O 214.47 1.07135 -1.57882 0
M  V30 2334 C 211.61 1.53888 -3.08889 0
M  V30 2335 C 210.723 0.939396 -4.21663 0
M  V30 2336 C 209.858 2.02547 -4.91068 0
M  V30 2337 C 208.897 1.40263 -5.95813 0
M  V30 2338 N 208.034 2.4286 -6.58759 0
M  V30 2339 H 212.874 -0.21674 -2.97211 0
M  V30 2340 H 210.411 -0.118722 -1.4662 0
M  V30 2341 H 212.369 2.19558 -3.54753 0
M  V30 2342 H 210.999 2.15074 -2.40714 0
M  V30 2343 H 210.051 0.171898 -3.80011 0
M  V30 2344 H 211.363 0.44436 -4.96817 0
M  V30 2345 H 210.517 2.75958 -5.40308 0
M  V30 2346 H 209.256 2.55415 -4.15469 0
M  V30 2347 H 208.261 0.653833 -5.45898 0
M  V30 2348 H 209.486 0.881719 -6.73352 0
M  V30 2349 H 207.432 2.94871 -5.85992 0
M  V30 2350 H 207.349 1.98152 -7.2957 0
M  V30 2351 H 208.617 3.15858 -7.12639 0
M  V30 2352 N 212.846 1.57033 -0.133567 0
M  V30 2353 C 214.094 1.953 0.519848 0
M  V30 2354 C 214.415 1.01866 1.66278 0
M  V30 2355 O 213.685 0.0776513 1.95746 0
M  V30 2356 H 212.265 0.721091 0.195032 0
M  V30 2357 H 214.927 1.93809 -0.205921 0
M  V30 2358 H 214.023 2.98695 0.904854 0
M  V30 2359 N 214.325 -0.140222 1.56975 0
M  V30 2360 C 215.288 -1.15689 1.97861 0
M  V30 2361 C 216.288 -1.3549 0.865974 0
M  V30 2362 O 217.478 -1.32367 1.13246 0
M  V30 2363 C 214.61 -2.51582 2.30042 0
M  V30 2364 H 215.803 -0.805971 2.88867 0
M  V30 2365 H 213.356 -0.383801 1.51515 0
M  V30 2366 H 214.091 -2.91632 1.41849 0
M  V30 2367 H 213.876 -2.38569 3.11171 0
M  V30 2368 H 215.366 -3.24792 2.62488 0
M  V30 2369 N 215.803 -1.52179 -0.40978 0
M  V30 2370 C 217.049 -1.66453 -1.15851 0
M  V30 2371 C 217.382 -0.392972 -1.90182 0
M  V30 2372 O 216.657 0.608579 -1.84734 0
M  V30 2373 C 216.94 -2.88612 -2.15349 0
M  V30 2374 C 216.793 -4.25815 -1.44918 0
M  V30 2375 C 218.112 -3.06294 -3.16026 0
M  V30 2376 H 215.231 -0.60575 -0.419805 0
M  V30 2377 H 217.873 -1.84732 -0.444314 0
M  V30 2378 H 216.023 -2.73158 -2.76255 0
M  V30 2379 H 217.695 -4.52995 -0.871365 0
M  V30 2380 H 215.938 -4.27247 -0.751159 0
M  V30 2381 H 216.609 -5.07337 -2.17516 0
M  V30 2382 H 219.085 -3.20641 -2.65195 0
M  V30 2383 H 217.961 -3.93283 -3.8291 0
M  V30 2384 H 218.222 -2.19579 -3.83715 0
M  V30 2385 N 217.281 0.66697 -1.42791 0
M  V30 2386 C 218.509 1.45505 -1.47091 0
M  V30 2387 C 218.924 1.8861 -0.0845873 0
M  V30 2388 O 218.281 1.58632 0.90234 0
M  V30 2389 C 218.332 2.69906 -2.40485 0
M  V30 2390 O 218.053 2.28608 -3.73725 0
M  V30 2391 C 219.554 3.63396 -2.53886 0
M  V30 2392 H 216.774 0.447459 -0.500022 0
M  V30 2393 H 219.318 0.818866 -1.8739 0
M  V30 2394 H 217.473 3.29696 -2.03419 0
M  V30 2395 H 217.887 3.08997 -4.23817 0
M  V30 2396 H 219.361 4.47387 -3.2334 0
M  V30 2397 H 219.838 4.09824 -1.57927 0
M  V30 2398 H 220.444 3.09495 -2.91706 0
M  V30 2399 N 218.759 1.29093 0.90403 0
M  V30 2400 C 220.17 1.15186 1.46932 0
M  V30 2401 C 220.521 -0.254587 1.94541 0
M  V30 2402 O 219.646 -1.14972 1.83332 0
M  V30 2403 C 220.241 2.08492 2.67051 0
M  V30 2404 C 218.8 1.98621 3.19729 0
M  V30 2405 C 217.947 1.9967 1.92425 0
M  V30 2406 H 220.898 1.41641 0.715789 0
M  V30 2407 H 220.919 1.65461 3.42641 0
M  V30 2408 H 220.431 3.10847 2.3237 0
M  V30 2409 H 218.532 0.993389 3.59114 0
M  V30 2410 H 218.645 2.86068 3.8432 0
M  V30 2411 H 217.009 1.44208 2.09943 0
M  V30 2412 H 217.792 3.03721 1.60026 0
M  V30 2413 N 220.237 -1.11381 1.11499 0
M  V30 2414 C 221.483 -1.83403 0.865512 0
M  V30 2415 C 221.816 -1.84459 -0.607329 0
M  V30 2416 O 221.091 -1.29811 -1.44842 0
M  V30 2417 C 221.374 -3.30552 1.42855 0
M  V30 2418 C 221.227 -3.37886 2.96906 0
M  V30 2419 C 222.546 -4.26643 1.08 0
M  V30 2420 H 219.665 -0.665879 0.31587 0
M  V30 2421 H 222.307 -1.30601 1.37998 0
M  V30 2422 H 220.457 -3.75648 0.990985 0
M  V30 2423 H 222.129 -3.01343 3.49271 0
M  V30 2424 H 220.372 -2.78088 3.32941 0
M  V30 2425 H 221.043 -4.41458 3.31389 0
M  V30 2426 H 223.519 -3.89729 1.45775 0
M  V30 2427 H 222.395 -5.27986 1.50072 0
M  V30 2428 H 222.656 -4.42099 -0.00915037 0
M  V30 2429 N 221.715 -0.905404 -1.28997 0
M  V30 2430 C 222.662 -0.385892 -2.27551 0
M  V30 2431 C 223.632 0.535113 -1.57244 0
M  V30 2432 O 224.817 0.459119 -1.85194 0
M  V30 2433 C 221.957 0.375461 -3.43051 0
M  V30 2434 C 221.07 -0.577092 -4.28128 0
M  V30 2435 C 220.205 0.201879 -5.30816 0
M  V30 2436 C 219.244 -0.744829 -6.07551 0
M  V30 2437 N 218.381 9.42587e-05 -7.021 0
M  V30 2438 H 223.221 -1.23139 -2.71368 0
M  V30 2439 H 220.758 -0.618542 -1.33463 0
M  V30 2440 H 222.716 0.832992 -4.088 0
M  V30 2441 H 221.346 1.18537 -3.00248 0
M  V30 2442 H 220.398 -1.15315 -3.62501 0
M  V30 2443 H 221.71 -1.30152 -4.8152 0
M  V30 2444 H 220.864 0.720351 -6.02408 0
M  V30 2445 H 219.603 0.959413 -4.7817 0
M  V30 2446 H 218.608 -1.27475 -5.34818 0
M  V30 2447 H 219.833 -1.50178 -6.62286 0
M  V30 2448 H 217.779 0.739791 -6.51815 0
M  V30 2449 H 217.696 -0.664321 -7.53076 0
M  V30 2450 H 218.964 0.498644 -7.77903 0
M  V30 2451 N 223.193 1.4272 -0.668489 0
M  V30 2452 C 224.141 2.32586 0.0254857 0
M  V30 2453 C 225.135 1.49471 0.797176 0
M  V30 2454 O 226.341 1.65583 0.705853 0
M  V30 2455 H 222.716 0.751514 0.0270339 0
M  V30 2456 H 224.687 2.88823 -0.749936 0
M  V30 2457 C 223.436 3.3397 0.967427 0
M  V30 2458 H 222.759 3.97961 0.383048 0
M  V30 2459 H 224.199 3.9945 1.42181 0
M  V30 2460 C 222.658 2.65744 2.0708 0
M  V30 2461 O 223.188 2.48454 3.15648 0
M  V30 2462 N 221.394 2.2487 1.8407 0
M  V30 2463 H 220.941 2.39132 0.95778 0
M  V30 2464 H 220.899 1.79552 2.58086 0
M  V30 2465 N 224.671 0.411399 1.52136 0
M  V30 2466 C 225.603 -0.448386 2.24771 0
M  V30 2467 C 226.616 -1.00828 1.27818 0
M  V30 2468 O 227.805 -0.906841 1.53749 0
M  V30 2469 C 224.905 -1.63636 2.96777 0
M  V30 2470 C 224.078 -1.19995 4.20618 0
M  V30 2471 C 223.137 -2.25509 4.75428 0
M  V30 2472 O 222.163 -1.86007 5.3795 0
M  V30 2473 N 223.365 -3.577 4.57199 0
M  V30 2474 H 226.13 0.174025 2.99194 0
M  V30 2475 H 223.691 0.238897 1.60128 0
M  V30 2476 H 225.683 -2.33793 3.30338 0
M  V30 2477 H 224.253 -2.16465 2.25526 0
M  V30 2478 H 223.473 -0.326421 3.92846 0
M  V30 2479 H 224.761 -0.885365 5.01038 0
M  V30 2480 H 224.159 -3.92543 4.07341 0
M  V30 2481 H 222.716 -4.23827 4.95191 0
M  V30 2482 N 226.149 -1.5696 0.141893 0
M  V30 2483 C 227.397 -1.95573 -0.509484 0
M  V30 2484 C 227.718 -1.02746 -1.65736 0
M  V30 2485 O 226.988 -0.0880311 -1.95702 0
M  V30 2486 H 225.568 -0.722115 -0.191205 0
M  V30 2487 H 228.23 -1.93697 0.216196 0
M  V30 2488 H 227.326 -2.99171 -0.889 0
M  V30 2489 N 227.627 0.131896 -1.57047 0
M  V30 2490 C 228.59 1.14638 -1.98471 0
M  V30 2491 C 229.59 1.35029 -0.873148 0
M  V30 2492 O 230.78 1.31764 -1.13946 0
M  V30 2493 C 227.912 2.50358 -2.31373 0
M  V30 2494 H 229.105 0.79064 -2.8929 0
M  V30 2495 H 226.658 0.375761 -1.51716 0
M  V30 2496 H 227.393 2.90876 -1.43393 0
M  V30 2497 H 227.178 2.36915 -3.12432 0
M  V30 2498 H 228.668 3.23395 -2.64207 0
M  V30 2499 N 229.106 1.52395 0.401703 0
M  V30 2500 C 230.346 1.68498 1.15705 0
M  V30 2501 C 230.71 0.409748 1.87577 0
M  V30 2502 O 231.911 0.446983 2.65058 0
M  V30 2503 C 230.182 2.87789 2.11924 0
M  V30 2504 S 231.741 3.24415 2.95466 0
M  V30 2505 H 228.559 0.593267 0.391862 0
M  V30 2506 H 231.161 1.90408 0.443282 0
M  V30 2507 H 229.865 3.7884 1.57824 0
M  V30 2508 H 229.396 2.68175 2.87829 0
M  V30 2509 H 231.411 2.73614 4.13944 0
M  V30 2510 N 230.584 -0.659388 1.43143 0
M  V30 2511 C 231.832 -1.41654 1.44147 0
M  V30 2512 C 232.153 -1.94893 0.0645739 0
M  V30 2513 O 231.423 -1.74044 -0.899198 0
M  V30 2514 H 230.003 -0.525708 0.530697 0
M  V30 2515 H 232.665 -0.778097 1.78694 0
M  V30 2516 H 231.761 -2.26195 2.1504 0
M  V30 2517 N 232.062 -1.29571 -0.897171 0
M  V30 2518 C 233.287 -1.20705 -1.68656 0
M  V30 2519 C 233.712 0.228582 -1.86706 0
M  V30 2520 O 233.07 1.16494 -1.3892 0
M  V30 2521 C 233.118 -1.9282 -3.04717 0
M  V30 2522 O 232.222 -1.24697 -3.93096 0
M  V30 2523 H 231.563 -0.418126 -0.515816 0
M  V30 2524 H 234.093 -1.71183 -1.12061 0
M  V30 2525 H 234.103 -2.01372 -3.54843 0
M  V30 2526 H 232.778 -2.97239 -2.90899 0
M  V30 2527 H 231.355 -1.2442 -3.51531 0
M  V30 2528 N 233.54 1.10788 -1.12088 0
M  V30 2529 C 234.78 1.84297 -0.883974 0
M  V30 2530 C 235.144 1.83036 0.579797 0
M  V30 2531 O 236.345 2.52061 0.933734 0
M  V30 2532 C 234.616 3.27173 -1.43849 0
M  V30 2533 S 236.175 4.17853 -1.33957 0
M  V30 2534 H 232.993 0.635433 -0.318977 0
M  V30 2535 H 235.595 1.33341 -1.4297 0
M  V30 2536 H 234.299 3.25658 -2.49749 0
M  V30 2537 H 233.83 3.83198 -0.890096 0
M  V30 2538 H 235.845 4.95239 -0.308603 0
M  V30 2539 N 235.018 0.912232 1.28515 0
M  V30 2540 C 236.264 0.554851 1.95686 0
M  V30 2541 C 236.619 -0.89138 1.70506 0
M  V30 2542 O 235.912 -1.62529 1.01464 0
M  V30 2543 C 236.106 0.798392 3.48368 0
M  V30 2544 C 235.935 2.26674 3.88393 0
M  V30 2545 C 234.705 2.91657 4.12631 0
M  V30 2546 C 236.903 3.24303 3.99164 0
M  V30 2547 N 234.885 4.28805 4.39317 0
M  V30 2548 C 236.256 4.4661 4.30046 0
M  V30 2549 C 238.311 3.19723 3.81683 0
M  V30 2550 C 237.014 5.64915 4.45268 0
M  V30 2551 C 239.04 4.37325 3.98121 0
M  V30 2552 C 238.402 5.58406 4.29375 0
M  V30 2553 H 234.501 0.252876 0.739985 0
M  V30 2554 H 237.085 1.17565 1.55199 0
M  V30 2555 H 235.256 0.20688 3.87849 0
M  V30 2556 H 236.988 0.405193 4.02666 0
M  V30 2557 H 233.743 2.42393 4.06869 0
M  V30 2558 H 234.167 4.99712 4.56746 0
M  V30 2559 H 238.809 2.27191 3.56573 0
M  V30 2560 H 236.527 6.57927 4.6921 0
M  V30 2561 H 240.113 4.35282 3.86033 0
M  V30 2562 H 238.993 6.47889 4.41825 0
M  V30 2563 N 236.496 -1.42363 0.676048 0
M  V30 2564 C 237.459 -2.29199 0.00766941 0
M  V30 2565 C 238.459 -1.43389 -0.727745 0
M  V30 2566 O 239.649 -1.64764 -0.56556 0
M  V30 2567 C 236.781 -3.2591 -0.999785 0
M  V30 2568 H 237.974 -2.89794 0.771988 0
M  V30 2569 H 235.527 -1.50024 0.438468 0
M  V30 2570 H 236.262 -2.70256 -1.79255 0
M  V30 2571 H 236.047 -3.89202 -0.475829 0
M  V30 2572 H 237.537 -3.91028 -1.46583 0
M  V30 2573 N 237.974 -0.419461 -1.51915 0
M  V30 2574 C 239.221 0.152939 -2.01922 0
M  V30 2575 C 239.549 1.4426 -1.30458 0
M  V30 2576 O 238.804 1.91514 -0.402593 0
M  V30 2577 C 239.103 0.437067 -3.54717 0
M  V30 2578 C 238.769 -0.764632 -4.44369 0
M  V30 2579 C 237.431 -1.09423 -4.68594 0
M  V30 2580 C 239.783 -1.56713 -4.97082 0
M  V30 2581 C 237.111 -2.22732 -5.42777 0
M  V30 2582 C 239.463 -2.69107 -5.72507 0
M  V30 2583 C 238.127 -3.02541 -5.95 0
M  V30 2584 H 237.397 0.0559644 -0.738884 0
M  V30 2585 H 240.044 -0.562998 -1.83037 0
M  V30 2586 H 238.349 1.23469 -3.71837 0
M  V30 2587 H 240.046 0.893083 -3.90928 0
M  V30 2588 H 236.636 -0.497775 -4.257 0
M  V30 2589 H 240.82 -1.32571 -4.78266 0
M  V30 2590 H 236.076 -2.48971 -5.58411 0
M  V30 2591 H 240.25 -3.31671 -6.12346 0
M  V30 2592 H 237.877 -3.90457 -6.52264 0
M  V30 2593 N 239.452 1.56882 -0.150215 0
M  V30 2594 C 240.677 2.01027 0.510184 0
M  V30 2595 C 241.102 1.02966 1.57415 0
M  V30 2596 O 240.46 0.00590158 1.81299 0
M  V30 2597 C 240.508 3.43899 1.08472 0
M  V30 2598 O 239.612 3.4885 2.19948 0
M  V30 2599 H 238.953 0.652233 0.124451 0
M  V30 2600 H 241.483 2.03093 -0.247894 0
M  V30 2601 H 241.493 3.82766 1.41259 0
M  V30 2602 H 240.168 4.14776 0.305582 0
M  V30 2603 H 238.745 3.21827 1.88366 0
M  V30 2604 N 240.93 -0.123565 1.57115 0
M  V30 2605 C 242.158 -0.846461 1.88793 0
M  V30 2606 C 242.573 -1.73652 0.740976 0
M  V30 2607 O 241.93 -1.80207 -0.288393 0
M  V30 2608 C 241.981 -1.6837 3.19897 0
M  V30 2609 O 241.702 -0.829477 4.30176 0
M  V30 2610 C 243.203 -2.51214 3.65248 0
M  V30 2611 H 240.423 -0.243573 0.625231 0
M  V30 2612 H 242.967 -0.109324 2.04208 0
M  V30 2613 H 241.122 -2.37364 3.06165 0
M  V30 2614 H 241.536 -1.40651 5.0529 0
M  V30 2615 H 243.01 -3.05497 4.59756 0
M  V30 2616 H 243.487 -3.28359 2.9168 0
M  V30 2617 H 244.093 -1.8747 3.81752 0
M  V30 2618 N 242.408 -1.52605 -0.393616 0
M  V30 2619 C 243.657 -1.66649 -1.13627 0
M  V30 2620 C 243.97 -0.410364 -1.91247 0
M  V30 2621 O 245.176 -0.430854 -2.68059 0
M  V30 2622 C 243.632 -2.9449 -2.06891 0
M  V30 2623 C 243.24 -4.27266 -1.34714 0
M  V30 2624 C 244.984 -3.17899 -2.81319 0
M  V30 2625 C 242.891 -5.46217 -2.26717 0
M  V30 2626 H 241.821 -0.62084 -0.427871 0
M  V30 2627 H 244.472 -1.791 -0.399428 0
M  V30 2628 H 242.854 -2.75774 -2.84191 0
M  V30 2629 H 244.028 -4.56518 -0.626714 0
M  V30 2630 H 242.343 -4.10081 -0.722643 0
M  V30 2631 H 244.94 -4.03949 -3.50328 0
M  V30 2632 H 245.283 -2.32777 -3.45139 0
M  V30 2633 H 245.816 -3.37159 -2.11113 0
M  V30 2634 H 242.555 -6.33733 -1.67521 0
M  V30 2635 H 242.075 -5.21283 -2.96689 0
M  V30 2636 H 243.754 -5.7991 -2.86903 0
M  V30 2637 N 243.887 0.651787 -1.4349 0
M  V30 2638 C 244.85 1.74647 -1.48429 0
M  V30 2639 C 245.85 1.56513 -0.368817 0
M  V30 2640 O 247.04 1.62385 -0.630623 0
M  V30 2641 C 244.172 3.13533 -1.33827 0
M  V30 2642 H 245.365 1.71649 -2.4592 0
M  V30 2643 H 242.918 0.863573 -1.30277 0
M  V30 2644 H 243.653 3.22142 -0.37349 0
M  V30 2645 H 243.438 3.28101 -2.14691 0
M  V30 2646 H 244.928 3.93356 -1.40218 0
M  V30 2647 N 245.365 1.30045 0.890287 0
M  V30 2648 C 246.593 1.21472 1.67487 0
M  V30 2649 C 247.008 -0.223241 1.87476 0
M  V30 2650 O 246.365 -1.14828 1.41847 0
M  V30 2651 C 246.416 1.93394 3.05419 0
M  V30 2652 O 246.137 3.31576 2.86337 0
M  V30 2653 C 247.638 1.91414 3.99844 0
M  V30 2654 H 244.858 0.420604 0.522813 0
M  V30 2655 H 247.402 1.7158 1.11268 0
M  V30 2656 H 245.557 1.47099 3.58386 0
M  V30 2657 H 245.971 3.67929 3.73802 0
M  V30 2658 H 247.445 2.46285 4.94012 0
M  V30 2659 H 247.922 0.891833 4.3005 0
M  V30 2660 H 248.528 2.37496 3.52811 0
M  V30 2661 N 246.843 -1.10192 1.12674 0
M  V30 2662 C 248.089 -1.82475 0.884915 0
M  V30 2663 C 248.422 -1.85093 -0.58773 0
M  V30 2664 O 247.697 -1.3134 -1.43457 0
M  V30 2665 C 247.98 -3.29018 1.46353 0
M  V30 2666 C 247.833 -3.34718 3.00473 0
M  V30 2667 C 249.152 -4.25473 1.12519 0
M  V30 2668 H 246.271 -0.662492 0.322915 0
M  V30 2669 H 248.913 -1.2913 1.39375 0
M  V30 2670 H 247.063 -3.74576 1.03077 0
M  V30 2671 H 248.735 -2.97622 3.52447 0
M  V30 2672 H 246.978 -2.74541 3.35872 0
M  V30 2673 H 247.649 -4.37918 3.36053 0
M  V30 2674 H 250.125 -3.88161 1.499 0
M  V30 2675 H 249.001 -5.26365 1.55663 0
M  V30 2676 H 249.262 -4.42084 0.0377407 0
M  V30 2677 N 248.321 -0.919034 -1.28029 0
M  V30 2678 C 249.231 -0.416756 -2.30869 0
M  V30 2679 C 250.247 0.498235 -1.66714 0
M  V30 2680 O 251.423 0.383144 -1.97722 0
M  V30 2681 C 248.488 0.330274 -3.45123 0
M  V30 2682 C 247.549 -0.618578 -4.2482 0
M  V30 2683 C 246.782 0.0928959 -5.33619 0
M  V30 2684 O 247.005 1.31375 -5.55065 0
M  V30 2685 O 245.939 -0.574499 -5.99152 0
M  V30 2686 H 249.765 -1.27043 -2.75851 0
M  V30 2687 H 247.35 -0.684052 -1.3282 0
M  V30 2688 H 249.232 0.751972 -4.14636 0
M  V30 2689 H 247.907 1.1597 -3.02213 0
M  V30 2690 H 246.814 -1.08978 -3.57875 0
M  V30 2691 H 248.147 -1.41497 -4.71423 0
M  V30 2692 N 249.799 1.42003 -0.683588 0
M  V30 2693 C 251.047 2.01015 -0.209101 0
M  V30 2694 C 251.368 1.54365 1.19149 0
M  V30 2695 O 250.638 0.769083 1.80172 0
M  V30 2696 H 249.218 0.743294 -0.074315 0
M  V30 2697 H 251.88 1.73798 -0.882066 0
M  V30 2698 H 250.976 3.11343 -0.2172 0
M  V30 2699 N 251.277 0.427512 1.51691 0
M  V30 2700 C 252.526 -0.143679 2.01188 0
M  V30 2701 C 252.839 -1.44642 1.31674 0
M  V30 2702 O 254.045 -2.09997 1.72086 0
M  V30 2703 C 252.501 -0.306602 3.58592 0
M  V30 2704 C 252.109 0.985125 4.37035 0
M  V30 2705 C 253.853 -0.832091 4.16265 0
M  V30 2706 C 251.76 0.788382 5.86122 0
M  V30 2707 H 250.69 -0.0574701 0.751807 0
M  V30 2708 H 253.341 0.555772 1.74881 0
M  V30 2709 H 251.723 -1.06882 3.81303 0
M  V30 2710 H 252.897 1.75492 4.26074 0
M  V30 2711 H 251.212 1.4384 3.90767 0
M  V30 2712 H 253.809 -0.995617 5.25349 0
M  V30 2713 H 254.152 -1.81186 3.74803 0
M  V30 2714 H 254.685 -0.128444 3.97593 0
M  V30 2715 H 251.424 1.74025 6.31978 0
M  V30 2716 H 250.944 0.0582143 5.99772 0
M  V30 2717 H 252.623 0.437722 6.45518 0
M  V30 2718 N 252.755 -1.56801 0.158532 0
M  V30 2719 C 253.703 -2.18638 -0.793729 0
M  V30 2720 C 254.697 -1.14669 -1.24689 0
M  V30 2721 O 255.903 -1.32895 -1.21403 0
M  V30 2722 H 252.278 -0.700226 -0.274204 0
M  V30 2723 H 254.249 -2.97367 -0.248095 0
M  V30 2724 C 252.998 -2.83139 -2.0181 0
M  V30 2725 H 252.321 -3.62863 -1.67841 0
M  V30 2726 H 253.761 -3.29894 -2.66357 0
M  V30 2727 C 252.22 -1.82244 -2.83353 0
M  V30 2728 O 252.75 -1.3 -3.80083 0
M  V30 2729 N 250.956 -1.51288 -2.48114 0
M  V30 2730 H 250.503 -1.93964 -1.69516 0
M  V30 2731 H 250.461 -0.840296 -3.02963 0
M  V30 2732 N 254.233 0.115231 -1.57178 0
M  V30 2733 C 255.18 1.14115 -2.00615 0
M  V30 2734 C 256.15 1.40939 -0.878941 0
M  V30 2735 O 257.335 1.52741 -1.14345 0
M  V30 2736 C 254.475 2.46156 -2.4187 0
M  V30 2737 C 253.588 2.26236 -3.68024 0
M  V30 2738 C 252.723 3.51534 -3.98243 0
M  V30 2739 C 251.762 3.26787 -5.17568 0
M  V30 2740 N 250.899 4.44298 -5.43639 0
M  V30 2741 H 255.739 0.763743 -2.88047 0
M  V30 2742 H 253.276 0.365615 -1.42484 0
M  V30 2743 H 255.234 3.23189 -2.63827 0
M  V30 2744 H 253.864 2.81783 -1.57475 0
M  V30 2745 H 252.916 1.40102 -3.5366 0
M  V30 2746 H 254.228 2.03929 -4.55208 0
M  V30 2747 H 253.382 4.36984 -4.20868 0
M  V30 2748 H 252.121 3.76876 -3.09541 0
M  V30 2749 H 251.126 2.39729 -4.94783 0
M  V30 2750 H 252.351 3.02812 -6.0785 0
M  V30 2751 H 250.297 4.69754 -4.57895 0
M  V30 2752 H 250.214 4.25109 -6.25154 0
M  V30 2753 H 251.482 5.3087 -5.70786 0
M  V30 2754 N 255.711 1.52812 0.385517 0
M  V30 2755 C 256.96 1.67249 1.12741 0
M  V30 2756 C 257.273 0.4205 1.91027 0
M  V30 2757 O 258.479 0.445064 2.67827 0
M  V30 2758 C 256.935 2.95583 2.05326 0
M  V30 2759 C 256.543 4.27974 1.32447 0
M  V30 2760 C 258.287 3.19386 2.7963 0
M  V30 2761 C 256.194 5.47412 2.23818 0
M  V30 2762 H 255.124 0.6231 0.424573 0
M  V30 2763 H 257.775 1.79309 0.389924 0
M  V30 2764 H 256.157 2.77277 2.82725 0
M  V30 2765 H 257.331 4.56844 0.602495 0
M  V30 2766 H 255.646 4.10459 0.700885 0
M  V30 2767 H 258.243 4.05801 3.48181 0
M  V30 2768 H 258.586 2.34604 3.43899 0
M  V30 2769 H 259.119 3.38274 2.09322 0
M  V30 2770 H 255.858 6.34612 1.64157 0
M  V30 2771 H 255.378 5.22849 2.93921 0
M  V30 2772 H 257.057 5.81423 2.83824 0
M  V30 2773 N 257.189 -0.644168 1.43834 0
M  V30 2774 C 258.435 -1.40603 1.46146 0
M  V30 2775 C 258.768 -1.93997 0.0887717 0
M  V30 2776 O 258.043 -1.72854 -0.891724 0
M  V30 2777 C 258.326 -2.58086 2.51124 0
M  V30 2778 C 258.179 -2.10126 3.97702 0
M  V30 2779 C 259.498 -3.60291 2.52742 0
M  V30 2780 H 256.617 -0.509905 0.532134 0
M  V30 2781 H 259.259 -0.729502 1.75437 0
M  V30 2782 H 257.409 -3.15801 2.26278 0
M  V30 2783 H 259.081 -1.57342 4.33637 0
M  V30 2784 H 257.324 -1.41419 4.10101 0
M  V30 2785 H 257.995 -2.94649 4.66783 0
M  V30 2786 H 260.471 -3.12352 2.7491 0
M  V30 2787 H 259.347 -4.40032 3.28121 0
M  V30 2788 H 259.608 -4.1349 1.56455 0
M  V30 2789 N 258.668 -1.30515 -0.883378 0
M  V30 2790 C 259.896 -1.22359 -1.66841 0
M  V30 2791 C 260.311 0.213296 -1.87591 0
M  V30 2792 O 259.668 1.14075 -1.42454 0
M  V30 2793 C 259.719 -1.95011 -3.04389 0
M  V30 2794 O 259.44 -3.3309 -2.84575 0
M  V30 2795 C 260.941 -1.93532 -3.98824 0
M  V30 2796 H 258.161 -0.423371 -0.520575 0
M  V30 2797 H 260.705 -1.72167 -1.10357 0
M  V30 2798 H 258.86 -1.48997 -3.57601 0
M  V30 2799 H 259.274 -3.69907 -3.71846 0
M  V30 2800 H 260.748 -2.48902 -4.92699 0
M  V30 2801 H 261.225 -0.914627 -4.29571 0
M  V30 2802 H 261.831 -2.39364 -3.51547 0
M  V30 2803 N 260.146 1.09593 -1.13257 0
M  V30 2804 C 261.394 1.81375 -0.891492 0
M  V30 2805 C 261.715 1.86049 0.584009 0
M  V30 2806 O 260.985 1.34481 1.42449 0
M  V30 2807 H 259.565 0.671708 -0.326828 0
M  V30 2808 H 262.227 1.3256 -1.42877 0
M  V30 2809 H 261.323 2.84612 -1.28071 0
M  V30 2810 N 261.624 0.925811 1.2754 0
M  V30 2811 C 262.572 0.413897 2.28888 0
M  V30 2812 C 263.566 -0.500779 1.61829 0
M  V30 2813 O 264.772 -0.38069 1.75928 0
M  V30 2814 H 261.147 0.115274 0.743112 0
M  V30 2815 H 263.118 1.28151 2.69481 0
M  V30 2816 C 261.867 -0.319792 3.46226 0
M  V30 2817 H 261.19 0.374846 3.98039 0
M  V30 2818 H 262.63 -0.642435 4.19105 0
M  V30 2819 C 261.089 -1.53209 3.00048 0
M  V30 2820 O 261.619 -2.6309 3.03557 0
M  V30 2821 N 259.825 -1.38326 2.55566 0
M  V30 2822 H 259.372 -0.489292 2.5291 0
M  V30 2823 H 259.33 -2.19564 2.25031 0
M  V30 2824 N 263.102 -1.41638 0.69111 0
M  V30 2825 C 264.032 -2.3347 0.037248 0
M  V30 2826 C 265.013 -1.51575 -0.771947 0
M  V30 2827 O 266.198 -1.80126 -0.72582 0
M  V30 2828 C 263.328 -3.35354 -0.903064 0
M  V30 2829 C 262.282 -4.27526 -0.201288 0
M  V30 2830 C 261.608 -5.19747 -1.25565 0
M  V30 2831 C 262.908 -5.13959 0.929689 0
M  V30 2832 H 264.602 -2.88397 0.804227 0
M  V30 2833 H 262.148 -1.38669 0.388189 0
M  V30 2834 H 264.101 -3.98519 -1.36969 0
M  V30 2835 H 262.825 -2.78767 -1.70166 0
M  V30 2836 H 261.484 -3.65779 0.245265 0
M  V30 2837 H 261.132 -4.59479 -2.04666 0
M  V30 2838 H 260.832 -5.8225 -0.791128 0
M  V30 2839 H 262.356 -5.85789 -1.72288 0
M  V30 2840 H 263.77 -5.70718 0.543546 0
M  V30 2841 H 262.167 -5.85379 1.32103 0
M  V30 2842 H 263.237 -4.51389 1.77133 0
M  V30 2843 N 264.58 -0.43555 -1.51462 0
M  V30 2844 C 265.51 0.367376 -2.30592 0
M  V30 2845 C 266.491 1.02263 -1.35928 0
M  V30 2846 O 267.676 1.02661 -1.64847 0
M  V30 2847 C 264.806 1.46983 -3.14664 0
M  V30 2848 C 263.76 0.938161 -4.17591 0
M  V30 2849 C 263.086 2.13622 -4.90173 0
M  V30 2850 C 264.386 -0.0261621 -5.22293 0
M  V30 2851 H 266.08 -0.292969 -2.97963 0
M  V30 2852 H 263.626 -0.14234 -1.43295 0
M  V30 2853 H 265.579 2.03873 -3.688 0
M  V30 2854 H 264.303 2.15843 -2.4511 0
M  V30 2855 H 262.962 0.391481 -3.64504 0
M  V30 2856 H 262.61 2.81098 -4.17124 0
M  V30 2857 H 262.31 1.78688 -5.59772 0
M  V30 2858 H 263.834 2.7107 -5.47132 0
M  V30 2859 H 265.248 0.452384 -5.71512 0
M  V30 2860 H 263.645 -0.287992 -5.99409 0
M  V30 2861 H 264.715 -0.963391 -4.75233 0
M  V30 2862 N 266.058 1.56714 -0.166846 0
M  V30 2863 C 266.968 2.21331 0.777791 0
M  V30 2864 C 267.984 1.20358 1.25658 0
M  V30 2865 O 269.16 1.53005 1.30964 0
M  V30 2866 C 266.225 2.83787 1.99163 0
M  V30 2867 C 265.286 3.99947 1.56016 0
M  V30 2868 C 264.519 4.59415 2.71613 0
M  V30 2869 O 264.742 4.17769 3.88362 0
M  V30 2870 O 263.676 5.49359 2.45945 0
M  V30 2871 H 267.502 3.02605 0.257636 0
M  V30 2872 H 265.087 1.49275 0.0611393 0
M  V30 2873 H 266.969 3.23405 2.70161 0
M  V30 2874 H 265.644 2.05513 2.50092 0
M  V30 2875 H 264.551 3.65007 0.819809 0
M  V30 2876 H 265.884 4.79801 1.09782 0
M  V30 2877 N 267.536 -0.106894 1.57237 0
M  V30 2878 C 268.466 -1.13148 2.04254 0
M  V30 2879 C 269.447 -1.42476 0.929224 0
M  V30 2880 O 270.632 -1.52709 1.19973 0
M  V30 2881 C 267.762 -2.4545 2.45706 0
M  V30 2882 C 266.716 -2.30558 3.60592 0
M  V30 2883 C 266.042 -3.67931 3.87983 0
M  V30 2884 C 267.342 -1.75597 4.91897 0
M  V30 2885 H 269.036 -0.740374 2.90101 0
M  V30 2886 H 266.582 -0.354696 1.39563 0
M  V30 2887 H 268.535 -3.17389 2.77205 0
M  V30 2888 H 267.259 -2.86475 1.56843 0
M  V30 2889 H 265.918 -1.61067 3.29322 0
M  V30 2890 H 265.566 -4.06462 2.96306 0
M  V30 2891 H 265.266 -3.58817 4.65322 0
M  V30 2892 H 266.79 -4.41356 4.21945 0
M  V30 2893 H 268.204 -2.37364 5.21854 0
M  V30 2894 H 266.601 -1.77272 5.73319 0
M  V30 2895 H 267.671 -0.714451 4.79608 0
M  V30 2896 N 269.014 -1.53014 -0.377408 0
M  V30 2897 C 270.239 -1.72818 -1.14668 0
M  V30 2898 C 270.664 -0.450725 -1.8262 0
M  V30 2899 O 270.022 0.59439 -1.7128 0
M  V30 2900 C 270.07 -2.88627 -2.16164 0
M  V30 2901 O 269.174 -2.56409 -3.22998 0
M  V30 2902 H 268.515 -0.574301 -0.333278 0
M  V30 2903 H 271.045 -1.99853 -0.438152 0
M  V30 2904 H 271.055 -3.14455 -2.59966 0
M  V30 2905 H 269.73 -3.81294 -1.66095 0
M  V30 2906 H 268.307 -2.4136 -2.84253 0
M  V30 2907 N 270.492 0.636531 -1.44174 0
M  V30 2908 C 271.402 1.77754 -1.53103 0
M  V30 2909 C 272.418 1.68928 -0.417034 0
M  V30 2910 O 273.594 1.89801 -0.6736 0
M  V30 2911 C 270.659 3.14115 -1.46741 0
M  V30 2912 C 269.72 3.34612 -2.68948 0
M  V30 2913 C 268.953 4.64467 -2.6288 0
M  V30 2914 O 269.176 5.44919 -1.68581 0
M  V30 2915 O 268.11 4.87049 -3.53648 0
M  V30 2916 H 271.936 1.73174 -2.49489 0
M  V30 2917 H 269.521 0.79709 -1.2636 0
M  V30 2918 H 271.403 3.95412 -1.45696 0
M  V30 2919 H 270.078 3.19249 -0.534975 0
M  V30 2920 H 268.985 2.53014 -2.75562 0
M  V30 2921 H 270.318 3.34336 -3.61221 0
M  V30 2922 N 271.97 1.30982 0.876444 0
M  V30 2923 C 272.902 1.13902 1.98894 0
M  V30 2924 C 273.915 0.0798815 1.62604 0
M  V30 2925 O 275.104 0.326743 1.75484 0
M  V30 2926 C 272.204 0.716699 3.31235 0
M  V30 2927 C 271.377 1.85945 3.95908 0
M  V30 2928 C 270.436 1.42426 5.06558 0
M  V30 2929 O 269.462 2.13287 5.27729 0
M  V30 2930 N 270.664 0.308025 5.79682 0
M  V30 2931 H 273.429 2.09724 2.14094 0
M  V30 2932 H 270.99 1.2323 1.05004 0
M  V30 2933 H 272.982 0.408403 4.02634 0
M  V30 2934 H 271.552 -0.149719 3.12241 0
M  V30 2935 H 270.772 2.33541 3.17573 0
M  V30 2936 H 272.06 2.62503 4.35855 0
M  V30 2937 H 271.458 -0.282241 5.64995 0
M  V30 2938 H 270.015 0.0592282 6.51773 0
M  V30 2939 N 273.449 -1.08991 1.13837 0
M  V30 2940 C 274.359 -2.19301 0.833333 0
M  V30 2941 C 275.375 -1.73026 -0.183847 0
M  V30 2942 O 276.551 -2.01395 -0.0138092 0
M  V30 2943 C 273.616 -3.45323 0.308651 0
M  V30 2944 C 272.677 -4.06255 1.38764 0
M  V30 2945 C 271.91 -5.26262 0.887896 0
M  V30 2946 O 272.133 -5.69747 -0.27287 0
M  V30 2947 O 271.067 -5.78435 1.66421 0
M  V30 2948 H 274.893 -2.47854 1.75506 0
M  V30 2949 H 272.478 -1.18012 0.916166 0
M  V30 2950 H 274.36 -4.21394 0.0216739 0
M  V30 2951 H 273.035 -3.18362 -0.585431 0
M  V30 2952 H 271.942 -3.318 1.72799 0
M  V30 2953 H 273.275 -4.37452 2.25602 0
M  V30 2954 N 274.927 -0.932562 -1.27047 0
M  V30 2955 C 275.857 -0.452902 -2.29066 0
M  V30 2956 C 276.838 0.489338 -1.62909 0
M  V30 2957 O 278.023 0.393046 -1.90181 0
M  V30 2958 C 275.153 0.290698 -3.46081 0
M  V30 2959 C 274.107 -0.564168 -4.24265 0
M  V30 2960 C 273.433 0.308886 -5.33807 0
M  V30 2961 C 274.733 -1.83112 -4.89149 0
M  V30 2962 H 276.427 -1.30552 -2.69437 0
M  V30 2963 H 273.973 -0.629201 -1.29526 0
M  V30 2964 H 275.926 0.637233 -4.16554 0
M  V30 2965 H 274.65 1.17738 -3.0464 0
M  V30 2966 H 273.309 -0.893477 -3.55545 0
M  V30 2967 H 272.957 1.19467 -4.88607 0
M  V30 2968 H 272.657 -0.259633 -5.87026 0
M  V30 2969 H 274.181 0.650884 -6.07121 0
M  V30 2970 H 275.595 -1.55236 -5.51883 0
M  V30 2971 H 273.992 -2.34353 -5.52448 0
M  V30 2972 H 275.062 -2.54772 -4.12576 0
M  V30 2973 N 276.405 1.4127 -0.698611 0
M  V30 2974 C 277.651 2.01478 -0.231207 0
M  V30 2975 C 277.984 1.55215 1.16713 0
M  V30 2976 O 277.259 0.764672 1.78838 0
M  V30 2977 C 277.542 3.58912 -0.292281 0
M  V30 2978 C 277.395 4.15293 -1.72778 0
M  V30 2979 C 278.714 4.38736 0.346194 0
M  V30 2980 H 275.833 0.732025 -0.0854878 0
M  V30 2981 H 278.475 1.67977 -0.887906 0
M  V30 2982 H 276.625 3.87582 0.26686 0
M  V30 2983 H 278.297 3.97486 -2.341 0
M  V30 2984 H 276.54 3.7022 -2.26096 0
M  V30 2985 H 277.211 5.24452 -1.72202 0
M  V30 2986 H 279.687 4.15897 -0.130035 0
M  V30 2987 H 278.563 5.48221 0.272932 0
M  V30 2988 H 278.824 4.18425 1.42734 0
M  V30 2989 N 277.883 0.443576 1.51229 0
M  V30 2990 C 279.16 -0.181038 1.9476 0
M  V30 2991 C 279.54 -1.59523 1.38259 0
M  V30 2992 O 278.888 -2.2122 0.572198 0
M  V30 2993 C 279.098 -0.152422 3.48667 0
M  V30 2994 C 280.446 -0.354923 4.23114 0
M  V30 2995 O 281.47 -0.230257 3.55455 0
M  V30 2996 O 280.329 -0.603674 5.43156 0
M  V30 2997 H 277.423 -0.1266 0.817252 0
M  V30 2998 H 279.969 0.502004 1.62105 0
M  V30 2999 H 278.741 0.836022 3.82265 0
M  V30 3000 H 278.364 -0.878107 3.87782 0
M  V30 3001 N 279.361 -1.56624 0.175154 0
M  V30 3002 C 280.601 -1.98894 -0.471221 0
M  V30 3003 C 280.965 -1.05889 -1.60161 0
M  V30 3004 O 282.166 -1.37315 -2.3108 0
M  V30 3005 C 280.437 -3.44865 -0.938241 0
M  V30 3006 S 281.996 -4.09164 -1.58526 0
M  V30 3007 H 278.814 -0.694686 -0.151434 0
M  V30 3008 H 281.416 -1.93577 0.27352 0
M  V30 3009 H 280.12 -4.10265 -0.10518 0
M  V30 3010 H 279.651 -3.53956 -1.71693 0
M  V30 3011 H 281.666 -4.04528 -2.87352 0
M  V30 3012 N 280.839 0.0985539 -1.57292 0
M  V30 3013 C 282.116 0.834155 -1.76921 0
M  V30 3014 C 282.496 1.97101 -0.755928 0
M  V30 3015 O 281.844 2.27474 0.216245 0
M  V30 3016 C 282.054 1.33194 -3.22584 0
M  V30 3017 C 283.402 1.77611 -3.85668 0
M  V30 3018 O 284.426 1.42825 -3.26312 0
M  V30 3019 O 283.285 2.4192 -4.90038 0
M  V30 3020 H 280.379 0.397628 -0.725135 0
M  V30 3021 H 282.925 0.0807044 -1.69508 0
M  V30 3022 H 281.697 0.517248 -3.87866 0
M  V30 3023 H 281.32 2.1475 -3.34616 0
M  V30 3024 N 282.317 1.53212 0.369288 0
M  V30 3025 C 283.264 1.79388 1.45219 0
M  V30 3026 C 284.234 0.638059 1.53356 0
M  V30 3027 O 285.419 0.879852 1.69302 0
M  V30 3028 C 282.559 1.98623 2.82211 0
M  V30 3029 C 281.672 3.26337 2.8307 0
M  V30 3030 C 280.807 3.35779 4.11614 0
M  V30 3031 C 279.846 4.5754 4.06601 0
M  V30 3032 N 278.983 4.64155 5.26787 0
M  V30 3033 H 283.823 2.71794 1.22198 0
M  V30 3034 H 281.36 1.34642 0.592444 0
M  V30 3035 H 283.318 2.07761 3.61789 0
M  V30 3036 H 281.948 1.09558 3.03639 0
M  V30 3037 H 281 3.26171 1.95747 0
M  V30 3038 H 282.312 4.15988 2.75237 0
M  V30 3039 H 281.466 3.44208 4.99606 0
M  V30 3040 H 280.205 2.44137 4.22195 0
M  V30 3041 H 279.21 4.49215 3.16996 0
M  V30 3042 H 280.435 5.50519 3.97625 0
M  V30 3043 H 278.381 3.75413 5.3796 0
M  V30 3044 H 278.298 5.47706 5.21109 0
M  V30 3045 H 279.566 4.76863 6.16621 0
M  V30 3046 N 283.795 -0.628877 1.44509 0
M  V30 3047 C 284.745 -1.7345 1.47983 0
M  V30 3048 C 285.729 -1.5715 0.345373 0
M  V30 3049 O 286.921 -1.66848 0.590829 0
M  V30 3050 C 284.05 -3.12143 1.42904 0
M  V30 3051 C 283.136 -3.33906 2.61472 0
M  V30 3052 N 283.527 -3.26024 3.86706 0
M  V30 3053 C 281.825 -3.64709 2.56716 0
M  V30 3054 C 282.526 -3.48536 4.65722 0
M  V30 3055 N 281.502 -3.71517 3.96832 0
M  V30 3056 H 285.304 -1.65818 2.42655 0
M  V30 3057 H 282.818 -0.831419 1.39503 0
M  V30 3058 H 284.815 -3.91433 1.43476 0
M  V30 3059 H 283.475 -3.2094 0.492717 0
M  V30 3060 H 284.486 -3.04893 4.18641 0
M  V30 3061 H 281.163 -3.80473 1.71891 0
M  V30 3062 H 282.553 -3.48016 5.74747 0
M  V30 3063 N 285.273 -1.31445 -0.869486 0
M  V30 3064 C 286.498 -1.24256 -1.66058 0
M  V30 3065 C 286.923 0.188928 -1.87149 0
M  V30 3066 O 286.281 1.13522 -1.4136 0
M  V30 3067 C 286.329 -1.9924 -3.00559 0
M  V30 3068 O 285.433 -1.33007 -3.90362 0
M  V30 3069 H 284.774 -0.428973 -0.506831 0
M  V30 3070 H 287.304 -1.73521 -1.08404 0
M  V30 3071 H 287.314 -2.08854 -3.50491 0
M  V30 3072 H 285.989 -3.03342 -2.84528 0
M  V30 3073 H 284.566 -1.31848 -3.48813 0
M  V30 3074 N 286.751 1.08385 -1.14413 0
M  V30 3075 C 287.981 1.8425 -0.934644 0
M  V30 3076 C 288.389 1.81907 0.520234 0
M  V30 3077 O 287.732 1.22126 1.37226 0
M  V30 3078 C 287.794 3.32853 -1.35828 0
M  V30 3079 C 287.458 3.5893 -2.82875 0
M  V30 3080 C 288.455 3.53756 -3.80989 0
M  V30 3081 C 286.14 3.86934 -3.20293 0
M  V30 3082 C 288.134 3.76216 -5.14529 0
M  V30 3083 C 285.821 4.09047 -4.54008 0
M  V30 3084 C 286.819 4.03682 -5.50936 0
M  V30 3085 O 286.507 4.25214 -6.82238 0
M  V30 3086 H 286.239 0.588502 -0.332628 0
M  V30 3087 H 288.793 1.37792 -1.52324 0
M  V30 3088 H 287.023 3.8007 -0.713019 0
M  V30 3089 H 288.712 3.90154 -1.11957 0
M  V30 3090 H 289.478 3.32135 -3.53428 0
M  V30 3091 H 285.357 3.9023 -2.45442 0
M  V30 3092 H 288.901 3.71943 -5.90173 0
M  V30 3093 H 284.798 4.30151 -4.8129 0
M  V30 3094 H 285.566 4.42619 -6.88499 0
M  V30 3095 N 288.23 0.939286 1.26551 0
M  V30 3096 C 289.478 0.58469 1.93457 0
M  V30 3097 C 289.799 -0.878774 1.74076 0
M  V30 3098 O 289.069 -1.62421 1.09528 0
M  V30 3099 H 287.649 0.21325 0.715914 0
M  V30 3100 H 290.311 1.1942 1.54029 0
M  V30 3101 H 289.407 0.800849 3.0165 0
M  V30 3102 N 289.708 -1.40897 0.706093 0
M  V30 3103 C 290.948 -2.02916 0.245827 0
M  V30 3104 C 291.312 -1.54751 -1.13649 0
M  V30 3105 O 292.513 -2.08768 -1.69321 0
M  V30 3106 C 290.784 -3.56031 0.312537 0
M  V30 3107 S 292.343 -4.38741 -0.0721388 0
M  V30 3108 H 289.161 -0.704186 0.0982007 0
M  V30 3109 H 291.763 -1.72168 0.926207 0
M  V30 3110 H 290.467 -3.88579 1.32039 0
M  V30 3111 H 289.998 -3.91495 -0.386641 0
M  V30 3112 H 292.013 -4.78952 -1.29692 0
M  V30 3113 N 291.186 -0.45159 -1.50991 0
M  V30 3114 C 292.133 0.352625 -2.2809 0
M  V30 3115 C 293.103 1.0044 -1.32291 0
M  V30 3116 O 294.288 1.02058 -1.6121 0
M  V30 3117 C 291.428 1.43983 -3.13629 0
M  V30 3118 C 290.541 0.804772 -4.24438 0
M  V30 3119 C 289.676 1.86822 -4.97263 0
M  V30 3120 C 288.715 1.21236 -5.99973 0
M  V30 3121 N 287.852 2.2178 -6.66152 0
M  V30 3122 H 292.692 -0.311186 -2.96371 0
M  V30 3123 H 290.229 -0.165308 -1.46168 0
M  V30 3124 H 292.187 2.08161 -3.61559 0
M  V30 3125 H 290.817 2.07307 -2.47434 0
M  V30 3126 H 289.869 0.0509129 -3.80366 0
M  V30 3127 H 291.181 0.286076 -4.97979 0
M  V30 3128 H 290.335 2.58628 -5.48813 0
M  V30 3129 H 289.074 2.42068 -4.23385 0
M  V30 3130 H 288.079 0.479828 -5.47702 0
M  V30 3131 H 289.304 0.667051 -6.75816 0
M  V30 3132 H 287.25 2.76079 -5.95077 0
M  V30 3133 H 287.167 1.74841 -7.35504 0
M  V30 3134 H 288.435 2.93026 -7.22327 0
M  V30 3135 N 292.664 1.56529 -0.183458 0
M  V30 3136 C 293.912 1.96855 0.457452 0
M  V30 3137 C 294.233 1.07104 1.62953 0
M  V30 3138 O 293.503 0.139887 1.954 0
M  V30 3139 H 292.083 0.72693 0.171992 0
M  V30 3140 H 294.745 1.93056 -0.267476 0
M  V30 3141 H 293.841 3.01423 0.809368 0
M  V30 3142 N 294.142 -0.090211 1.57342 0
M  V30 3143 C 295.39 -0.791241 1.85967 0
M  V30 3144 C 295.711 -1.7903 0.772859 0
M  V30 3145 O 294.981 -1.94872 -0.200398 0
M  V30 3146 H 293.561 -0.295205 0.686195 0
M  V30 3147 H 296.223 -0.0706782 1.94772 0
M  V30 3148 H 295.319 -1.31882 2.82867 0
M  V30 3149 N 295.62 -1.53406 -0.361157 0
M  V30 3150 C 296.85 -1.73465 -1.1222 0
M  V30 3151 C 297.258 -0.465486 -1.83384 0
M  V30 3152 O 296.601 0.571611 -1.7458 0
M  V30 3153 C 296.663 -2.84834 -2.19339 0
M  V30 3154 C 296.327 -4.25038 -1.67903 0
M  V30 3155 C 297.324 -5.07231 -1.14074 0
M  V30 3156 C 295.009 -4.71464 -1.73282 0
M  V30 3157 C 297.003 -6.33942 -0.663068 0
M  V30 3158 C 294.69 -5.98153 -1.25127 0
M  V30 3159 C 295.688 -6.79223 -0.717296 0
M  V30 3160 O 295.376 -8.03533 -0.242865 0
M  V30 3161 H 295.108 -0.583526 -0.341283 0
M  V30 3162 H 297.662 -2.00964 -0.424591 0
M  V30 3163 H 295.892 -2.5282 -2.92607 0
M  V30 3164 H 297.581 -2.9303 -2.80871 0
M  V30 3165 H 298.347 -4.72534 -1.09254 0
M  V30 3166 H 294.226 -4.08432 -2.13786 0
M  V30 3167 H 297.77 -6.97167 -0.245612 0
M  V30 3168 H 293.667 -6.32347 -1.29642 0
M  V30 3169 H 294.435 -8.177 -0.361786 0
M  V30 3170 N 297.098 0.621204 -1.44841 0
M  V30 3171 C 298.03 1.74615 -1.48466 0
M  V30 3172 C 299.043 1.58377 -0.37691 0
M  V30 3173 O 300.232 1.66508 -0.643215 0
M  V30 3174 C 297.332 3.12459 -1.31236 0
M  V30 3175 C 296.505 3.55064 -2.55438 0
M  V30 3176 C 295.564 4.71821 -2.32963 0
M  V30 3177 O 294.59 4.79628 -3.06505 0
M  V30 3178 N 295.792 5.64186 -1.36654 0
M  V30 3179 H 298.557 1.71973 -2.45449 0
M  V30 3180 H 296.118 0.806077 -1.40407 0
M  V30 3181 H 298.11 3.88302 -1.14032 0
M  V30 3182 H 296.68 3.09686 -0.4258 0
M  V30 3183 H 295.9 2.69324 -2.87851 0
M  V30 3184 H 297.188 3.80284 -3.38026 0
M  V30 3185 H 296.586 5.6058 -0.759344 0
M  V30 3186 H 295.143 6.39618 -1.25425 0
M  V30 3187 N 298.576 1.31904 0.862503 0
M  V30 3188 C 299.804 1.24998 1.64873 0
M  V30 3189 C 300.219 -0.183425 1.87907 0
M  V30 3190 O 299.576 -1.11794 1.44251 0
M  V30 3191 C 299.627 1.99829 3.01248 0
M  V30 3192 O 299.348 3.37575 2.79239 0
M  V30 3193 C 300.849 1.99852 3.95694 0
M  V30 3194 H 298.069 0.431599 0.513773 0
M  V30 3195 H 300.613 1.73901 1.07604 0
M  V30 3196 H 298.768 1.54668 3.55185 0
M  V30 3197 H 299.182 3.75776 3.65914 0
M  V30 3198 H 300.656 2.56709 4.88676 0
M  V30 3199 H 301.133 0.982852 4.28062 0
M  V30 3200 H 301.739 2.44926 3.47694 0
M  V30 3201 N 300.054 -1.07777 1.14986 0
M  V30 3202 C 301.282 -1.84018 0.945773 0
M  V30 3203 C 301.697 -1.81897 -0.505863 0
M  V30 3204 O 301.054 -1.22726 -1.35072 0
M  V30 3205 C 301.105 -3.31287 1.44677 0
M  V30 3206 O 300.826 -3.33449 2.84154 0
M  V30 3207 C 302.327 -4.24311 1.28355 0
M  V30 3208 H 299.547 -0.580716 0.336169 0
M  V30 3209 H 302.091 -1.36077 1.52654 0
M  V30 3210 H 300.246 -3.76594 0.908625 0
M  V30 3211 H 300.66 -4.25427 3.06777 0
M  V30 3212 H 302.134 -5.2573 1.68261 0
M  V30 3213 H 302.611 -4.38612 0.227184 0
M  V30 3214 H 303.217 -3.84836 1.81056 0
M  V30 3215 N 301.532 -0.945985 -1.26051 0
M  V30 3216 C 302.757 -0.612525 -1.98149 0
M  V30 3217 C 303.182 0.806623 -1.69927 0
M  V30 3218 O 302.54 1.54411 -0.950108 0
M  V30 3219 C 302.588 -0.866981 -3.50023 0
M  V30 3220 O 301.692 0.0585333 -4.12358 0
M  V30 3221 H 301.033 -0.23379 -0.621481 0
M  V30 3222 H 303.563 -1.27023 -1.60395 0
M  V30 3223 H 303.573 -0.789792 -4.00283 0
M  V30 3224 H 302.248 -1.90135 -3.69894 0
M  V30 3225 H 300.825 -0.0701241 -3.72834 0
M  V30 3226 N 303.011 1.40521 -0.713556 0
M  V30 3227 C 303.941 2.33381 -0.0743864 0
M  V30 3228 C 304.922 1.52784 0.747735 0
M  V30 3229 O 306.107 1.81258 0.697071 0
M  V30 3230 C 303.237 3.36748 0.849598 0
M  V30 3231 C 302.191 4.27793 0.133247 0
M  V30 3232 C 301.517 5.21679 1.17281 0
M  V30 3233 C 302.817 5.12415 -1.01134 0
M  V30 3234 H 304.511 2.87081 -0.850007 0
M  V30 3235 H 302.057 1.38034 -0.410201 0
M  V30 3236 H 304.01 4.00648 1.30612 0
M  V30 3237 H 302.734 2.81439 1.65709 0
M  V30 3238 H 301.393 3.65342 -0.303426 0
M  V30 3239 H 301.041 4.62677 1.9733 0
M  V30 3240 H 300.741 5.83435 0.698397 0
M  V30 3241 H 302.265 5.88456 1.62947 0
M  V30 3242 H 303.679 5.69781 -0.634274 0
M  V30 3243 H 302.076 5.83203 -1.41399 0
M  V30 3244 H 303.146 4.48514 -1.84292 0
M  V30 3245 N 304.489 0.459591 1.5075 0
M  V30 3246 C 305.421 -0.37665 2.26084 0
M  V30 3247 C 306.434 -0.967109 1.30961 0
M  V30 3248 O 307.623 -0.857468 1.56556 0
M  V30 3249 C 304.723 -1.54112 3.01832 0
M  V30 3250 C 303.896 -1.06553 4.24223 0
M  V30 3251 C 302.955 -2.1027 4.82362 0
M  V30 3252 O 301.981 -1.68798 5.43595 0
M  V30 3253 N 303.183 -3.42974 4.68347 0
M  V30 3254 H 305.948 0.269124 2.98489 0
M  V30 3255 H 303.509 0.28972 1.59287 0
M  V30 3256 H 305.501 -2.23165 3.37608 0
M  V30 3257 H 304.071 -2.0918 2.32298 0
M  V30 3258 H 303.291 -0.201274 3.93686 0
M  V30 3259 H 304.579 -0.725516 5.03601 0
M  V30 3260 H 303.977 -3.79385 4.19623 0
M  V30 3261 H 302.534 -4.07858 5.08424 0
M  V30 3262 N 305.967 -1.56429 0.191757 0
M  V30 3263 C 307.197 -2.01574 -0.452928 0
M  V30 3264 C 307.605 -1.07107 -1.55964 0
M  V30 3265 O 306.948 -0.067534 -1.83576 0
M  V30 3266 C 307.01 -3.43121 -1.07278 0
M  V30 3267 C 306.674 -4.56879 -0.105214 0
M  V30 3268 C 307.671 -5.15379 0.684149 0
M  V30 3269 C 305.356 -5.023 0.00489824 0
M  V30 3270 C 307.35 -6.17746 1.57062 0
M  V30 3271 C 305.037 -6.04511 0.894935 0
M  V30 3272 C 306.035 -6.62108 1.67637 0
M  V30 3273 O 305.723 -7.62335 2.55149 0
M  V30 3274 H 305.455 -0.665554 -0.118379 0
M  V30 3275 H 308.009 -2.03245 0.296737 0
M  V30 3276 H 306.239 -3.38425 -1.87097 0
M  V30 3277 H 307.928 -3.72093 -1.62177 0
M  V30 3278 H 308.694 -4.81157 0.609365 0
M  V30 3279 H 304.573 -4.57168 -0.593156 0
M  V30 3280 H 308.117 -6.6263 2.181 0
M  V30 3281 H 304.014 -6.38157 0.970847 0
M  V30 3282 H 304.782 -7.79741 2.48892 0
M  V30 3283 N 307.445 0.0818655 -1.57387 0
M  V30 3284 C 308.691 0.784074 -1.8703 0
M  V30 3285 C 309.024 1.77729 -0.782689 0
M  V30 3286 O 308.299 1.93384 0.208051 0
M  V30 3287 C 308.582 1.50105 -3.27323 0
M  V30 3288 C 308.435 0.524925 -4.46727 0
M  V30 3289 C 309.754 2.44843 -3.65705 0
M  V30 3290 H 306.873 0.283582 -0.680257 0
M  V30 3291 H 309.515 0.0474352 -1.89941 0
M  V30 3292 H 307.665 2.12897 -3.24972 0
M  V30 3293 H 309.337 -0.0970111 -4.61198 0
M  V30 3294 H 307.58 -0.160606 -4.33503 0
M  V30 3295 H 308.251 1.064 -5.41648 0
M  V30 3296 H 310.727 1.92135 -3.69085 0
M  V30 3297 H 309.603 2.92018 -4.64776 0
M  V30 3298 H 309.864 3.29197 -2.95096 0
M  V30 3299 N 308.923 1.53595 0.353017 0
M  V30 3300 C 309.886 1.80232 1.41594 0
M  V30 3301 C 310.886 0.673081 1.46035 0
M  V30 3302 O 312.076 0.941335 1.46576 0
M  V30 3303 C 309.208 1.93578 2.80607 0
M  V30 3304 H 310.401 2.75174 1.19244 0
M  V30 3305 H 307.954 1.44864 0.586872 0
M  V30 3306 H 308.689 1.00746 3.08254 0
M  V30 3307 H 308.474 2.75724 2.78781 0
M  V30 3308 H 309.964 2.15735 3.57558 0
M  V30 3309 N 310.401 -0.613514 1.45168 0
M  V30 3310 C 311.349 -1.74572 1.53712 0
M  V30 3311 C 312.343 -1.64426 0.407505 0
M  V30 3312 O 313.549 -1.70291 0.583176 0
M  V30 3313 H 309.924 -0.576641 0.48269 0
M  V30 3314 H 311.895 -1.64492 2.48968 0
M  V30 3315 C 310.644 -3.12943 1.51532 0
M  V30 3316 H 309.967 -3.21407 2.37776 0
M  V30 3317 H 311.407 -3.9201 1.61569 0
M  V30 3318 C 309.866 -3.36053 0.238798 0
M  V30 3319 O 310.396 -3.95837 -0.6838 0
M  V30 3320 N 308.602 -2.9028 0.136359 0
M  V30 3321 H 308.149 -2.41811 0.887999 0
M  V30 3322 H 308.107 -3.06116 -0.716944 0
M  V30 3323 N 311.879 -1.3236 -0.855495 0
M  V30 3324 C 312.827 -1.2118 -1.9854 0
M  V30 3325 C 313.821 -0.116788 -1.68997 0
M  V30 3326 O 315.027 -0.279657 -1.77814 0
M  V30 3327 H 311.402 -0.375608 -0.651477 0
M  V30 3328 H 313.373 -2.16743 -2.05098 0
M  V30 3329 C 312.122 -0.950849 -3.34446 0
M  V30 3330 H 311.445 -1.78563 -3.57708 0
M  V30 3331 H 312.885 -0.912863 -4.14057 0
M  V30 3332 C 311.344 0.346404 -3.35114 0
M  V30 3333 O 311.874 1.35855 -3.7803 0
M  V30 3334 N 310.08 0.36808 -2.88259 0
M  V30 3335 H 309.627 -0.456102 -2.5353 0
M  V30 3336 H 309.585 1.23591 -2.89089 0
M  V30 3337 N 313.357 1.07166 -1.15556 0
M  V30 3338 C 314.605 1.79443 -0.929764 0
M  V30 3339 C 314.926 1.87246 0.544414 0
M  V30 3340 O 314.196 1.37473 1.39564 0
M  V30 3341 H 312.776 0.664625 -0.341003 0
M  V30 3342 H 315.438 1.29499 -1.45657 0
M  V30 3343 H 314.534 2.81832 -1.34079 0
M  V30 3344 N 314.835 0.952656 1.25548 0
M  V30 3345 C 316.081 0.607272 1.93494 0
M  V30 3346 C 316.414 -0.853245 1.74452 0
M  V30 3347 O 315.689 -1.61194 1.08843 0
M  V30 3348 C 315.972 0.96435 3.46947 0
M  V30 3349 C 315.825 2.48045 3.75225 0
M  V30 3350 C 317.144 0.487987 4.37386 0
M  V30 3351 H 314.263 0.222096 0.702739 0
M  V30 3352 H 316.905 1.18895 1.48203 0
M  V30 3353 H 315.055 0.469361 3.85654 0
M  V30 3354 H 316.727 3.04905 3.46166 0
M  V30 3355 H 314.97 2.919 3.209 0
M  V30 3356 H 315.641 2.6808 4.82532 0
M  V30 3357 H 318.117 0.912558 4.0597 0
M  V30 3358 H 316.993 0.766547 5.43521 0
M  V30 3359 H 317.254 -0.612063 4.37843 0
M  V30 3360 N 316.313 -1.40141 0.720998 0
M  V30 3361 C 317.263 -2.27949 0.0482544 0
M  V30 3362 C 318.247 -1.43538 -0.727021 0
M  V30 3363 O 319.439 -1.6658 -0.598332 0
M  V30 3364 C 316.568 -3.32126 -0.868729 0
M  V30 3365 C 315.654 -4.24008 -0.0883515 0
M  V30 3366 N 316.045 -4.97154 0.931226 0
M  V30 3367 C 314.343 -4.4485 -0.320105 0
M  V30 3368 C 315.044 -5.64587 1.4006 0
M  V30 3369 N 314.02 -5.38787 0.721752 0
M  V30 3370 H 317.822 -2.81948 0.829609 0
M  V30 3371 H 315.336 -1.52656 0.554067 0
M  V30 3372 H 317.333 -3.93884 -1.36605 0
M  V30 3373 H 315.993 -2.79687 -1.6494 0
M  V30 3374 H 317.004 -5.01 1.31222 0
M  V30 3375 H 313.681 -4.03378 -1.07668 0
M  V30 3376 H 315.071 -6.33175 2.24808 0
M  V30 3377 N 317.792 -0.46758 -1.50504 0
M  V30 3378 C 319.02 0.0864133 -2.06719 0
M  V30 3379 C 319.435 1.33819 -1.33184 0
M  V30 3380 O 318.792 1.78061 -0.400083 0
M  V30 3381 C 318.843 0.378079 -3.59517 0
M  V30 3382 O 318.564 -0.824044 -4.3028 0
M  V30 3383 C 320.065 0.979426 -4.32345 0
M  V30 3384 H 317.285 -0.00551697 -0.670977 0
M  V30 3385 H 319.829 -0.655354 -1.93715 0
M  V30 3386 H 317.984 1.06977 -3.72337 0
M  V30 3387 H 318.398 -0.566518 -5.21432 0
M  V30 3388 H 319.872 1.1333 -5.40241 0
M  V30 3389 H 320.349 1.9686 -3.9261 0
M  V30 3390 H 320.955 0.326216 -4.24047 0
M  V30 3391 N 319.27 1.56325 -0.20005 0
M  V30 3392 C 320.495 2.02548 0.44597 0
M  V30 3393 C 320.92 1.07922 1.5406 0
M  V30 3394 O 320.278 0.0635775 1.81188 0
M  V30 3395 C 320.326 3.47175 0.974761 0
M  V30 3396 O 319.43 3.55671 2.08739 0
M  V30 3397 H 318.771 0.655862 0.103638 0
M  V30 3398 H 321.301 2.02201 -0.312381 0
M  V30 3399 H 321.311 3.87067 1.2901 0
M  V30 3400 H 319.986 4.15538 0.17347 0
M  V30 3401 H 318.563 3.27657 1.78032 0
M  V30 3402 N 320.748 -0.0735177 1.57428 0
M  V30 3403 C 321.695 -1.08756 2.0357 0
M  V30 3404 C 322.665 -1.38559 0.916 0
M  V30 3405 O 323.85 -1.49656 1.18354 0
M  V30 3406 C 320.99 -2.39657 2.48311 0
M  V30 3407 C 320.103 -2.16399 3.73892 0
M  V30 3408 C 319.238 -3.40852 4.07423 0
M  V30 3409 C 318.277 -3.1295 5.2605 0
M  V30 3410 N 317.414 -4.29729 5.55228 0
M  V30 3411 H 322.254 -0.687104 2.8997 0
M  V30 3412 H 319.791 -0.327709 1.43403 0
M  V30 3413 H 321.749 -3.16081 2.72303 0
M  V30 3414 H 320.379 -2.77508 1.64891 0
M  V30 3415 H 319.431 -1.30676 3.57251 0
M  V30 3416 H 320.743 -1.91788 4.60455 0
M  V30 3417 H 319.897 -4.25671 4.32306 0
M  V30 3418 H 318.636 -3.68537 3.19425 0
M  V30 3419 H 317.641 -2.26526 5.00965 0
M  V30 3420 H 318.866 -2.86589 6.15665 0
M  V30 3421 H 316.812 -4.57448 4.70188 0
M  V30 3422 H 316.729 -4.08385 6.36206 0
M  V30 3423 H 317.997 -5.1555 5.84661 0
M  V30 3424 N 322.226 -1.5378 -0.344866 0
M  V30 3425 C 323.472 -1.71216 -1.08687 0
M  V30 3426 C 323.805 -0.473281 -1.88345 0
M  V30 3427 O 323.08 0.52968 -1.87149 0
M  V30 3428 C 323.363 -2.97486 -2.02914 0
M  V30 3429 C 323.216 -4.31579 -1.26727 0
M  V30 3430 C 324.535 -3.19422 -3.0275 0
M  V30 3431 H 321.654 -0.62301 -0.393735 0
M  V30 3432 H 324.296 -1.8645 -0.365563 0
M  V30 3433 H 322.446 -2.84629 -2.64421 0
M  V30 3434 H 324.118 -4.56284 -0.67845 0
M  V30 3435 H 322.361 -4.30049 -0.569273 0
M  V30 3436 H 323.032 -5.16106 -1.95803 0
M  V30 3437 H 325.508 -3.316 -2.51357 0
M  V30 3438 H 324.384 -4.09169 -3.65885 0
M  V30 3439 H 324.645 -2.35656 -3.74057 0
M  V30 3440 N 323.704 0.605807 -1.45491 0
M  V30 3441 C 324.934 1.38934 -1.52908 0
M  V30 3442 C 325.342 1.88513 -0.161086 0
M  V30 3443 O 324.685 1.62962 0.847891 0
M  V30 3444 C 324.747 2.62737 -2.45376 0
M  V30 3445 C 324.411 2.34785 -3.92078 0
M  V30 3446 C 325.408 1.95038 -4.8193 0
M  V30 3447 C 323.093 2.47642 -4.37011 0
M  V30 3448 C 325.087 1.68511 -6.14722 0
M  V30 3449 C 322.774 2.20728 -5.69844 0
M  V30 3450 C 323.772 1.81225 -6.58519 0
M  V30 3451 O 323.46 1.54627 -7.88889 0
M  V30 3452 H 323.192 0.431629 -0.520262 0
M  V30 3453 H 325.746 0.74573 -1.91384 0
M  V30 3454 H 323.976 3.29824 -2.01874 0
M  V30 3455 H 325.665 3.24783 -2.43456 0
M  V30 3456 H 326.431 1.84639 -4.48479 0
M  V30 3457 H 322.31 2.77356 -3.68232 0
M  V30 3458 H 325.854 1.37602 -6.83894 0
M  V30 3459 H 321.751 2.30744 -6.02849 0
M  V30 3460 H 322.519 1.68665 -8.00933 0
M  V30 3461 N 325.182 1.32811 0.848464 0
M  V30 3462 C 326.593 1.21315 1.41914 0
M  V30 3463 C 326.944 -0.171847 1.95446 0
M  V30 3464 O 326.069 -1.07093 1.88043 0
M  V30 3465 C 326.664 2.19631 2.57968 0
M  V30 3466 C 325.223 2.12003 3.11017 0
M  V30 3467 C 324.37 2.07651 1.83783 0
M  V30 3468 H 327.321 1.44549 0.655071 0
M  V30 3469 H 327.342 1.79845 3.35315 0
M  V30 3470 H 326.854 3.20423 2.18976 0
M  V30 3471 H 324.955 1.14481 3.54577 0
M  V30 3472 H 325.068 3.02111 3.71841 0
M  V30 3473 H 323.432 1.52983 2.03638 0
M  V30 3474 H 324.215 3.10235 1.47 0
M  V30 3475 N 326.66 -1.06551 1.16123 0
M  V30 3476 C 327.89 -1.8274 0.963838 0
M  V30 3477 C 328.298 -1.82712 -0.491228 0
M  V30 3478 O 327.641 -1.24294 -1.35265 0
M  V30 3479 C 327.703 -3.3065 1.41106 0
M  V30 3480 C 327.367 -3.54384 2.88549 0
M  V30 3481 C 328.364 -3.4765 3.86569 0
M  V30 3482 C 326.049 -3.81789 3.26408 0
M  V30 3483 C 328.043 -3.67982 5.2045 0
M  V30 3484 C 325.73 -4.01772 4.60459 0
M  V30 3485 C 326.728 -3.94866 5.57288 0
M  V30 3486 O 326.416 -4.14306 6.88916 0
M  V30 3487 H 326.148 -0.583136 0.341948 0
M  V30 3488 H 328.702 -1.35351 1.54497 0
M  V30 3489 H 326.932 -3.78887 0.773394 0
M  V30 3490 H 328.621 -3.88324 1.1815 0
M  V30 3491 H 329.387 -3.2647 3.58667 0
M  V30 3492 H 325.266 -3.86276 2.51619 0
M  V30 3493 H 328.81 -3.62507 5.96015 0
M  V30 3494 H 324.707 -4.2244 4.88072 0
M  V30 3495 H 325.475 -4.31609 6.95454 0
M  V30 3496 N 328.138 -0.959301 -1.25041 0
M  V30 3497 C 329.07 -0.440543 -2.24926 0
M  V30 3498 C 330.083 0.446131 -1.56568 0
M  V30 3499 O 331.272 0.253657 -1.76689 0
M  V30 3500 C 328.372 0.38412 -3.36716 0
M  V30 3501 C 327.545 -0.490658 -4.34639 0
M  V30 3502 C 326.604 0.276587 -5.25473 0
M  V30 3503 O 325.63 -0.326614 -5.68262 0
M  V30 3504 N 326.832 1.56844 -5.5891 0
M  V30 3505 H 329.597 -1.29931 -2.70071 0
M  V30 3506 H 327.158 -0.830181 -1.38995 0
M  V30 3507 H 329.15 0.905228 -3.94446 0
M  V30 3508 H 327.72 1.14377 -2.90924 0
M  V30 3509 H 326.94 -1.19282 -3.7572 0
M  V30 3510 H 328.228 -1.08756 -4.97041 0
M  V30 3511 H 327.626 2.08036 -5.26059 0
M  V30 3512 H 326.183 2.03541 -6.19205 0
M  V30 3513 N 329.616 1.39756 -0.72842 0
M  V30 3514 C 330.579 2.29012 -0.0927297 0
M  V30 3515 C 331.579 1.45992 0.674025 0
M  V30 3516 O 332.769 1.66749 0.50402 0
M  V30 3517 C 329.901 3.29396 0.878137 0
M  V30 3518 H 331.094 2.86729 -0.879011 0
M  V30 3519 H 328.647 1.48293 -0.493847 0
M  V30 3520 H 329.382 2.76722 1.69101 0
M  V30 3521 H 329.167 3.907 0.331051 0
M  V30 3522 H 330.657 3.96199 1.3197 0
M  V30 3523 N 331.094 0.475555 1.50254 0
M  V30 3524 C 332.041 -0.316293 2.28622 0
M  V30 3525 C 333.011 -0.983227 1.33873 0
M  V30 3526 O 334.196 -0.994805 1.62814 0
M  V30 3527 C 331.336 -1.38975 3.1588 0
M  V30 3528 C 330.449 -0.737146 4.25664 0
M  V30 3529 C 329.584 -1.78887 5.00173 0
M  V30 3530 C 328.623 -1.11676 6.01826 0
M  V30 3531 N 327.76 -2.11154 6.69596 0
M  V30 3532 H 332.6 0.358297 2.95838 0
M  V30 3533 H 330.137 0.188541 1.45887 0
M  V30 3534 H 332.095 -2.02383 3.64825 0
M  V30 3535 H 330.725 -2.03344 2.50701 0
M  V30 3536 H 329.777 0.0096065 3.80399 0
M  V30 3537 H 331.089 -0.206816 4.98371 0
M  V30 3538 H 330.243 -2.49865 5.52859 0
M  V30 3539 H 328.982 -2.35302 4.27182 0
M  V30 3540 H 327.987 -0.392633 5.48396 0
M  V30 3541 H 329.212 -0.55945 6.76792 0
M  V30 3542 H 327.158 -2.66577 5.99394 0
M  V30 3543 H 327.075 -1.63118 7.38193 0
M  V30 3544 H 328.343 -2.81497 7.26897 0
M  V30 3545 N 332.573 -1.56217 0.208337 0
M  V30 3546 C 333.505 -2.1695 -0.739276 0
M  V30 3547 C 334.518 -1.13492 -1.1672 0
M  V30 3548 O 335.707 -1.40529 -1.10063 0
M  V30 3549 C 332.807 -2.72755 -2.01142 0
M  V30 3550 C 331.98 -4.0125 -1.74118 0
M  V30 3551 C 331.039 -4.41749 -2.85909 0
M  V30 3552 O 330.065 -5.08912 -2.54946 0
M  V30 3553 N 331.267 -4.06342 -4.14568 0
M  V30 3554 H 334.032 -2.98893 -0.219837 0
M  V30 3555 H 331.593 -1.61878 0.0268445 0
M  V30 3556 H 333.585 -2.96826 -2.75094 0
M  V30 3557 H 332.155 -1.95191 -2.4417 0
M  V30 3558 H 331.375 -3.85173 -0.838775 0
M  V30 3559 H 332.663 -4.851 -1.53477 0
M  V30 3560 H 332.061 -3.52345 -4.42571 0
M  V30 3561 H 330.618 -4.35335 -4.85105 0
M  V30 3562 N 334.051 0.0651679 -1.57465 0
M  V30 3563 C 335.281 0.774683 -1.91526 0
M  V30 3564 C 335.689 1.71305 -0.803196 0
M  V30 3565 O 335.032 1.82231 0.231881 0
M  V30 3566 C 335.094 1.61645 -3.21109 0
M  V30 3567 C 334.758 0.846753 -4.49087 0
M  V30 3568 C 335.755 0.163024 -5.19644 0
M  V30 3569 C 333.44 0.811966 -4.95694 0
M  V30 3570 C 335.434 -0.54519 -6.35064 0
M  V30 3571 C 333.121 0.0999836 -6.11018 0
M  V30 3572 C 334.119 -0.577388 -6.80555 0
M  V30 3573 O 333.807 -1.27789 -7.93678 0
M  V30 3574 H 333.539 0.225031 -0.637446 0
M  V30 3575 H 336.093 0.0377134 -2.05365 0
M  V30 3576 H 334.323 2.39638 -3.03497 0
M  V30 3577 H 336.012 2.20525 -3.40769 0
M  V30 3578 H 336.778 0.181163 -4.84662 0
M  V30 3579 H 332.657 1.32867 -4.41438 0
M  V30 3580 H 336.201 -1.07446 -6.89276 0
M  V30 3581 H 332.098 0.0797945 -6.45451 0
M  V30 3582 H 332.866 -1.18784 -8.09835 0
M  V30 3583 N 335.529 1.53961 0.336706 0
M  V30 3584 C 336.476 1.82428 1.41381 0
M  V30 3585 C 337.446 0.670444 1.51968 0
M  V30 3586 O 338.631 0.915565 1.67398 0
M  V30 3587 C 335.771 2.04564 2.77934 0
M  V30 3588 C 334.884 3.32267 2.76084 0
M  V30 3589 C 334.019 3.44434 4.04399 0
M  V30 3590 C 333.058 4.66061 3.96804 0
M  V30 3591 N 332.195 4.75224 5.16823 0
M  V30 3592 H 337.035 2.74324 1.16405 0
M  V30 3593 H 334.572 1.35869 0.563752 0
M  V30 3594 H 336.53 2.15388 3.57301 0
M  V30 3595 H 335.16 1.15974 3.01247 0
M  V30 3596 H 334.212 3.3025 1.88784 0
M  V30 3597 H 335.524 4.21733 2.66351 0
M  V30 3598 H 334.678 3.54728 4.92192 0
M  V30 3599 H 333.417 2.53037 4.16921 0
M  V30 3600 H 332.422 4.55838 3.07396 0
M  V30 3601 H 333.647 5.58829 3.85858 0
M  V30 3602 H 331.593 3.86739 5.29876 0
M  V30 3603 H 331.51 5.58636 5.09374 0
M  V30 3604 H 332.778 4.89835 6.06367 0
M  V30 3605 N 337.007 -0.598083 1.45811 0
M  V30 3606 C 338.247 -1.36802 1.5187 0
M  V30 3607 C 338.611 -1.9133 0.160224 0
M  V30 3608 O 339.812 -2.6863 0.0955302 0
M  V30 3609 C 338.083 -2.47835 2.57513 0
M  V30 3610 S 339.642 -3.35458 2.82866 0
M  V30 3611 H 336.46 -0.466278 0.536755 0
M  V30 3612 H 339.062 -0.689152 1.82951 0
M  V30 3613 H 337.766 -2.06141 3.54872 0
M  V30 3614 H 337.297 -3.20512 2.28114 0
M  V30 3615 H 339.312 -4.46251 2.16967 0
M  V30 3616 N 338.485 -1.33259 -0.841409 0
M  V30 3617 C 339.901 -1.12538 -1.13169 0
M  V30 3618 C 340.101 0.0854037 -2.01319 0
M  V30 3619 O 339.157 0.766417 -2.40587 0
M  V30 3620 C 340.47 -2.41156 -1.79623 0
M  V30 3621 C 342.018 -2.47038 -1.922 0
M  V30 3622 C 342.493 -3.7561 -2.6207 0
M  V30 3623 N 343.984 -3.76667 -2.69585 0
M  V30 3624 C 344.719 -4.72861 -3.2433 0
M  V30 3625 N 344.215 -5.79428 -3.79783 0
M  V30 3626 N 346.008 -4.6034 -3.22558 0
M  V30 3627 H 338.159 -2.10868 -0.254676 0
M  V30 3628 H 340.422 -0.931615 -0.175493 0
M  V30 3629 H 340.128 -3.29747 -1.22311 0
M  V30 3630 H 340.002 -2.53114 -2.79666 0
M  V30 3631 H 342.389 -1.58898 -2.48667 0
M  V30 3632 H 342.47 -2.39022 -0.911148 0
M  V30 3633 H 342.114 -4.64131 -2.06263 0
M  V30 3634 H 342.044 -3.80902 -3.63622 0
M  V30 3635 H 344.535 -2.99648 -2.30259 0
M  V30 3636 H 344.848 -6.48867 -4.19752 0
M  V30 3637 H 343.193 -5.83166 -3.78078 0
M  V30 3638 H 346.384 -3.76244 -2.78492 0
M  V30 3639 H 346.557 -5.35478 -3.64921 0
M  V30 3640 N 339.963 1.05934 -1.16686 0
M  V30 3641 C 340.926 2.11669 -0.879144 0
M  V30 3642 C 341.926 1.60294 0.127445 0
M  V30 3643 O 343.116 1.7389 -0.103865 0
M  V30 3644 C 340.248 3.39438 -0.315425 0
M  V30 3645 H 341.441 2.38626 -1.81653 0
M  V30 3646 H 338.994 1.22058 -0.976299 0
M  V30 3647 H 339.729 3.18132 0.629468 0
M  V30 3648 H 339.514 3.78034 -1.04079 0
M  V30 3649 H 341.004 4.17391 -0.132189 0
M  V30 3650 N 341.441 0.965919 1.2453 0
M  V30 3651 C 342.669 0.644385 1.96609 0
M  V30 3652 C 343.084 -0.785823 1.71669 0
M  V30 3653 O 342.441 -1.52703 0.999399 0
M  V30 3654 C 342.492 0.907375 3.49927 0
M  V30 3655 O 342.213 2.28136 3.74013 0
M  V30 3656 C 343.714 0.599784 4.39224 0
M  V30 3657 H 340.934 0.240588 0.626385 0
M  V30 3658 H 343.478 1.29337 1.58405 0
M  V30 3659 H 341.633 0.304631 3.862 0
M  V30 3660 H 342.047 2.36002 4.68405 0
M  V30 3661 H 343.521 0.834263 5.45659 0
M  V30 3662 H 343.998 -0.465921 4.36722 0
M  V30 3663 H 344.604 1.18235 4.08535 0
M  V30 3664 N 342.919 -1.39368 0.735821 0
M  V30 3665 C 344.196 -1.94465 0.210395 0
M  V30 3666 C 344.576 -1.67254 -1.28799 0
M  V30 3667 O 343.924 -1.00123 -2.05396 0
M  V30 3668 C 344.134 -3.4472 0.544897 0
M  V30 3669 C 345.482 -4.21708 0.494689 0
M  V30 3670 O 346.506 -3.52922 0.482136 0
M  V30 3671 O 345.365 -5.44299 0.489947 0
M  V30 3672 H 342.459 -0.826096 0.0386666 0
M  V30 3673 H 345.005 -1.48863 0.814735 0
M  V30 3674 H 343.777 -3.57963 1.58045 0
M  V30 3675 H 343.4 -3.97502 -0.08837 0
M  V30 3676 N 344.397 -0.483516 -1.5 0
M  V30 3677 C 345.344 0.304164 -2.28787 0
M  V30 3678 C 346.314 0.976114 -1.34392 0
M  V30 3679 O 347.499 0.986156 -1.63339 0
M  V30 3680 C 344.639 1.37298 -3.16612 0
M  V30 3681 C 343.752 0.714561 -4.26049 0
M  V30 3682 C 342.887 1.76232 -5.01114 0
M  V30 3683 C 341.926 1.08483 -6.0241 0
M  V30 3684 N 341.063 2.076 -6.70706 0
M  V30 3685 H 345.903 -0.373981 -2.95644 0
M  V30 3686 H 343.44 -0.196275 -1.45785 0
M  V30 3687 H 345.398 2.00445 -3.65893 0
M  V30 3688 H 344.028 2.02012 -2.51776 0
M  V30 3689 H 343.08 -0.0297798 -3.80388 0
M  V30 3690 H 344.392 0.180383 -4.98474 0
M  V30 3691 H 343.546 2.46929 -5.54176 0
M  V30 3692 H 342.285 2.33033 -4.28424 0
M  V30 3693 H 341.29 0.363545 -5.48597 0
M  V30 3694 H 342.515 0.523551 -6.77079 0
M  V30 3695 H 340.461 2.63394 -6.00799 0
M  V30 3696 H 340.378 1.59201 -7.39047 0
M  V30 3697 H 341.646 2.77639 -7.2838 0
M  V30 3698 N 345.875 1.56104 -0.216619 0
M  V30 3699 C 347.286 1.844 0.292128 0
M  V30 3700 C 347.637 1.13788 1.59833 0
M  V30 3701 O 346.762 0.405888 2.12559 0
M  V30 3702 C 347.357 3.3452 0.53681 0
M  V30 3703 C 345.916 3.63151 0.989876 0
M  V30 3704 C 345.063 2.77255 0.0502302 0
M  V30 3705 H 348.014 1.52481 -0.439926 0
M  V30 3706 H 348.035 3.54459 1.38345 0
M  V30 3707 H 347.547 3.85885 -0.414031 0
M  V30 3708 H 345.648 3.17238 1.95425 0
M  V30 3709 H 345.761 4.71177 0.867698 0
M  V30 3710 H 344.125 2.48555 0.556117 0
M  V30 3711 H 344.908 3.31416 -0.89544 0
M  V30 3712 N 347.353 -0.0568162 1.57498 0
M  V30 3713 C 348.601 -0.751617 1.87604 0
M  V30 3714 C 348.922 -1.77351 0.81066 0
M  V30 3715 O 348.192 -1.95254 -0.159018 0
M  V30 3716 H 346.772 -0.280583 0.692302 0
M  V30 3717 H 349.434 -0.0293483 1.94878 0
M  V30 3718 H 348.53 -1.25852 2.856 0
M  V30 3719 N 348.832 -1.54138 -0.328536 0
M  V30 3720 C 350.243 -1.63395 -0.903272 0
M  V30 3721 C 350.594 -0.524828 -1.8905 0
M  V30 3722 O 349.719 0.343068 -2.13663 0
M  V30 3723 C 350.314 -2.9618 -1.64507 0
M  V30 3724 C 348.873 -3.0765 -2.1686 0
M  V30 3725 C 348.02 -2.58933 -0.992416 0
M  V30 3726 H 350.971 -1.58344 -0.106253 0
M  V30 3727 H 350.992 -2.86061 -2.50897 0
M  V30 3728 H 350.504 -3.76884 -0.926302 0
M  V30 3729 H 348.605 -2.31611 -2.91868 0
M  V30 3730 H 348.718 -4.1337 -2.42202 0
M  V30 3731 H 347.082 -2.14706 -1.37016 0
M  V30 3732 H 347.865 -3.42089 -0.288041 0
M  V30 3733 N 350.31 0.590341 -1.46126 0
M  V30 3734 C 351.257 1.69994 -1.56111 0
M  V30 3735 C 352.227 1.61065 -0.405867 0
M  V30 3736 O 353.412 1.8039 -0.621613 0
M  V30 3737 C 350.552 3.08326 -1.55013 0
M  V30 3738 C 349.665 3.27936 -2.81215 0
M  V30 3739 C 348.8 4.56473 -2.71673 0
M  V30 3740 C 347.839 4.694 -3.92849 0
M  V30 3741 N 346.976 5.89254 -3.81738 0
M  V30 3742 H 351.816 1.60797 -2.50895 0
M  V30 3743 H 349.353 0.783799 -1.24479 0
M  V30 3744 H 351.311 3.88383 -1.52362 0
M  V30 3745 H 349.941 3.16439 -0.637667 0
M  V30 3746 H 348.993 2.41536 -2.93879 0
M  V30 3747 H 350.305 3.33357 -3.71045 0
M  V30 3748 H 349.459 5.44748 -2.67085 0
M  V30 3749 H 348.198 4.53477 -1.7947 0
M  V30 3750 H 347.203 3.79544 -3.97777 0
M  V30 3751 H 348.428 4.7418 -4.86138 0
M  V30 3752 H 346.374 5.87271 -2.92317 0
M  V30 3753 H 346.291 5.95911 -4.65217 0
M  V30 3754 H 347.559 6.79981 -3.81112 0
M  V30 3755 N 351.788 1.33704 0.83433 0
M  V30 3756 C 353.034 1.25603 1.59222 0
M  V30 3757 C 353.367 -0.176659 1.93395 0
M  V30 3758 O 352.642 -1.11915 1.59076 0
M  V30 3759 C 352.925 2.13576 2.89926 0
M  V30 3760 C 352.778 3.65326 2.62406 0
M  V30 3761 C 354.097 2.01238 3.91397 0
M  V30 3762 H 351.216 0.457613 0.577719 0
M  V30 3763 H 353.858 1.63848 0.961972 0
M  V30 3764 H 352.008 1.8109 3.43713 0
M  V30 3765 H 353.68 4.08124 2.15017 0
M  V30 3766 H 351.923 3.8698 1.96033 0
M  V30 3767 H 352.594 4.22232 3.55562 0
M  V30 3768 H 355.07 2.29738 3.46929 0
M  V30 3769 H 353.946 2.65036 4.80673 0
M  V30 3770 H 354.207 0.985951 4.30966 0
M  V30 3771 N 353.266 -1.05314 1.17247 0
M  V30 3772 C 354.213 -2.13031 0.888058 0
M  V30 3773 C 355.183 -1.65253 -0.167537 0
M  V30 3774 O 356.368 -1.90775 -0.0305974 0
M  V30 3775 C 353.508 -3.42702 0.406147 0
M  V30 3776 C 352.621 -4.04161 1.52572 0
M  V30 3777 C 351.756 -5.21744 0.997808 0
M  V30 3778 C 350.795 -5.75207 2.09291 0
M  V30 3779 N 349.932 -6.84094 1.57986 0
M  V30 3780 H 354.772 -2.36698 1.81048 0
M  V30 3781 H 352.309 -1.16121 0.903013 0
M  V30 3782 H 354.267 -4.17059 0.108305 0
M  V30 3783 H 352.897 -3.19222 -0.479313 0
M  V30 3784 H 351.949 -3.27253 1.93931 0
M  V30 3785 H 353.261 -4.39881 2.35172 0
M  V30 3786 H 352.415 -6.03168 0.653739 0
M  V30 3787 H 351.154 -4.87495 0.141232 0
M  V30 3788 H 350.159 -4.92414 2.44557 0
M  V30 3789 H 351.384 -6.11505 2.95362 0
M  V30 3790 H 349.33 -6.51745 0.74598 0
M  V30 3791 H 349.247 -7.18811 2.34195 0
M  V30 3792 H 350.515 -7.69172 1.26468 0
M  V30 3793 N 354.744 -0.972509 -1.24016 0
M  V30 3794 C 355.993 -0.632603 -1.91523 0
M  V30 3795 C 356.306 0.836641 -1.76804 0
M  V30 3796 O 357.512 1.28728 -2.39043 0
M  V30 3797 C 355.968 -1.08082 -3.43287 0
M  V30 3798 C 355.576 -2.57386 -3.66683 0
M  V30 3799 C 357.32 -0.814288 -4.16617 0
M  V30 3800 C 355.227 -2.95915 -5.12043 0
M  V30 3801 H 354.157 -0.232898 -0.717129 0
M  V30 3802 H 356.808 -1.17936 -1.40582 0
M  V30 3803 H 355.19 -0.462339 -3.93292 0
M  V30 3804 H 356.364 -3.24405 -3.27258 0
M  V30 3805 H 354.679 -2.81701 -3.06649 0
M  V30 3806 H 357.276 -1.0781 -5.23718 0
M  V30 3807 H 357.619 0.24955 -4.15551 0
M  V30 3808 H 358.152 -1.39397 -3.72577 0
M  V30 3809 H 354.891 -4.0139 -5.18234 0
M  V30 3810 H 354.411 -2.33584 -5.52448 0
M  V30 3811 H 356.09 -2.86086 -5.80314 0
M  V30 3812 N 356.222 1.38976 -0.743202 0
M  V30 3813 C 357.45 2.04636 -0.30525 0
M  V30 3814 C 357.865 1.56044 1.06281 0
M  V30 3815 O 357.222 0.728921 1.67311 0
M  V30 3816 C 357.273 3.60193 -0.307177 0
M  V30 3817 O 356.994 4.06998 -1.62124 0
M  V30 3818 C 358.495 4.4306 0.145928 0
M  V30 3819 H 355.715 0.65788 -0.132041 0
M  V30 3820 H 358.259 1.77866 -1.00915 0
M  V30 3821 H 356.414 3.85835 0.347898 0
M  V30 3822 H 356.828 5.01371 -1.54036 0
M  V30 3823 H 358.302 5.51921 0.0934183 0
M  V30 3824 H 358.779 4.22706 1.19231 0
M  V30 3825 H 359.385 4.22584 -0.479886 0
M  V30 3826 N 357.7 0.491464 1.49741 0
M  V30 3827 C 358.948 -0.0563141 2.02022 0
M  V30 3828 C 359.269 -1.38363 1.37407 0
M  V30 3829 O 358.539 -1.88702 0.526166 0
M  V30 3830 H 357.119 -0.0238014 0.746621 0
M  V30 3831 H 359.781 0.646533 1.83864 0
M  V30 3832 H 358.877 -0.192967 3.11503 0
M  V30 3833 N 359.178 -1.55987 0.224894 0
M  V30 3834 C 360.408 -2.02489 -0.41007 0
M  V30 3835 C 360.816 -1.10391 -1.53657 0
M  V30 3836 O 360.159 -0.106458 -1.83391 0
M  V30 3837 C 360.221 -3.45319 -0.999757 0
M  V30 3838 C 359.885 -4.56999 -0.00827976 0
M  V30 3839 C 360.882 -5.13812 0.793314 0
M  V30 3840 C 358.567 -5.02176 0.111442 0
M  V30 3841 C 360.561 -6.14276 1.7013 0
M  V30 3842 C 358.248 -6.02477 1.02296 0
M  V30 3843 C 359.246 -6.58403 1.81643 0
M  V30 3844 O 358.934 -7.56751 2.71262 0
M  V30 3845 H 358.666 -0.667915 -0.104235 0
M  V30 3846 H 361.22 -2.0257 0.339782 0
M  V30 3847 H 359.45 -3.42318 -1.79876 0
M  V30 3848 H 361.139 -3.7545 -1.54248 0
M  V30 3849 H 361.905 -4.79756 0.711288 0
M  V30 3850 H 357.784 -4.58323 -0.49605 0
M  V30 3851 H 361.328 -6.57854 2.32107 0
M  V30 3852 H 357.225 -6.35954 1.10599 0
M  V30 3853 H 357.993 -7.74286 2.65375 0
M  V30 3854 N 360.656 0.0484629 -1.57525 0
M  V30 3855 C 361.603 1.05504 -2.05275 0
M  V30 3856 C 362.573 1.37084 -0.937927 0
M  V30 3857 O 363.758 1.47754 -1.2072 0
M  V30 3858 C 360.898 2.35676 -2.52093 0
M  V30 3859 C 360.011 2.10423 -3.77288 0
M  V30 3860 C 359.146 3.34327 -4.12794 0
M  V30 3861 C 358.185 3.04542 -5.30962 0
M  V30 3862 N 357.322 4.20841 -5.61994 0
M  V30 3863 H 362.162 0.640885 -2.91027 0
M  V30 3864 H 359.699 0.304854 -1.43906 0
M  V30 3865 H 361.657 3.11709 -2.77297 0
M  V30 3866 H 360.287 2.7485 -1.69285 0
M  V30 3867 H 359.339 1.24976 -3.59284 0
M  V30 3868 H 360.651 1.84438 -4.63448 0
M  V30 3869 H 359.805 4.1874 -4.39024 0
M  V30 3870 H 358.544 3.63408 -3.25247 0
M  V30 3871 H 357.549 2.18528 -5.04505 0
M  V30 3872 H 358.774 2.76758 -6.20146 0
M  V30 3873 H 356.72 4.4991 -4.77406 0
M  V30 3874 H 356.637 3.98212 -6.42622 0
M  V30 3875 H 357.905 5.06184 -5.92789 0
M  V30 3876 N 362.134 1.5431 0.320358 0
M  V30 3877 C 363.55 1.45091 0.664889 0
M  V30 3878 C 363.75 0.626382 1.91517 0
M  V30 3879 O 362.806 0.126443 2.52183 0
M  V30 3880 C 364.119 2.88848 0.83591 0
M  V30 3881 C 365.667 2.9877 0.933046 0
M  V30 3882 C 366.142 4.43683 1.13621 0
M  V30 3883 N 367.633 4.47309 1.20287 0
M  V30 3884 C 368.368 5.56595 1.37801 0
M  V30 3885 N 367.864 6.75844 1.52338 0
M  V30 3886 N 369.657 5.44248 1.40535 0
M  V30 3887 H 361.808 2.06398 -0.501374 0
M  V30 3888 H 364.071 0.933963 -0.162534 0
M  V30 3889 H 363.777 3.51698 -0.0116092 0
M  V30 3890 H 363.651 3.35148 1.73078 0
M  V30 3891 H 366.038 2.36045 1.77107 0
M  V30 3892 H 366.119 2.55796 0.0145782 0
M  V30 3893 H 365.763 5.06995 0.303032 0
M  V30 3894 H 365.693 4.84269 2.0686 0
M  V30 3895 H 368.184 3.61388 1.10485 0
M  V30 3896 H 368.497 7.54892 1.65403 0
M  V30 3897 H 366.842 6.78746 1.4943 0
M  V30 3898 H 370.033 4.50038 1.28777 0
M  V30 3899 H 370.206 6.29473 1.53842 0
M  V30 3900 N 363.613 -0.582584 1.46437 0
M  V30 3901 C 364.859 -1.34278 1.51978 0
M  V30 3902 C 365.192 -1.93446 0.170973 0
M  V30 3903 O 364.467 -1.76481 -0.817608 0
M  V30 3904 C 364.75 -2.47203 2.61845 0
M  V30 3905 C 364.603 -1.93069 4.06257 0
M  V30 3906 C 365.922 -3.49247 2.67795 0
M  V30 3907 H 363.041 -0.486876 0.553282 0
M  V30 3908 H 365.683 -0.654437 1.78374 0
M  V30 3909 H 363.833 -3.0592 2.39469 0
M  V30 3910 H 365.505 -1.38808 4.3992 0
M  V30 3911 H 363.748 -1.23898 4.1573 0
M  V30 3912 H 364.419 -2.74586 4.7886 0
M  V30 3913 H 366.895 -3.00411 2.8791 0
M  V30 3914 H 365.771 -4.25719 3.46489 0
M  V30 3915 H 366.032 -4.06482 1.73852 0
M  V30 3916 N 365.091 -1.34144 -0.827227 0
M  V30 3917 C 366.502 -1.23557 -1.39966 0
M  V30 3918 C 366.853 0.140731 -1.95695 0
M  V30 3919 O 365.978 1.04087 -1.89723 0
M  V30 3920 C 366.573 -2.23708 -2.54441 0
M  V30 3921 C 365.132 -2.16924 -3.07605 0
M  V30 3922 C 364.279 -2.10549 -1.80456 0
M  V30 3923 H 367.23 -1.45573 -0.631991 0
M  V30 3924 H 367.251 -1.85157 -3.32411 0
M  V30 3925 H 366.763 -3.23866 -2.13851 0
M  V30 3926 H 364.864 -1.20107 -3.52711 0
M  V30 3927 H 364.977 -3.07988 -3.66988 0
M  V30 3928 H 363.341 -1.56203 -2.01178 0
M  V30 3929 H 364.124 -3.12535 -1.42046 0
M  V30 3930 N 366.569 1.04691 -1.17803 0
M  V30 3931 C 367.794 1.81984 -0.994813 0
M  V30 3932 C 368.219 1.82586 0.452112 0
M  V30 3933 O 367.577 1.23854 1.324 0
M  V30 3934 C 367.625 3.2575 -1.54659 0
M  V30 3935 O 366.729 4.05267 -0.763728 0
M  V30 3936 H 366.07 0.562483 -0.352857 0
M  V30 3937 H 368.6 1.3189 -1.56417 0
M  V30 3938 H 368.61 3.76541 -1.57102 0
M  V30 3939 H 367.285 3.24627 -2.59981 0
M  V30 3940 H 365.862 3.63972 -0.811108 0
M  V30 3941 N 368.047 0.979072 1.23499 0
M  V30 3942 C 368.995 0.510604 2.26926 0
M  V30 3943 C 369.989 -0.431691 1.63807 0
M  V30 3944 O 371.195 -0.30573 1.77385 0
M  V30 3945 H 367.57 0.146688 0.737554 0
M  V30 3946 H 369.541 1.39466 2.63803 0
M  V30 3947 C 368.29 -0.172658 3.47271 0
M  V30 3948 H 367.613 0.543331 3.96091 0
M  V30 3949 H 369.053 -0.464101 4.21452 0
M  V30 3950 C 367.512 -1.40345 3.06276 0
M  V30 3951 O 368.042 -2.49978 3.14442 0
M  V30 3952 N 366.248 -1.27362 2.61203 0
M  V30 3953 H 365.795 -0.381584 2.54758 0
M  V30 3954 H 365.753 -2.09822 2.34141 0
M  V30 3955 N 369.525 -1.3858 0.750561 0
M  V30 3956 C 370.765 -2.02032 0.310258 0
M  V30 3957 C 371.129 -1.58288 -1.08668 0
M  V30 3958 O 372.33 -2.14049 -1.62593 0
M  V30 3959 C 370.601 -3.54856 0.425647 0
M  V30 3960 S 372.16 -4.38748 0.0674797 0
M  V30 3961 H 368.978 -0.700705 0.120554 0
M  V30 3962 H 371.58 -1.69134 0.980512 0
M  V30 3963 H 370.284 -3.84182 1.44335 0
M  V30 3964 H 369.815 -3.92527 -0.261894 0
M  V30 3965 H 371.83 -4.82835 -1.14388 0
M  V30 3966 N 371.003 -0.499398 -1.49478 0
M  V30 3967 C 371.913 0.284489 -2.32869 0
M  V30 3968 C 372.929 0.968885 -1.44529 0
M  V30 3969 O 374.105 0.95062 -1.77553 0
M  V30 3970 C 371.17 1.33594 -3.19928 0
M  V30 3971 C 370.231 0.665149 -4.24116 0
M  V30 3972 C 369.464 1.6665 -5.07014 0
M  V30 3973 O 369.687 2.89618 -4.91404 0
M  V30 3974 O 368.621 1.22271 -5.8935 0
M  V30 3975 H 372.447 -0.39802 -3.01081 0
M  V30 3976 H 370.032 -0.260758 -1.47107 0
M  V30 3977 H 371.914 1.94431 -3.73864 0
M  V30 3978 H 370.589 2.0014 -2.54412 0
M  V30 3979 H 369.496 0.0170769 -3.74096 0
M  V30 3980 H 370.829 0.0421555 -4.92182 0
M  V30 3981 N 372.481 1.55866 -0.233164 0
M  V30 3982 C 373.709 2.02998 0.399905 0
M  V30 3983 C 374.124 1.11274 1.52524 0
M  V30 3984 O 373.481 0.124528 1.82075 0
M  V30 3985 C 373.532 3.4958 0.920639 0
M  V30 3986 O 373.253 4.37808 -0.159834 0
M  V30 3987 C 374.754 4.12411 1.62578 0
M  V30 3988 H 371.974 0.664006 0.0966281 0
M  V30 3989 H 374.518 2.0143 -0.353013 0
M  V30 3990 H 372.673 3.51727 1.62379 0
M  V30 3991 H 373.087 5.23981 0.23337 0
M  V30 3992 H 374.561 5.16711 1.94201 0
M  V30 3993 H 375.038 3.5809 2.54299 0
M  V30 3994 H 375.644 4.14148 0.967553 0
M  V30 3995 N 373.959 -0.0401083 1.57549 0
M  V30 3996 C 375.184 -0.748931 1.93406 0
M  V30 3997 C 375.609 -1.68686 0.832274 0
M  V30 3998 O 374.967 -1.80047 -0.212818 0
M  V30 3999 C 375.015 -1.4916 3.28304 0
M  V30 4000 O 374.119 -2.6042 3.19774 0
M  V30 4001 H 373.46 -0.202212 0.63246 0
M  V30 4002 H 375.99 0.00112086 2.046 0
M  V30 4003 H 376 -1.86395 3.62934 0
M  V30 4004 H 374.675 -0.80364 4.08062 0
M  V30 4005 H 373.252 -2.25808 2.96758 0
M  V30 4006 N 375.437 -1.54477 -0.31217 0
M  V30 4007 C 376.684 -1.73227 -1.04875 0
M  V30 4008 C 377.012 -0.512042 -1.87639 0
M  V30 4009 O 376.267 0.506131 -1.89042 0
M  V30 4010 C 376.566 -2.967 -1.99258 0
M  V30 4011 C 376.232 -4.30974 -1.32559 0
M  V30 4012 C 374.894 -4.67477 -1.141 0
M  V30 4013 C 377.246 -5.14258 -0.847835 0
M  V30 4014 C 374.574 -5.84852 -0.465326 0
M  V30 4015 C 376.926 -6.32327 -0.185931 0
M  V30 4016 C 375.59 -6.67499 0.0107077 0
M  V30 4017 H 374.86 -0.633881 -0.383765 0
M  V30 4018 H 377.507 -1.88727 -0.324731 0
M  V30 4019 H 375.812 -2.75935 -2.7815 0
M  V30 4020 H 377.509 -3.08401 -2.563 0
M  V30 4021 H 374.099 -4.02262 -1.4793 0
M  V30 4022 H 378.283 -4.86565 -0.978192 0
M  V30 4023 H 373.539 -6.10654 -0.301883 0
M  V30 4024 H 377.713 -6.96135 0.192211 0
M  V30 4025 H 375.34 -7.58306 0.536287 0
M  V30 4026 N 376.915 0.57481 -1.46744 0
M  V30 4027 C 377.845 1.69337 -1.60771 0
M  V30 4028 C 378.826 1.63825 -0.457736 0
M  V30 4029 O 380.011 1.8172 -0.684947 0
M  V30 4030 C 377.141 3.0798 -1.60517 0
M  V30 4031 C 376.095 3.28327 -2.74564 0
M  V30 4032 C 375.421 4.67578 -2.59373 0
M  V30 4033 C 376.721 3.15398 -4.16319 0
M  V30 4034 H 378.415 1.57853 -2.54407 0
M  V30 4035 H 375.961 0.75799 -1.22436 0
M  V30 4036 H 377.914 3.86061 -1.68923 0
M  V30 4037 H 376.638 3.20381 -0.634305 0
M  V30 4038 H 375.297 2.52649 -2.65639 0
M  V30 4039 H 374.945 4.76755 -1.60353 0
M  V30 4040 H 374.645 4.82144 -3.35873 0
M  V30 4041 H 376.169 5.47817 -2.69682 0
M  V30 4042 H 377.583 3.83315 -4.26313 0
M  V30 4043 H 375.98 3.41482 -4.93468 0
M  V30 4044 H 377.05 2.12372 -4.3592 0
M  V30 4045 N 378.394 1.34581 0.820102 0
M  V30 4046 C 379.642 1.26845 1.57336 0
M  V30 4047 C 379.963 -0.160667 1.94337 0
M  V30 4048 O 379.233 -1.09396 1.6251 0
M  V30 4049 H 377.813 0.466514 0.583415 0
M  V30 4050 H 380.475 1.68526 0.979027 0
M  V30 4051 H 379.571 1.87513 2.4949 0
M  V30 4052 N 379.872 -1.04064 1.18357 0
M  V30 4053 C 380.835 -2.10243 0.912707 0
M  V30 4054 C 381.835 -1.60477 -0.101928 0
M  V30 4055 O 383.025 -1.73703 0.131517 0
M  V30 4056 C 380.157 -3.38893 0.369387 0
M  V30 4057 H 381.35 -2.35706 1.85426 0
M  V30 4058 H 378.903 -1.20489 0.995594 0
M  V30 4059 H 379.638 -3.19094 -0.578776 0
M  V30 4060 H 379.423 -3.76331 1.1008 0
M  V30 4061 H 380.913 -4.17128 0.198575 0
M  V30 4062 N 381.35 -0.985608 -1.22978 0
M  V30 4063 C 382.28 -0.549649 -2.26939 0
M  V30 4064 C 383.261 0.419803 -1.64838 0
M  V30 4065 O 384.446 0.31203 -1.91677 0
M  V30 4066 C 381.576 0.143652 -3.47003 0
M  V30 4067 C 380.53 -0.743606 -4.21491 0
M  V30 4068 C 379.856 0.0822027 -5.34637 0
M  V30 4069 C 381.156 -2.03694 -4.80943 0
M  V30 4070 H 382.85 -1.41862 -2.63658 0
M  V30 4071 H 380.396 -0.683571 -1.26741 0
M  V30 4072 H 382.349 0.459985 -4.18882 0
M  V30 4073 H 381.073 1.04711 -3.09359 0
M  V30 4074 H 379.732 -1.04347 -3.51436 0
M  V30 4075 H 379.38 0.986359 -4.93234 0
M  V30 4076 H 379.08 -0.508377 -5.85397 0
M  V30 4077 H 380.604 0.392797 -6.09335 0
M  V30 4078 H 382.018 -1.78504 -5.44802 0
M  V30 4079 H 380.415 -2.57573 -5.42011 0
M  V30 4080 H 381.485 -2.72042 -4.01399 0
M  V30 4081 N 382.828 1.3818 -0.7579 0
M  V30 4082 C 383.791 2.28764 -0.141286 0
M  V30 4083 C 384.791 1.47388 0.642907 0
M  V30 4084 O 385.981 1.67781 0.468536 0
M  V30 4085 C 383.113 3.31184 0.808069 0
M  V30 4086 H 384.306 2.848 -0.939633 0
M  V30 4087 H 381.859 1.47212 -0.525191 0
M  V30 4088 H 382.594 2.80247 1.63193 0
M  V30 4089 H 382.379 3.91314 0.248104 0
M  V30 4090 H 383.869 3.98909 1.23536 0
M  V30 4091 N 384.306 0.507319 1.49211 0
M  V30 4092 C 385.254 -0.281364 2.30892 0
M  V30 4093 C 386.248 -0.95687 1.39787 0
M  V30 4094 O 387.454 -0.883838 1.56807 0
M  V30 4095 H 383.829 -0.109597 0.743971 0
M  V30 4096 H 385.8 0.42744 2.95323 0
M  V30 4097 C 384.549 -1.32918 3.21291 0
M  V30 4098 H 383.872 -0.818799 3.91326 0
M  V30 4099 H 385.312 -1.85288 3.81372 0
M  V30 4100 C 383.771 -2.35074 2.41333 0
M  V30 4101 O 384.301 -3.4108 2.12197 0
M  V30 4102 N 382.507 -2.07705 2.03241 0
M  V30 4103 H 382.054 -1.2152 2.27136 0
M  V30 4104 H 382.012 -2.76283 1.50051 0
M  V30 4105 N 385.784 -1.5574 0.241426 0
M  V30 4106 C 386.716 -2.18469 -0.693091 0
M  V30 4107 C 387.729 -1.15942 -1.14286 0
M  V30 4108 O 388.918 -1.42832 -1.07058 0
M  V30 4109 C 386.018 -2.7696 -1.95311 0
M  V30 4110 C 385.191 -4.04853 -1.65568 0
M  V30 4111 C 384.25 -4.47715 -2.76474 0
M  V30 4112 O 383.276 -5.14205 -2.44094 0
M  V30 4113 N 384.478 -4.15044 -4.05855 0
M  V30 4114 H 387.243 -2.99292 -0.156388 0
M  V30 4115 H 384.804 -1.61784 0.0611752 0
M  V30 4116 H 386.796 -3.02594 -2.68736 0
M  V30 4117 H 385.366 -2.00326 -2.39975 0
M  V30 4118 H 384.586 -3.86865 -0.756886 0
M  V30 4119 H 385.874 -4.88246 -1.43153 0
M  V30 4120 H 385.272 -3.61654 -4.34998 0
M  V30 4121 H 383.829 -4.45526 -4.75762 0
M  V30 4122 N 387.262 0.0317525 -1.57568 0
M  V30 4123 C 388.673 0.578692 -1.77505 0
M  V30 4124 C 389.024 1.75749 -0.872164 0
M  V30 4125 O 388.149 2.16298 -0.0663106 0
M  V30 4126 C 388.744 1.05658 -3.21904 0
M  V30 4127 C 387.303 1.54906 -3.43047 0
M  V30 4128 C 386.45 0.485939 -2.73009 0
M  V30 4129 H 389.401 -0.194475 -1.57504 0
M  V30 4130 H 389.422 1.92404 -3.28269 0
M  V30 4131 H 388.934 0.198422 -3.87592 0
M  V30 4132 H 387.035 2.42915 -2.82529 0
M  V30 4133 H 387.148 1.59841 -4.5165 0
M  V30 4134 H 385.512 0.940354 -2.36705 0
M  V30 4135 H 386.295 -0.362709 -3.41379 0
M  V30 4136 N 388.74 1.54641 0.303973 0
M  V30 4137 C 389.67 1.88386 1.3796 0
M  V30 4138 C 390.651 0.742485 1.5304 0
M  V30 4139 O 391.836 0.997959 1.66597 0
M  V30 4140 C 388.966 2.12854 2.74427 0
M  V30 4141 C 387.92 3.28702 2.74115 0
M  V30 4142 C 387.246 3.38582 4.13844 0
M  V30 4143 C 388.546 4.65881 2.3612 0
M  V30 4144 H 390.24 2.78474 1.09966 0
M  V30 4145 H 387.786 1.33988 0.527556 0
M  V30 4146 H 389.739 2.35047 3.49758 0
M  V30 4147 H 388.463 1.19535 3.03939 0
M  V30 4148 H 387.122 3.06428 2.0124 0
M  V30 4149 H 386.77 2.42784 4.40528 0
M  V30 4150 H 386.47 4.16453 4.14537 0
M  V30 4151 H 387.994 3.63031 4.90959 0
M  V30 4152 H 389.408 4.87823 3.01167 0
M  V30 4153 H 387.805 5.46444 2.48031 0
M  V30 4154 H 388.875 4.66799 1.3125 0
M  V30 4155 N 390.218 -0.567019 1.47046 0
M  V30 4156 C 391.443 -1.3551 1.57009 0
M  V30 4157 C 391.868 -1.86841 0.217259 0
M  V30 4158 O 391.226 -1.62435 -0.805268 0
M  V30 4159 C 391.274 -2.50777 2.5912 0
M  V30 4160 O 390.378 -3.52706 2.13711 0
M  V30 4161 H 389.719 -0.402919 0.52778 0
M  V30 4162 H 392.249 -0.686241 1.92748 0
M  V30 4163 H 392.259 -2.97481 2.79229 0
M  V30 4164 H 390.934 -2.12771 3.57353 0
M  V30 4165 H 389.511 -3.12374 2.03659 0
M  V30 4166 N 391.696 -1.35014 -0.812953 0
M  V30 4167 C 392.942 -1.2812 -1.57204 0
M  V30 4168 C 393.275 0.145869 -1.93651 0
M  V30 4169 O 392.55 1.0937 -1.60836 0
M  V30 4170 C 392.833 -2.18162 -2.86492 0
M  V30 4171 C 392.686 -3.69454 -2.56561 0
M  V30 4172 C 394.005 -2.07439 -3.88145 0
M  V30 4173 H 391.124 -0.466746 -0.570366 0
M  V30 4174 H 393.766 -1.65357 -0.935783 0
M  V30 4175 H 391.916 -1.86535 -3.40789 0
M  V30 4176 H 393.588 -4.11493 -2.08497 0
M  V30 4177 H 391.831 -3.9005 -1.89851 0
M  V30 4178 H 392.502 -4.27835 -3.48799 0
M  V30 4179 H 394.978 -2.35228 -3.4323 0
M  V30 4180 H 393.854 -2.7265 -4.76396 0
M  V30 4181 H 394.115 -1.05439 -4.29343 0
M  V30 4182 N 393.175 1.03435 -1.18907 0
M  V30 4183 C 394.105 2.13503 -0.945448 0
M  V30 4184 C 395.086 1.69682 0.119189 0
M  V30 4185 O 396.271 1.94169 -0.034707 0
M  V30 4186 C 393.401 3.44004 -0.477316 0
M  V30 4187 C 392.355 4.0148 -1.48316 0
M  V30 4188 C 391.681 5.27537 -0.872311 0
M  V30 4189 C 392.981 4.36921 -2.86177 0
M  V30 4190 H 394.675 2.34141 -1.86597 0
M  V30 4191 H 392.221 1.12523 -0.898584 0
M  V30 4192 H 394.174 4.20372 -0.294204 0
M  V30 4193 H 392.898 3.23072 0.478786 0
M  V30 4194 H 391.557 3.27201 -1.65332 0
M  V30 4195 H 391.205 5.02917 0.0911752 0
M  V30 4196 H 390.905 5.66954 -1.54393 0
M  V30 4197 H 392.429 6.06576 -0.699871 0
M  V30 4198 H 393.843 5.04248 -2.72776 0
M  V30 4199 H 392.24 4.87405 -3.50081 0
M  V30 4200 H 393.31 3.46466 -3.39248 0
M  V30 4201 N 394.653 0.992116 1.22453 0
M  V30 4202 C 395.899 0.668523 1.91464 0
M  V30 4203 C 396.232 -0.797313 1.77078 0
M  V30 4204 O 395.507 -1.5765 1.13916 0
M  V30 4205 C 395.79 1.07424 3.43703 0
M  V30 4206 C 395.643 2.59857 3.67143 0
M  V30 4207 C 396.962 0.626891 4.35612 0
M  V30 4208 H 394.081 0.244341 0.695318 0
M  V30 4209 H 396.723 1.2355 1.44345 0
M  V30 4210 H 394.873 0.591816 3.83966 0
M  V30 4211 H 396.545 3.15764 3.3629 0
M  V30 4212 H 394.788 3.01961 3.11451 0
M  V30 4213 H 395.459 2.83296 4.73759 0
M  V30 4214 H 397.935 1.04125 4.02861 0
M  V30 4215 H 396.811 0.939076 5.40807 0
M  V30 4216 H 397.072 -0.472457 4.39568 0
M  V30 4217 N 396.131 -1.37776 0.765217 0
M  V30 4218 C 397.041 -2.34135 0.147666 0
M  V30 4219 C 398.057 -1.59854 -0.687215 0
M  V30 4220 O 399.233 -1.91983 -0.608659 0
M  V30 4221 C 396.298 -3.3901 -0.72617 0
M  V30 4222 C 395.359 -4.2912 0.124417 0
M  V30 4223 C 394.592 -5.28986 -0.707807 0
M  V30 4224 O 394.815 -5.36205 -1.94525 0
M  V30 4225 O 393.749 -6.01779 -0.12046 0
M  V30 4226 H 397.575 -2.88664 0.943758 0
M  V30 4227 H 395.16 -1.39824 0.526277 0
M  V30 4228 H 397.042 -4.03195 -1.22524 0
M  V30 4229 H 395.717 -2.86819 -1.50056 0
M  V30 4230 H 394.624 -3.68057 0.669696 0
M  V30 4231 H 395.957 -4.84598 0.861736 0
M  V30 4232 N 397.609 -0.515225 -1.4894 0
M  V30 4233 C 398.572 0.244681 -2.2789 0
M  V30 4234 C 399.572 0.881166 -1.34507 0
M  V30 4235 O 400.762 0.743497 -1.57537 0
M  V30 4236 C 397.894 1.35247 -3.12923 0
M  V30 4237 H 399.087 -0.448289 -2.96531 0
M  V30 4238 H 396.64 -0.270656 -1.53939 0
M  V30 4239 H 397.375 2.07916 -2.48881 0
M  V30 4240 H 397.16 0.901374 -3.81599 0
M  V30 4241 H 398.65 1.88737 -3.72516 0
M  V30 4242 N 399.087 1.5561 -0.249682 0
M  V30 4243 C 400.335 1.98618 0.373548 0
M  V30 4244 C 400.656 1.13919 1.58264 0
M  V30 4245 O 399.926 0.222637 1.94631 0
M  V30 4246 H 398.506 0.733571 0.141006 0
M  V30 4247 H 401.168 1.91748 -0.349117 0
M  V30 4248 H 400.264 3.04584 0.680796 0
M  V30 4249 N 400.565 -0.0233959 1.57583 0
M  V30 4250 C 401.813 -0.711654 1.89156 0
M  V30 4251 C 402.134 -1.75591 0.848096 0
M  V30 4252 O 401.404 -1.95547 -0.117566 0
M  V30 4253 H 399.984 -0.265835 0.698098 0
M  V30 4254 H 402.646 0.0119948 1.94896 0
M  V30 4255 H 401.742 -1.19766 2.88206 0
M  V30 4256 N 402.043 -1.548 -0.295768 0
M  V30 4257 C 402.99 -1.86113 -1.36494 0
M  V30 4258 C 403.96 -0.7105 -1.50137 0
M  V30 4259 O 405.145 -0.959626 -1.64912 0
M  V30 4260 C 402.285 -2.11861 -2.72413 0
M  V30 4261 C 401.398 -3.39471 -2.67177 0
M  V30 4262 C 400.533 -3.55035 -3.95125 0
M  V30 4263 C 399.572 -4.76418 -3.84308 0
M  V30 4264 N 398.709 -4.8876 -5.04042 0
M  V30 4265 H 403.549 -2.77314 -1.09091 0
M  V30 4266 H 401.086 -1.37315 -0.52753 0
M  V30 4267 H 403.044 -2.24786 -3.51464 0
M  V30 4268 H 401.674 -1.2392 -2.98066 0
M  V30 4269 H 400.726 -3.35139 -1.79962 0
M  V30 4270 H 402.038 -4.28646 -2.55076 0
M  V30 4271 H 401.192 -3.67653 -4.82614 0
M  V30 4272 H 399.931 -2.64002 -4.10066 0
M  V30 4273 H 398.936 -4.63827 -2.95202 0
M  V30 4274 H 400.161 -5.68863 -3.70906 0
M  V30 4275 H 398.107 -4.00652 -5.19436 0
M  V30 4276 H 398.024 -5.71945 -4.94384 0
M  V30 4277 H 399.292 -5.0574 -5.93167 0
M  V30 4278 N 403.521 0.559213 -1.47345 0
M  V30 4279 C 404.932 1.14134 -1.47751 0
M  V30 4280 C 405.283 1.94834 -0.231103 0
M  V30 4281 O 404.408 2.05957 0.664137 0
M  V30 4282 C 405.003 2.07653 -2.67705 0
M  V30 4283 C 403.562 2.61141 -2.71076 0
M  V30 4284 C 402.709 1.3748 -2.40821 0
M  V30 4285 H 405.66 0.345917 -1.54884 0
M  V30 4286 H 405.681 2.91497 -2.44561 0
M  V30 4287 H 405.193 1.4889 -3.58404 0
M  V30 4288 H 403.294 3.23707 -1.84511 0
M  V30 4289 H 403.407 3.02272 -3.7171 0
M  V30 4290 H 401.771 1.68086 -1.91362 0
M  V30 4291 H 402.554 0.805135 -3.33725 0
M  V30 4292 N 404.999 1.35443 0.805782 0
M  V30 4293 C 406.246 1.28761 1.56291 0
M  V30 4294 C 406.574 -0.137747 1.94012 0
M  V30 4295 O 405.829 -1.1032 1.61642 0
M  V30 4296 C 406.128 2.14045 2.86216 0
M  V30 4297 C 405.794 3.62826 2.67709 0
M  V30 4298 C 404.456 4.0338 2.6237 0
M  V30 4299 C 406.808 4.57227 2.50186 0
M  V30 4300 C 404.136 5.36501 2.37451 0
M  V30 4301 C 406.488 5.90547 2.26797 0
M  V30 4302 C 405.152 6.30245 2.1988 0
M  V30 4303 H 404.422 0.471171 0.571908 0
M  V30 4304 H 407.069 1.67347 0.930974 0
M  V30 4305 H 405.374 1.68342 3.53791 0
M  V30 4306 H 407.071 2.0621 3.43917 0
M  V30 4307 H 403.661 3.30644 2.72713 0
M  V30 4308 H 407.845 4.2678 2.53323 0
M  V30 4309 H 403.101 5.66259 2.30567 0
M  V30 4310 H 407.275 6.63274 2.12228 0
M  V30 4311 H 404.902 7.33328 2.00333 0
M  V30 4312 N 406.477 -1.02803 1.19454 0
M  V30 4313 C 407.409 -2.11181 0.890807 0
M  V30 4314 C 408.422 -1.6238 -0.116829 0
M  V30 4315 O 409.611 -1.78144 0.112694 0
M  V30 4316 C 406.711 -3.37461 0.311942 0
M  V30 4317 C 405.884 -4.15446 1.36834 0
M  V30 4318 C 404.943 -5.20039 0.802864 0
M  V30 4319 O 403.969 -5.49602 1.48077 0
M  V30 4320 N 405.171 -5.79165 -0.393417 0
M  V30 4321 H 407.936 -2.37827 1.82369 0
M  V30 4322 H 405.497 -1.19101 1.09666 0
M  V30 4323 H 407.489 -4.0462 -0.0802225 0
M  V30 4324 H 406.059 -3.08156 -0.52524 0
M  V30 4325 H 405.279 -3.43423 1.93531 0
M  V30 4326 H 406.567 -4.64335 2.08015 0
M  V30 4327 H 405.965 -5.57466 -0.961658 0
M  V30 4328 H 404.522 -6.47729 -0.727351 0
M  V30 4329 N 407.956 -0.998596 -1.21925 0
M  V30 4330 C 408.886 -0.573688 -2.26343 0
M  V30 4331 C 409.867 0.402296 -1.65274 0
M  V30 4332 O 411.052 0.291683 -1.91997 0
M  V30 4333 C 408.182 0.106839 -3.47136 0
M  V30 4334 C 407.136 -0.788269 -4.20678 0
M  V30 4335 C 406.462 0.0254927 -5.34694 0
M  V30 4336 C 407.762 -2.08784 -4.78755 0
M  V30 4337 H 409.456 -1.44651 -2.62138 0
M  V30 4338 H 407.002 -0.696975 -1.26009 0
M  V30 4339 H 408.955 0.415531 -4.19346 0
M  V30 4340 H 407.679 1.01424 -3.10452 0
M  V30 4341 H 406.338 -1.08069 -3.50309 0
M  V30 4342 H 405.986 0.933989 -4.94253 0
M  V30 4343 H 405.686 -0.570437 -5.84825 0
M  V30 4344 H 407.21 0.328147 -6.09718 0
M  V30 4345 H 408.624 -1.84272 -5.42878 0
M  V30 4346 H 407.021 -2.63307 -5.39249 0
M  V30 4347 H 408.091 -2.76284 -3.98491 0
M  V30 4348 N 409.434 1.37368 -0.772513 0
M  V30 4349 C 410.664 2.03647 -0.348082 0
M  V30 4350 C 411.072 1.58392 1.03482 0
M  V30 4351 O 410.415 0.760921 1.672 0
M  V30 4352 C 410.477 3.58131 -0.313404 0
M  V30 4353 C 410.141 4.2652 -1.64102 0
M  V30 4354 C 411.138 4.50587 -2.5936 0
M  V30 4355 C 408.823 4.64335 -1.91567 0
M  V30 4356 C 410.817 5.11526 -3.80289 0
M  V30 4357 C 408.504 5.24996 -3.12766 0
M  V30 4358 C 409.502 5.48529 -4.06946 0
M  V30 4359 O 409.19 6.07921 -5.26011 0
M  V30 4360 H 408.922 0.660538 -0.143753 0
M  V30 4361 H 411.476 1.76669 -1.04772 0
M  V30 4362 H 409.706 3.84159 0.442617 0
M  V30 4363 H 411.395 4.05813 0.0840613 0
M  V30 4364 H 412.161 4.21784 -2.39423 0
M  V30 4365 H 408.04 4.45353 -1.19088 0
M  V30 4366 H 411.584 5.29811 -4.53813 0
M  V30 4367 H 407.481 5.53223 -3.32588 0
M  V30 4368 H 408.249 6.26398 -5.26847 0
M  V30 4369 N 410.912 0.523116 1.48665 0
M  V30 4370 C 411.859 -0.243398 2.29513 0
M  V30 4371 C 412.829 -0.940139 1.36933 0
M  V30 4372 O 414.014 -0.942503 1.65896 0
M  V30 4373 C 411.154 -1.28855 3.20141 0
M  V30 4374 C 410.267 -0.60135 4.27794 0
M  V30 4375 C 409.402 -1.62884 5.05611 0
M  V30 4376 C 408.441 -0.924726 6.05075 0
M  V30 4377 N 407.578 -1.89744 6.75975 0
M  V30 4378 H 412.418 0.452234 2.94549 0
M  V30 4379 H 409.955 0.234858 1.45213 0
M  V30 4380 H 411.913 -1.90674 3.71079 0
M  V30 4381 H 410.543 -1.95266 2.57043 0
M  V30 4382 H 409.595 0.130623 3.80176 0
M  V30 4383 H 410.907 -0.0481585 4.98777 0
M  V30 4384 H 410.061 -2.32149 5.60528 0
M  V30 4385 H 408.8 -2.21592 4.34452 0
M  V30 4386 H 407.805 -0.217966 5.49368 0
M  V30 4387 H 409.03 -0.343851 6.78229 0
M  V30 4388 H 406.976 -2.47373 6.07571 0
M  V30 4389 H 406.893 -1.3955 7.43009 0
M  V30 4390 H 408.161 -2.58229 7.35485 0
M  V30 4391 N 412.39 -1.55475 0.257931 0
M  V30 4392 C 413.615 -2.04064 -0.370488 0
M  V30 4393 C 414.04 -1.13565 -1.49948 0
M  V30 4394 O 413.398 -0.130781 -1.80828 0
M  V30 4395 C 413.446 -3.50554 -0.845237 0
M  V30 4396 O 412.55 -3.63173 -1.95394 0
M  V30 4397 H 411.891 -0.659257 -0.0792243 0
M  V30 4398 H 414.421 -2.00903 0.387212 0
M  V30 4399 H 414.431 -3.91588 -1.14555 0
M  V30 4400 H 413.106 -4.15896 -0.0191259 0
M  V30 4401 H 411.683 -3.34039 -1.65748 0
M  V30 4402 N 413.868 0.0150385 -1.57593 0
M  V30 4403 C 415.116 0.701613 -1.8953 0
M  V30 4404 C 415.437 1.75139 -0.857396 0
M  V30 4405 O 414.707 1.95607 0.107194 0
M  V30 4406 H 413.287 0.26213 -0.699498 0
M  V30 4407 H 415.949 -0.0223304 -1.94887 0
M  V30 4408 H 415.045 1.18236 -2.88837 0
M  V30 4409 N 415.346 1.54954 0.287554 0
M  V30 4410 C 416.592 1.75132 1.02257 0
M  V30 4411 C 416.925 0.542858 1.86458 0
M  V30 4412 O 416.2 -0.459856 1.88986 0
M  V30 4413 C 416.483 3.04812 1.91733 0
M  V30 4414 C 416.336 4.35985 1.10622 0
M  V30 4415 C 417.655 3.30438 2.90687 0
M  V30 4416 H 414.774 0.637194 0.370341 0
M  V30 4417 H 417.416 1.87678 0.296111 0
M  V30 4418 H 415.566 2.94247 2.53675 0
M  V30 4419 H 417.238 4.58487 0.508636 0
M  V30 4420 H 415.481 4.31865 0.409271 0
M  V30 4421 H 416.152 5.23017 1.76513 0
M  V30 4422 H 418.628 3.40701 2.38877 0
M  V30 4423 H 417.504 4.22467 3.50447 0
M  V30 4424 H 417.765 2.49377 3.65053 0
M  V30 4425 N 416.824 -0.551391 1.4764 0
M  V30 4426 C 418.071 -1.3083 1.54563 0
M  V30 4427 C 418.399 -1.93359 0.210361 0
M  V30 4428 O 417.654 -1.78721 -0.797332 0
M  V30 4429 C 417.953 -2.43469 2.61644 0
M  V30 4430 C 417.619 -1.98732 4.04742 0
M  V30 4431 C 416.281 -1.86248 4.43695 0
M  V30 4432 C 418.633 -1.64659 4.94507 0
M  V30 4433 C 415.961 -1.37995 5.70241 0
M  V30 4434 C 418.313 -1.17875 6.21521 0
M  V30 4435 C 416.977 -1.03992 6.5935 0
M  V30 4436 H 416.247 -0.478741 0.565587 0
M  V30 4437 H 418.894 -0.617697 1.81264 0
M  V30 4438 H 417.199 -3.18109 2.28722 0
M  V30 4439 H 418.896 -3.01642 2.64222 0
M  V30 4440 H 415.486 -2.09393 3.73968 0
M  V30 4441 H 419.67 -1.73174 4.65107 0
M  V30 4442 H 414.926 -1.25915 5.98294 0
M  V30 4443 H 419.1 -0.905739 6.90485 0
M  V30 4444 H 416.727 -0.663794 7.57296 0
M  V30 4445 N 418.302 -1.35869 -0.798587 0
M  V30 4446 C 419.579 -1.20145 -1.54352 0
M  V30 4447 C 419.959 0.216161 -2.0999 0
M  V30 4448 O 419.307 1.22068 -1.93162 0
M  V30 4449 C 419.517 -2.27602 -2.64572 0
M  V30 4450 C 420.865 -2.63811 -3.32699 0
M  V30 4451 O 421.889 -2.26576 -2.74849 0
M  V30 4452 O 420.748 -3.27866 -4.37226 0
M  V30 4453 H 417.842 -0.467248 -0.682355 0
M  V30 4454 H 420.388 -1.47574 -0.837859 0
M  V30 4455 H 419.16 -3.2265 -2.21388 0
M  V30 4456 H 418.783 -2.01488 -3.42766 0
M  V30 4457 N 419.78 1.02168 -1.19998 0
M  V30 4458 C 421.028 1.75338 -1.00504 0
M  V30 4459 C 421.349 1.89387 0.464506 0
M  V30 4460 O 420.619 1.43268 1.33608 0
M  V30 4461 H 419.199 0.649564 -0.368885 0
M  V30 4462 H 421.861 1.23205 -1.51018 0
M  V30 4463 H 420.957 2.75892 -1.45912 0
M  V30 4464 N 421.258 1.00505 1.21394 0
M  V30 4465 C 422.669 0.721082 1.72213 0
M  V30 4466 C 423.02 -0.761263 1.80829 0
M  V30 4467 O 422.145 -1.59464 1.46288 0
M  V30 4468 C 422.74 1.30228 3.12772 0
M  V30 4469 C 421.299 1.06743 3.60947 0
M  V30 4470 C 420.446 1.41507 2.38477 0
M  V30 4471 H 423.397 1.17594 1.06571 0
M  V30 4472 H 423.418 0.686955 3.74247 0
M  V30 4473 H 422.93 2.38115 3.06468 0
M  V30 4474 H 421.031 0.00572162 3.726 0
M  V30 4475 H 421.144 1.73936 4.46411 0
M  V30 4476 H 419.508 0.833852 2.40664 0
M  V30 4477 H 420.291 2.50424 2.34824 0
M  V30 4478 N 422.737 -1.36956 0.779787 0
M  V30 4479 C 423.977 -2.01328 0.353043 0
M  V30 4480 C 424.341 -1.60558 -1.05286 0
M  V30 4481 O 425.542 -2.1745 -1.58016 0
M  V30 4482 C 423.813 -3.53874 0.500822 0
M  V30 4483 S 425.372 -4.38506 0.16053 0
M  V30 4484 H 422.19 -0.69799 0.13539 0
M  V30 4485 H 424.792 -1.67016 1.01617 0
M  V30 4486 H 423.496 -3.81034 1.52451 0
M  V30 4487 H 423.027 -3.92994 -0.178574 0
M  V30 4488 H 425.042 -4.85153 -1.04121 0
M  V30 4489 N 424.215 -0.530993 -1.48385 0
M  V30 4490 C 425.463 0.00273189 -2.021 0
M  V30 4491 C 425.784 1.34672 -1.41027 0
M  V30 4492 O 425.054 1.8724 -0.576012 0
M  V30 4493 H 423.634 0.00399774 -0.746989 0
M  V30 4494 H 426.296 -0.695054 -1.82085 0
M  V30 4495 H 425.392 0.11031 -3.11905 0
M  V30 4496 N 425.693 1.55336 -0.266172 0
M  V30 4497 C 426.921 2.03801 0.356756 0
M  V30 4498 C 427.336 1.14485 1.50129 0
M  V30 4499 O 426.693 0.163121 1.8177 0
M  V30 4500 C 426.744 3.51455 0.846281 0
M  V30 4501 O 426.465 4.37371 -0.252663 0
M  V30 4502 C 427.966 4.15767 1.53794 0
M  V30 4503 H 425.186 0.665906 0.0825218 0
M  V30 4504 H 427.73 2.00636 -0.39566 0
M  V30 4505 H 425.885 3.55092 1.54881 0
M  V30 4506 H 426.299 5.24358 0.122173 0
M  V30 4507 H 427.773 5.20714 1.83198 0
M  V30 4508 H 428.25 3.63404 2.46646 0
M  V30 4509 H 428.856 4.16107 0.879488 0
M  V30 4510 N 427.171 -0.0066808 1.57599 0
M  V30 4511 C 428.118 -1.00024 2.08 0
M  V30 4512 C 429.088 -1.34549 0.973943 0
M  V30 4513 O 430.273 -1.44502 1.24595 0
M  V30 4514 C 427.413 -2.2891 2.58252 0
M  V30 4515 C 426.526 -2.00346 3.82734 0
M  V30 4516 C 425.661 -3.23265 4.21513 0
M  V30 4517 C 424.7 -2.90357 5.3885 0
M  V30 4518 N 423.837 -4.05793 5.72954 0
M  V30 4519 H 428.677 -0.563499 2.92624 0
M  V30 4520 H 426.214 -0.266592 1.44664 0
M  V30 4521 H 428.172 -3.04247 2.85464 0
M  V30 4522 H 426.802 -2.70265 1.76512 0
M  V30 4523 H 425.854 -1.15406 3.62471 0
M  V30 4524 H 427.166 -1.72086 4.68175 0
M  V30 4525 H 426.32 -4.06953 4.49971 0
M  V30 4526 H 425.059 -3.54657 3.34768 0
M  V30 4527 H 424.064 -2.05075 5.10122 0
M  V30 4528 H 425.289 -2.60219 6.27266 0
M  V30 4529 H 423.235 -4.37094 4.89167 0
M  V30 4530 H 423.152 -3.81034 6.52954 0
M  V30 4531 H 424.42 -4.90289 6.06001 0
M  V30 4532 N 428.649 -1.55105 -0.279332 0
M  V30 4533 C 429.579 -1.90557 -1.34945 0
M  V30 4534 C 430.56 -0.766738 -1.51839 0
M  V30 4535 O 431.745 -1.02434 -1.64988 0
M  V30 4536 C 428.875 -2.17193 -2.71006 0
M  V30 4537 C 427.829 -3.33021 -2.68851 0
M  V30 4538 C 427.155 -3.45123 -4.08405 0
M  V30 4539 C 428.455 -4.69578 -2.28678 0
M  V30 4540 H 430.149 -2.80188 -1.05522 0
M  V30 4541 H 427.695 -1.34811 -0.506173 0
M  V30 4542 H 429.648 -2.40581 -3.45975 0
M  V30 4543 H 428.372 -1.24355 -3.01999 0
M  V30 4544 H 427.031 -3.0959 -1.9634 0
M  V30 4545 H 426.679 -2.49762 -4.3661 0
M  V30 4546 H 426.379 -4.22995 -4.07859 0
M  V30 4547 H 427.903 -3.70796 -4.85121 0
M  V30 4548 H 429.317 -4.92553 -2.93368 0
M  V30 4549 H 427.714 -5.5032 -2.39306 0
M  V30 4550 H 428.784 -4.68828 -1.23807 0
M  V30 4551 N 430.127 0.543554 -1.4793 0
M  V30 4552 C 431.404 1.30458 -1.4574 0
M  V30 4553 C 431.784 2.1048 -0.161692 0
M  V30 4554 O 431.132 2.11831 0.856734 0
M  V30 4555 C 431.342 2.19754 -2.71126 0
M  V30 4556 C 432.69 2.80334 -3.18901 0
M  V30 4557 O 433.714 2.30049 -2.71948 0
M  V30 4558 O 432.573 3.71766 -4.00565 0
M  V30 4559 H 429.667 0.588117 -0.581418 0
M  V30 4560 H 432.213 0.561328 -1.60147 0
M  V30 4561 H 430.985 1.60316 -3.56952 0
M  V30 4562 H 430.608 3.01351 -2.59371 0
M  V30 4563 N 431.605 1.3629 0.791371 0
M  V30 4564 C 432.555 1.26988 1.89362 0
M  V30 4565 C 433.539 0.161795 1.60084 0
M  V30 4566 O 434.731 0.394426 1.72549 0
M  V30 4567 C 431.86 1.05944 3.26544 0
M  V30 4568 C 430.946 2.21211 3.61838 0
M  V30 4569 N 431.337 3.46518 3.68455 0
M  V30 4570 C 429.635 2.12933 3.91887 0
M  V30 4571 C 430.336 4.2241 3.99931 0
M  V30 4572 N 429.312 3.51329 4.14812 0
M  V30 4573 H 433.114 2.21908 1.92702 0
M  V30 4574 H 430.628 1.28982 0.986787 0
M  V30 4575 H 432.625 0.973666 4.05371 0
M  V30 4576 H 431.285 0.119223 3.24481 0
M  V30 4577 H 432.296 3.80677 3.51148 0
M  V30 4578 H 428.973 1.26855 3.97761 0
M  V30 4579 H 430.363 5.30767 4.1199 0
M  V30 4580 N 433.083 -1.0153 1.20538 0
M  V30 4581 C 434.046 -2.0826 0.957098 0
M  V30 4582 C 435.046 -1.60657 -0.0678655 0
M  V30 4583 O 436.236 -1.73385 0.168332 0
M  V30 4584 C 433.368 -3.38033 0.441188 0
M  V30 4585 H 434.561 -2.31719 1.90384 0
M  V30 4586 H 432.114 -1.1835 1.02093 0
M  V30 4587 H 432.849 -3.20249 -0.510961 0
M  V30 4588 H 432.634 -3.73911 1.18038 0
M  V30 4589 H 434.124 -4.16613 0.287009 0
M  V30 4590 N 434.561 -1.01147 -1.20859 0
M  V30 4591 C 435.807 -0.698899 -1.90377 0
M  V30 4592 C 436.14 0.76904 -1.78324 0
M  V30 4593 O 435.415 1.55817 -1.16409 0
M  V30 4594 C 435.698 -1.12878 -3.41951 0
M  V30 4595 C 435.551 -2.65665 -3.62963 0
M  V30 4596 C 436.87 -0.696114 -4.3456 0
M  V30 4597 H 433.989 -0.255372 -0.691342 0
M  V30 4598 H 436.631 -1.25831 -1.42361 0
M  V30 4599 H 434.781 -0.652827 -3.82976 0
M  V30 4600 H 436.453 -3.21074 -3.31224 0
M  V30 4601 H 434.696 -3.06878 -3.06608 0
M  V30 4602 H 435.367 -2.90797 -4.69192 0
M  V30 4603 H 437.843 -1.10521 -4.01154 0
M  V30 4604 H 436.719 -1.025 -5.39245 0
M  V30 4605 H 436.98 0.402465 -4.40264 0
M  V30 4606 N 436.039 1.36541 -0.78704 0
M  V30 4607 C 437.267 2.03561 -0.370199 0
M  V30 4608 C 437.682 1.59347 1.01263 0
M  V30 4609 O 437.039 0.781781 1.64907 0
M  V30 4610 C 437.09 3.59033 -0.421614 0
M  V30 4611 O 436.811 4.01634 -1.7499 0
M  V30 4612 C 438.312 4.433 0.00489763 0
M  V30 4613 H 435.532 0.653346 -0.152904 0
M  V30 4614 H 438.076 1.74566 -1.06522 0
M  V30 4615 H 436.231 3.86746 0.224971 0
M  V30 4616 H 436.645 4.96217 -1.69909 0
M  V30 4617 H 438.119 5.51939 -0.0822184 0
M  V30 4618 H 438.596 4.26285 1.05723 0
M  V30 4619 H 439.202 4.20843 -0.614085 0
M  V30 4620 N 437.518 0.538854 1.48102 0
M  V30 4621 C 438.481 -0.208395 2.28251 0
M  V30 4622 C 439.481 -0.859656 1.35892 0
M  V30 4623 O 440.671 -0.71834 1.58699 0
M  V30 4624 C 437.803 -1.30252 3.15035 0
M  V30 4625 H 438.996 0.495407 2.9578 0
M  V30 4626 H 436.549 0.295112 1.53489 0
M  V30 4627 H 437.284 -2.0393 2.52157 0
M  V30 4628 H 437.069 -0.840551 3.82985 0
M  V30 4629 H 438.559 -1.82787 3.75471 0
M  V30 4630 N 438.996 -1.55193 0.274407 0
M  V30 4631 C 440.242 -1.99877 -0.343086 0
M  V30 4632 C 440.575 -1.16256 -1.55558 0
M  V30 4633 O 439.85 -0.232462 -1.93106 0
M  V30 4634 C 440.133 -3.52706 -0.725965 0
M  V30 4635 C 439.986 -4.47081 0.493818 0
M  V30 4636 C 441.305 -4.11422 -1.56268 0
M  V30 4637 H 438.424 -0.726625 -0.123229 0
M  V30 4638 H 441.066 -1.86136 0.38121 0
M  V30 4639 H 439.216 -3.64546 -1.34307 0
M  V30 4640 H 440.888 -4.47186 1.13237 0
M  V30 4641 H 439.131 -4.1877 1.13201 0
M  V30 4642 H 439.802 -5.51699 0.18217 0
M  V30 4643 H 442.278 -4.02855 -1.04151 0
M  V30 4644 H 441.154 -5.18568 -1.79939 0
M  V30 4645 H 441.415 -3.61607 -2.54348 0
M  V30 4646 N 440.474 -0.00167713 -1.576 0
M  V30 4647 C 441.722 0.681471 -1.90264 0
M  V30 4648 C 442.043 1.7422 -0.875924 0
M  V30 4649 O 441.313 1.95709 0.0864412 0
M  V30 4650 H 439.893 0.254696 -0.702239 0
M  V30 4651 H 442.555 -0.0429996 -1.94853 0
M  V30 4652 H 441.651 1.15166 -2.90075 0
M  V30 4653 N 441.952 1.55251 0.271103 0
M  V30 4654 C 443.182 1.79713 1.01916 0
M  V30 4655 C 443.59 0.571613 1.80359 0
M  V30 4656 O 442.933 -0.468853 1.77616 0
M  V30 4657 C 442.995 2.97138 2.02359 0
M  V30 4658 C 442.659 4.34104 1.42837 0
M  V30 4659 C 443.656 5.13019 0.843071 0
M  V30 4660 C 441.341 4.80765 1.455 0
M  V30 4661 C 443.335 6.36729 0.292333 0
M  V30 4662 C 441.022 6.0443 0.900402 0
M  V30 4663 C 442.02 6.8225 0.32007 0
M  V30 4664 O 441.708 8.03582 -0.226031 0
M  V30 4665 H 441.44 0.602431 0.306681 0
M  V30 4666 H 443.994 2.03097 0.306701 0
M  V30 4667 H 442.224 2.6945 2.77369 0
M  V30 4668 H 443.913 3.08907 2.63309 0
M  V30 4669 H 444.679 4.781 0.815178 0
M  V30 4670 H 440.558 4.20202 1.89609 0
M  V30 4671 H 444.102 6.97414 -0.161274 0
M  V30 4672 H 439.999 6.3883 0.925541 0
M  V30 4673 H 440.767 8.18418 -0.115572 0
M  V30 4674 N 443.43 -0.535701 1.48216 0
M  V30 4675 C 444.678 -1.28928 1.55634 0
M  V30 4676 C 444.999 -1.93645 0.229514 0
M  V30 4677 O 444.269 -1.81038 -0.74846 0
M  V30 4678 H 442.849 -0.47884 0.573342 0
M  V30 4679 H 445.511 -0.623853 1.84646 0
M  V30 4680 H 444.607 -2.07157 2.33436 0
M  V30 4681 N 444.908 -1.36708 -0.784132 0
M  V30 4682 C 446.136 -1.34398 -1.57305 0
M  V30 4683 C 446.551 0.0735577 -1.88657 0
M  V30 4684 O 445.908 1.03193 -1.50524 0
M  V30 4685 C 445.959 -2.17053 -2.89085 0
M  V30 4686 O 445.68 -3.53281 -2.59083 0
M  V30 4687 C 447.181 -2.22583 -3.83369 0
M  V30 4688 H 444.401 -0.460819 -0.487736 0
M  V30 4689 H 446.945 -1.79879 -0.972819 0
M  V30 4690 H 445.1 -1.75113 -3.45564 0
M  V30 4691 H 445.514 -3.9647 -3.43383 0
M  V30 4692 H 446.988 -2.84763 -4.72878 0
M  V30 4693 H 447.465 -1.23075 -4.21603 0
M  V30 4694 H 448.071 -2.64781 -3.32823 0
M  V30 4695 N 446.386 1.0089 -1.21074 0
M  V30 4696 C 447.611 1.78727 -1.05221 0
M  V30 4697 C 448.036 1.83932 0.393795 0
M  V30 4698 O 447.394 1.28004 1.28393 0
M  V30 4699 C 447.442 3.20665 -1.64944 0
M  V30 4700 O 446.546 4.02632 -0.892273 0
M  V30 4701 H 445.887 0.550973 -0.370574 0
M  V30 4702 H 448.417 1.26847 -1.60534 0
M  V30 4703 H 448.427 3.71352 -1.69002 0
M  V30 4704 H 447.102 3.16191 -2.70177 0
M  V30 4705 H 445.679 3.61207 -0.926492 0
M  V30 4706 N 447.864 1.01787 1.20321 0
M  V30 4707 C 449.141 0.622978 1.85414 0
M  V30 4708 C 449.521 -0.898887 1.91006 0
M  V30 4709 O 448.869 -1.79112 1.41884 0
M  V30 4710 C 449.079 1.27226 3.24984 0
M  V30 4711 C 450.427 1.3885 4.01255 0
M  V30 4712 O 451.451 1.22857 3.34342 0
M  V30 4713 O 450.31 1.64705 5.2109 0
M  V30 4714 H 447.404 0.215116 0.798533 0
M  V30 4715 H 449.95 1.11533 1.27901 0
M  V30 4716 H 448.722 2.31209 3.15687 0
M  V30 4717 H 448.345 0.767069 3.90131 0
M  V30 4718 N 449.342 -1.36122 0.79427 0
M  V30 4719 C 450.59 -1.98718 0.368177 0
M  V30 4720 C 450.911 -1.63345 -1.06506 0
M  V30 4721 O 450.181 -0.909825 -1.73491 0
M  V30 4722 H 448.761 -0.735038 0.133146 0
M  V30 4723 H 451.423 -1.66239 1.01739 0
M  V30 4724 H 450.519 -3.08633 0.463923 0
M  V30 4725 N 450.82 -0.546701 -1.47814 0
M  V30 4726 C 451.767 0.206854 -2.29871 0
M  V30 4727 C 452.737 0.918235 -1.38411 0
M  V30 4728 O 453.922 0.915991 -1.67375 0
M  V30 4729 C 451.062 1.23746 -3.22151 0
M  V30 4730 C 450.175 0.533216 -4.28697 0
M  V30 4731 C 449.31 1.5482 -5.08138 0
M  V30 4732 C 448.349 0.828347 -6.06469 0
M  V30 4733 N 447.486 1.78966 -6.78908 0
M  V30 4734 H 452.326 -0.499037 -2.93792 0
M  V30 4735 H 449.863 -0.25793 -1.44821 0
M  V30 4736 H 451.821 1.84746 -3.74065 0
M  V30 4737 H 450.451 1.91151 -2.60117 0
M  V30 4738 H 449.503 -0.191089 -3.7992 0
M  V30 4739 H 450.815 -0.0311987 -4.9879 0
M  V30 4740 H 449.969 2.23202 -5.6415 0
M  V30 4741 H 448.708 2.14652 -4.37922 0
M  V30 4742 H 447.713 0.130539 -5.49645 0
M  V30 4743 H 448.938 0.235907 -6.7869 0
M  V30 4744 H 446.884 2.37675 -6.1143 0
M  V30 4745 H 446.801 1.27712 -7.45135 0
M  V30 4746 H 448.069 2.46496 -7.395 0
M  V30 4747 N 452.299 1.55045 -0.282633 0
M  V30 4748 C 453.247 2.24254 0.617478 0
M  V30 4749 C 454.241 1.24215 1.15183 0
M  V30 4750 O 455.447 1.42123 1.10459 0
M  V30 4751 H 451.822 0.719801 0.217693 0
M  V30 4752 H 453.793 2.98398 0.0110076 0
M  V30 4753 C 452.542 2.98281 1.78672 0
M  V30 4754 H 451.865 3.75053 1.38475 0
M  V30 4755 H 453.305 3.50017 2.393 0
M  V30 4756 C 451.764 2.04184 2.67975 0
M  V30 4757 O 452.294 1.59792 3.6855 0
M  V30 4758 N 450.5 1.70526 2.35307 0
M  V30 4759 H 450.047 2.06821 1.53567 0
M  V30 4760 H 450.005 1.07839 2.95327 0
M  V30 4761 N 453.777 0.010035 1.57597 0
M  V30 4762 C 455.007 -0.682422 1.95004 0
M  V30 4763 C 455.415 -1.67278 0.884014 0
M  V30 4764 O 454.758 -1.83129 -0.144672 0
M  V30 4765 C 454.82 -1.46141 3.28456 0
M  V30 4766 C 454.484 -0.631523 4.52615 0
M  V30 4767 C 455.481 0.0850905 5.1983 0
M  V30 4768 C 453.166 -0.574539 4.99003 0
M  V30 4769 C 455.16 0.847566 6.3174 0
M  V30 4770 C 452.847 0.191655 6.10799 0
M  V30 4771 C 453.845 0.901432 6.77025 0
M  V30 4772 O 453.533 1.65511 7.86677 0
M  V30 4773 H 453.265 -0.194361 0.647456 0
M  V30 4774 H 455.819 0.060312 2.05311 0
M  V30 4775 H 454.049 -2.24885 3.14585 0
M  V30 4776 H 455.738 -2.04016 3.50902 0
M  V30 4777 H 456.504 0.0502812 4.84974 0
M  V30 4778 H 452.383 -1.11654 4.47274 0
M  V30 4779 H 455.927 1.4021 6.83364 0
M  V30 4780 H 451.824 0.228249 6.45096 0
M  V30 4781 H 452.592 1.57287 8.03245 0
M  V30 4782 N 455.255 -1.55392 -0.262866 0
M  V30 4783 C 456.504 -1.75679 -0.990943 0
M  V30 4784 C 456.817 -0.57097 -1.87081 0
M  V30 4785 O 458.023 -0.656486 -2.63444 0
M  V30 4786 C 456.479 -3.10964 -1.81188 0
M  V30 4787 C 456.087 -4.37146 -0.980188 0
M  V30 4788 C 457.831 -3.40597 -2.53365 0
M  V30 4789 C 455.738 -5.63466 -1.7961 0
M  V30 4790 H 454.668 -0.654868 -0.373716 0
M  V30 4791 H 457.319 -1.81841 -0.246203 0
M  V30 4792 H 455.701 -2.98867 -2.59797 0
M  V30 4793 H 456.875 -4.60187 -0.237558 0
M  V30 4794 H 455.19 -4.14731 -0.372497 0
M  V30 4795 H 457.787 -4.32186 -3.14833 0
M  V30 4796 H 458.13 -2.6119 -3.24169 0
M  V30 4797 H 458.663 -3.53838 -1.81779 0
M  V30 4798 H 455.402 -6.4565 -1.13209 0
M  V30 4799 H 454.922 -5.44552 -2.51443 0
M  V30 4800 H 456.601 -6.02139 -2.36723 0
M  V30 4801 N 456.733 0.527833 -1.48498 0
M  V30 4802 C 457.982 1.28003 -1.55878 0
M  V30 4803 C 458.295 1.9414 -0.238577 0
M  V30 4804 O 459.501 2.7083 -0.190643 0
M  V30 4805 C 457.957 2.32272 -2.74914 0
M  V30 4806 C 457.565 1.72196 -4.13585 0
M  V30 4807 C 459.309 3.08488 -2.91608 0
M  V30 4808 C 457.216 2.74417 -5.23879 0
M  V30 4809 H 456.146 0.481413 -0.580308 0
M  V30 4810 H 458.797 0.557195 -1.74836 0
M  V30 4811 H 457.179 3.07601 -2.49395 0
M  V30 4812 H 458.353 1.03041 -4.49132 0
M  V30 4813 H 456.668 1.08464 -4.02025 0
M  V30 4814 H 459.265 3.84879 -3.71177 0
M  V30 4815 H 459.608 3.64481 -2.01145 0
M  V30 4816 H 460.141 2.40274 -3.17038 0
M  V30 4817 H 456.88 2.23242 -6.16314 0
M  V30 4818 H 456.4 3.41893 -4.92818 0
M  V30 4819 H 458.079 3.37362 -5.52083 0
M  V30 4820 N 458.211 1.37122 0.776871 0
M  V30 4821 C 459.46 1.31373 1.53049 0
M  V30 4822 C 459.773 -0.101016 1.95339 0
M  V30 4823 O 460.979 -0.280953 2.70042 0
M  V30 4824 C 459.435 2.30567 2.76346 0
M  V30 4825 C 459.043 3.77543 2.41175 0
M  V30 4826 C 460.787 2.33818 3.54301 0
M  V30 4827 C 458.694 4.68481 3.60943 0
M  V30 4828 H 457.624 0.488234 0.574581 0
M  V30 4829 H 460.275 1.62554 0.851372 0
M  V30 4830 H 458.657 1.92396 3.46121 0
M  V30 4831 H 459.831 4.24521 1.79216 0
M  V30 4832 H 458.146 3.77187 1.76405 0
M  V30 4833 H 460.743 2.98965 4.4331 0
M  V30 4834 H 461.086 1.3503 3.93793 0
M  V30 4835 H 461.619 2.7067 2.91518 0
M  V30 4836 H 458.358 5.68378 3.26537 0
M  V30 4837 H 457.878 4.2621 4.22025 0
M  V30 4838 H 459.557 4.85366 4.27819 0
M  V30 4839 N 459.689 -1.00246 1.21608 0
M  V30 4840 C 460.636 -2.09073 0.977613 0
M  V30 4841 C 461.606 -1.65815 -0.097297 0
M  V30 4842 O 462.791 -1.90734 0.0503445 0
M  V30 4843 C 459.931 -3.40671 0.551133 0
M  V30 4844 C 459.044 -3.97326 1.69576 0
M  V30 4845 C 458.179 -5.17043 1.2182 0
M  V30 4846 C 457.218 -5.65813 2.335 0
M  V30 4847 N 456.355 -6.76778 1.86859 0
M  V30 4848 H 461.195 -2.28806 1.90924 0
M  V30 4849 H 458.732 -1.12186 0.951452 0
M  V30 4850 H 460.69 -4.16225 0.285097 0
M  V30 4851 H 459.32 -3.20967 -0.343489 0
M  V30 4852 H 458.372 -3.18734 2.07637 0
M  V30 4853 H 459.684 -4.29511 2.53617 0
M  V30 4854 H 458.838 -5.99852 0.908975 0
M  V30 4855 H 457.577 -4.86458 0.347869 0
M  V30 4856 H 456.582 -4.81599 2.65222 0
M  V30 4857 H 457.807 -5.98427 3.21033 0
M  V30 4858 H 455.753 -6.47994 1.02174 0
M  V30 4859 H 455.67 -7.08231 2.64471 0
M  V30 4860 H 456.938 -7.63116 1.58978 0
M  V30 4861 N 461.167 -1.02423 -1.1978 0
M  V30 4862 C 462.115 -0.594474 -2.24875 0
M  V30 4863 C 463.109 0.370598 -1.65296 0
M  V30 4864 O 464.315 0.239684 -1.78397 0
M  V30 4865 H 460.69 -0.173961 -0.731602 0
M  V30 4866 H 462.661 -1.4916 -2.58445 0
M  V30 4867 C 461.41 0.0436512 -3.47673 0
M  V30 4868 H 460.733 -0.689963 -3.93801 0
M  V30 4869 H 462.173 0.307362 -4.22884 0
M  V30 4870 C 460.632 1.28881 -3.11274 0
M  V30 4871 O 461.162 2.38135 -3.23503 0
M  V30 4872 N 459.368 1.1758 -2.6575 0
M  V30 4873 H 458.915 0.286769 -2.55999 0
M  V30 4874 H 458.873 2.00988 -2.41767 0
M  V30 4875 N 462.645 1.35699 -0.801477 0
M  V30 4876 C 463.87 2.03687 -0.390678 0
M  V30 4877 C 464.295 1.60015 0.988778 0
M  V30 4878 O 463.653 0.774357 1.63931 0
M  V30 4879 C 463.701 3.57439 -0.476404 0
M  V30 4880 O 462.805 4.09208 0.512106 0
M  V30 4881 H 462.146 0.64344 -0.163956 0
M  V30 4882 H 464.676 1.73403 -1.08594 0
M  V30 4883 H 464.686 4.06544 -0.344357 0
M  V30 4884 H 463.361 3.88576 -1.48262 0
M  V30 4885 H 461.938 3.7134 0.340721 0
M  V30 4886 N 464.123 0.554532 1.47522 0
M  V30 4887 C 465.369 0.0377449 2.03365 0
M  V30 4888 C 465.724 -1.29654 1.42154 0
M  V30 4889 O 465.017 -1.83022 0.566865 0
M  V30 4890 C 465.211 -0.115927 3.57212 0
M  V30 4891 C 465.04 1.20191 4.33341 0
M  V30 4892 C 463.81 1.76849 4.73342 0
M  V30 4893 C 466.008 2.11849 4.68641 0
M  V30 4894 N 463.99 3.02665 5.34104 0
M  V30 4895 C 465.361 3.22245 5.29677 0
M  V30 4896 C 467.416 2.11876 4.5057 0
M  V30 4897 C 466.119 4.32763 5.74551 0
M  V30 4898 C 468.145 3.21405 4.9644 0
M  V30 4899 C 467.507 4.30519 5.57523 0
M  V30 4900 H 463.606 0.0559107 0.779999 0
M  V30 4901 H 466.19 0.741232 1.80038 0
M  V30 4902 H 464.361 -0.788533 3.80311 0
M  V30 4903 H 466.093 -0.634538 3.99695 0
M  V30 4904 H 462.848 1.30681 4.55214 0
M  V30 4905 H 463.272 3.66788 5.69031 0
M  V30 4906 H 467.914 1.28801 4.02704 0
M  V30 4907 H 465.632 5.166 6.2141 0
M  V30 4908 H 469.218 3.22509 4.8423 0
M  V30 4909 H 468.098 5.13873 5.92371 0
M  V30 4910 N 465.601 -1.54893 0.290851 0
M  V30 4911 C 466.849 -1.99538 -0.320756 0
M  V30 4912 C 467.17 -1.18075 -1.55188 0
M  V30 4913 O 466.44 -0.274162 -1.93972 0
M  V30 4914 H 465.02 -0.737052 -0.121507 0
M  V30 4915 H 467.682 -1.90755 0.399832 0
M  V30 4916 H 466.778 -3.06282 -0.599802 0
M  V30 4917 N 467.08 -0.0183926 -1.57589 0
M  V30 4918 C 468.491 0.521927 -1.79256 0
M  V30 4919 C 468.842 1.72885 -0.927636 0
M  V30 4920 O 467.967 2.15978 -0.135091 0
M  V30 4921 C 468.562 0.953632 -3.25102 0
M  V30 4922 C 467.121 1.43913 -3.47801 0
M  V30 4923 C 466.268 0.398837 -2.74417 0
M  V30 4924 H 469.219 -0.244485 -1.56805 0
M  V30 4925 H 469.24 1.81863 -3.34224 0
M  V30 4926 H 468.752 0.0750123 -3.88028 0
M  V30 4927 H 466.853 2.33804 -2.90115 0
M  V30 4928 H 466.966 1.45391 -4.56507 0
M  V30 4929 H 465.33 0.864572 -2.39577 0
M  V30 4930 H 466.113 -0.471132 -3.40052 0
M  V30 4931 N 468.558 1.5553 0.254621 0
M  V30 4932 C 469.506 1.9048 1.33492 0
M  V30 4933 C 470.5 0.78304 1.50216 0
M  V30 4934 O 471.706 0.967582 1.51782 0
M  V30 4935 H 468.081 0.604846 0.44684 0
M  V30 4936 H 470.052 2.80688 1.01275 0
M  V30 4937 C 468.801 2.20928 2.68489 0
M  V30 4938 H 468.124 3.06742 2.56417 0
M  V30 4939 H 469.564 2.49291 3.42972 0
M  V30 4940 C 468.023 1.023 3.20993 0
M  V30 4941 O 468.553 0.267027 4.00811 0
M  V30 4942 N 466.759 0.815714 2.78917 0
M  V30 4943 H 466.306 1.43217 2.14119 0
M  V30 4944 H 466.264 0.0236532 3.14391 0
M  V30 4945 N 470.036 -0.519951 1.48776 0
M  V30 4946 C 471.282 -1.27456 1.58514 0
M  V30 4947 C 471.637 -1.90634 0.260057 0
M  V30 4948 O 470.93 -1.76815 -0.738036 0
M  V30 4949 C 471.124 -2.37864 2.6675 0
M  V30 4950 C 470.953 -1.85509 4.09654 0
M  V30 4951 C 469.723 -1.67661 4.76674 0
M  V30 4952 C 471.921 -1.37783 4.955 0
M  V30 4953 N 469.903 -1.10037 6.03958 0
M  V30 4954 C 471.274 -0.921714 6.1311 0
M  V30 4955 C 473.329 -1.26179 4.81646 0
M  V30 4956 C 472.032 -0.361057 7.18393 0
M  V30 4957 C 474.058 -0.715121 5.8706 0
M  V30 4958 C 473.42 -0.269132 7.03886 0
M  V30 4959 H 469.519 -0.457049 0.634531 0
M  V30 4960 H 472.103 -0.585073 1.85701 0
M  V30 4961 H 470.274 -3.04296 2.41367 0
M  V30 4962 H 472.006 -3.04901 2.66116 0
M  V30 4963 H 468.761 -1.91478 4.33166 0
M  V30 4964 H 469.185 -0.832067 6.71867 0
M  V30 4965 H 473.827 -1.59263 3.91657 0
M  V30 4966 H 471.545 -0.0179127 8.08098 0
M  V30 4967 H 475.131 -0.628376 5.78397 0
M  V30 4968 H 474.011 0.14729 7.84062 0
M  V30 4969 N 471.514 -1.37532 -0.769588 0
M  V30 4970 C 472.762 -1.32597 -1.5252 0
M  V30 4971 C 473.083 0.0884294 -1.94799 0
M  V30 4972 O 472.353 1.03289 -1.66458 0
M  V30 4973 H 470.933 -0.487846 -0.565699 0
M  V30 4974 H 473.595 -1.72044 -0.915806 0
M  V30 4975 H 472.691 -1.96643 -2.42359 0
M  V30 4976 N 472.992 0.995999 -1.22138 0
M  V30 4977 C 473.902 2.11985 -1.00496 0
M  V30 4978 C 474.918 1.7394 0.0457701 0
M  V30 4979 O 476.094 2.00868 -0.146273 0
M  V30 4980 C 473.159 3.41779 -0.582086 0
M  V30 4981 C 472.22 3.93943 -1.70608 0
M  V30 4982 C 471.453 5.17542 -1.30328 0
M  V30 4983 O 471.676 5.70114 -0.180743 0
M  V30 4984 O 470.61 5.63382 -2.11861 0
M  V30 4985 H 474.436 2.33123 -1.94647 0
M  V30 4986 H 472.021 1.10358 -1.00705 0
M  V30 4987 H 473.903 4.1989 -0.356467 0
M  V30 4988 H 472.578 3.22007 0.330592 0
M  V30 4989 H 471.485 3.17019 -1.98619 0
M  V30 4990 H 472.818 4.18141 -2.59651 0
M  V30 4991 N 474.47 1.03057 1.19235 0
M  V30 4992 C 475.417 0.612832 2.22515 0
M  V30 4993 C 476.387 -0.374224 1.61829 0
M  V30 4994 O 477.572 -0.270501 1.88873 0
M  V30 4995 C 474.712 -0.028475 3.45088 0
M  V30 4996 C 473.825 1.00483 4.20151 0
M  V30 4997 C 472.96 0.333102 5.30155 0
M  V30 4998 C 471.999 1.3522 5.96977 0
M  V30 4999 N 471.136 0.70616 6.9854 0
M  V30 5000 H 475.976 1.49812 2.57605 0
M  V30 5001 H 473.513 0.749658 1.26564 0
M  V30 5002 H 475.471 -0.417548 4.15105 0
M  V30 5003 H 474.101 -0.877334 3.10649 0
M  V30 5004 H 473.153 1.51194 3.49062 0
M  V30 5005 H 474.465 1.77929 4.65986 0
M  V30 5006 H 473.619 -0.110725 6.06599 0
M  V30 5007 H 472.358 -0.473547 4.85396 0
M  V30 5008 H 471.363 1.80627 5.19282 0
M  V30 5009 H 472.588 2.16037 6.4382 0
M  V30 5010 H 470.534 -0.0803667 6.55951 0
M  V30 5011 H 470.451 1.41848 7.42573 0
M  V30 5012 H 471.719 0.286391 7.78974 0
M  V30 5013 N 475.948 -1.35272 0.808662 0
M  V30 5014 C 477.196 -1.98316 0.389233 0
M  V30 5015 C 477.517 -1.64465 -1.04767 0
M  V30 5016 O 476.787 -0.928175 -1.72516 0
M  V30 5017 H 475.367 -0.733585 0.140935 0
M  V30 5018 H 478.029 -1.6515 1.03496 0
M  V30 5019 H 477.125 -3.08123 0.496631 0
M  V30 5020 N 477.426 -0.562348 -1.47226 0
M  V30 5021 C 478.656 -0.0451619 -2.06551 0
M  V30 5022 C 479.064 1.25626 -1.41473 0
M  V30 5023 O 478.407 1.76563 -0.507061 0
M  V30 5024 C 478.469 0.216068 -3.5885 0
M  V30 5025 C 478.133 -0.996691 -4.45999 0
M  V30 5026 C 479.13 -1.90358 -4.83797 0
M  V30 5027 C 476.815 -1.21281 -4.87438 0
M  V30 5028 C 478.809 -3.01023 -5.6184 0
M  V30 5029 C 476.496 -2.32255 -5.65244 0
M  V30 5030 C 477.494 -3.21956 -6.02356 0
M  V30 5031 O 477.182 -4.31005 -6.78594 0
M  V30 5032 H 476.914 -0.0451646 -0.67449 0
M  V30 5033 H 479.468 -0.776842 -1.90143 0
M  V30 5034 H 477.698 1.00212 -3.7349 0
M  V30 5035 H 479.387 0.679264 -4.00176 0
M  V30 5036 H 480.153 -1.74868 -4.52378 0
M  V30 5037 H 476.032 -0.523767 -4.58015 0
M  V30 5038 H 479.576 -3.71064 -5.90726 0
M  V30 5039 H 475.473 -2.47715 -5.96077 0
M  V30 5040 H 476.241 -4.29118 -6.96994 0
M  V30 5041 N 478.904 1.54736 -0.299062 0
M  V30 5042 C 479.837 2.1962 0.619851 0
M  V30 5043 C 480.815 1.16496 1.13434 0
M  V30 5044 O 481.999 1.4513 1.2029 0
M  V30 5045 C 479.126 2.8385 1.84788 0
M  V30 5046 C 478.172 4.00484 1.46679 0
M  V30 5047 S 479.005 5.32926 0.524389 0
M  V30 5048 C 480.161 6.00638 1.76026 0
M  V30 5049 H 480.394 2.97221 0.0686177 0
M  V30 5050 H 477.927 1.54176 -0.0832085 0
M  V30 5051 H 479.885 3.21483 2.55263 0
M  V30 5052 H 478.546 2.06099 2.37028 0
M  V30 5053 H 477.739 4.44201 2.38121 0
M  V30 5054 H 477.341 3.64398 0.842008 0
M  V30 5055 H 479.633 6.21327 2.70109 0
M  V30 5056 H 480.576 6.94805 1.36569 0
M  V30 5057 H 480.984 5.3026 1.93609 0
M  V30 5058 N 480.382 0.0267497 1.57577 0
M  V30 5059 C 481.798 -0.32962 1.56159 0
M  V30 5060 C 481.998 -1.73059 1.03213 0
M  V30 5061 O 481.054 -2.43233 0.677804 0
M  V30 5062 C 482.367 -0.18039 3.00158 0
M  V30 5063 C 483.915 -0.253334 3.11973 0
M  V30 5064 C 484.39 -0.132921 4.57807 0
M  V30 5065 N 485.881 -0.189979 4.6281 0
M  V30 5066 C 486.616 -0.120554 5.73273 0
M  V30 5067 N 486.112 -0.000180315 6.928 0
M  V30 5068 N 487.905 -0.174369 5.61829 0
M  V30 5069 H 480.056 0.942896 1.90324 0
M  V30 5070 H 482.319 0.3639 0.875375 0
M  V30 5071 H 482.025 0.784576 3.42837 0
M  V30 5072 H 481.899 -0.951565 3.65 0
M  V30 5073 H 484.286 -1.20876 2.69208 0
M  V30 5074 H 484.367 0.548177 2.49857 0
M  V30 5075 H 484.011 0.819073 5.01252 0
M  V30 5076 H 483.941 -0.953264 5.179 0
M  V30 5077 H 486.432 -0.283257 3.76837 0
M  V30 5078 H 486.745 0.0461666 7.72786 0
M  V30 5079 H 485.09 0.034569 6.94991 0
M  V30 5080 H 488.281 -0.266794 4.67339 0
M  V30 5081 H 488.454 -0.116802 6.47895 0
M  V30 5082 N 481.861 -1.55662 -0.24637 0
M  V30 5083 C 482.791 -1.93377 -1.30873 0
M  V30 5084 C 483.772 -0.798773 -1.50179 0
M  V30 5085 O 484.957 -1.0591 -1.62778 0
M  V30 5086 C 482.087 -2.22893 -2.66338 0
M  V30 5087 C 481.041 -3.38649 -2.61727 0
M  V30 5088 C 480.367 -3.53708 -4.00992 0
M  V30 5089 C 481.667 -4.74323 -2.18666 0
M  V30 5090 H 483.361 -2.82363 -0.995552 0
M  V30 5091 H 480.907 -1.35854 -0.477464 0
M  V30 5092 H 482.86 -2.47866 -3.40794 0
M  V30 5093 H 481.584 -1.30733 -2.99293 0
M  V30 5094 H 480.243 -3.13685 -1.89729 0
M  V30 5095 H 479.891 -2.58967 -4.31214 0
M  V30 5096 H 479.591 -4.31551 -3.98795 0
M  V30 5097 H 481.115 -3.81003 -4.77147 0
M  V30 5098 H 482.529 -4.98665 -2.82854 0
M  V30 5099 H 480.926 -5.55273 -2.27579 0
M  V30 5100 H 481.996 -4.71349 -1.13834 0
M  V30 5101 N 483.339 0.512053 -1.4905 0
M  V30 5102 C 484.286 1.6148 -1.64902 0
M  V30 5103 C 485.256 1.58687 -0.490673 0
M  V30 5104 O 486.441 1.76842 -0.71636 0
M  V30 5105 C 483.581 2.99676 -1.71139 0
M  V30 5106 C 482.694 3.12568 -2.98203 0
M  V30 5107 C 481.829 4.4143 -2.95487 0
M  V30 5108 C 480.868 4.47916 -4.17179 0
M  V30 5109 N 480.005 5.68191 -4.12437 0
M  V30 5110 H 484.845 1.47271 -2.59066 0
M  V30 5111 H 482.382 0.716713 -1.28459 0
M  V30 5112 H 484.34 3.79761 -1.72736 0
M  V30 5113 H 482.97 3.12614 -0.804508 0
M  V30 5114 H 482.022 2.25618 -3.06269 0
M  V30 5115 H 483.334 3.1322 -3.88194 0
M  V30 5116 H 482.488 5.29825 -2.95585 0
M  V30 5117 H 481.227 4.43326 -2.03256 0
M  V30 5118 H 480.232 3.57925 -4.17337 0
M  V30 5119 H 481.457 4.47744 -5.1059 0
M  V30 5120 H 479.403 5.7095 -3.23036 0
M  V30 5121 H 479.32 5.70413 -4.96151 0
M  V30 5122 H 480.588 6.58823 -4.16621 0
M  V30 5123 N 484.817 1.37938 0.762283 0
M  V30 5124 C 486.233 1.18945 1.06415 0
M  V30 5125 C 486.433 0.0321163 2.01474 0
M  V30 5126 O 485.489 -0.624844 2.44647 0
M  V30 5127 C 486.802 2.51218 1.65258 0
M  V30 5128 C 488.35 2.57824 1.7747 0
M  V30 5129 C 488.825 3.90251 2.39725 0
M  V30 5130 N 490.316 3.91744 2.47166 0
M  V30 5131 C 491.051 4.90966 2.96209 0
M  V30 5132 N 490.547 6.00585 3.45354 0
M  V30 5133 N 492.34 4.78363 2.9517 0
M  V30 5134 H 484.491 2.11994 0.131301 0
M  V30 5135 H 486.754 0.940262 0.120879 0
M  V30 5136 H 486.46 3.36317 1.02878 0
M  V30 5137 H 486.334 2.68989 2.64433 0
M  V30 5138 H 488.721 1.73126 2.3898 0
M  V30 5139 H 488.802 2.43928 0.770241 0
M  V30 5140 H 488.446 4.75368 1.78852 0
M  V30 5141 H 488.376 4.01454 3.40796 0
M  V30 5142 H 490.867 3.12563 2.12397 0
M  V30 5143 H 491.18 6.72236 3.81207 0
M  V30 5144 H 489.525 6.04217 3.43434 0
M  V30 5145 H 492.716 3.91841 2.56082 0
M  V30 5146 H 492.889 5.55843 3.33081 0
M  V30 5147 N 486.295 -0.989507 1.22664 0
M  V30 5148 C 487.227 -2.0824 0.957542 0
M  V30 5149 C 488.24 -1.6267 -0.0651098 0
M  V30 5150 O 489.429 -1.77695 0.169312 0
M  V30 5151 C 486.529 -3.36298 0.419145 0
M  V30 5152 C 485.702 -4.10882 1.49982 0
M  V30 5153 C 484.761 -5.17221 0.967904 0
M  V30 5154 O 483.787 -5.44613 1.65487 0
M  V30 5155 N 484.989 -5.80124 -0.20896 0
M  V30 5156 H 487.754 -2.31904 1.89843 0
M  V30 5157 H 485.315 -1.15552 1.13399 0
M  V30 5158 H 487.307 -4.04671 0.0485451 0
M  V30 5159 H 485.877 -3.09671 -0.426937 0
M  V30 5160 H 485.097 -3.37092 2.04359 0
M  V30 5161 H 486.385 -4.57482 2.22682 0
M  V30 5162 H 485.783 -5.60244 -0.783818 0
M  V30 5163 H 484.34 -6.49715 -0.520913 0
M  V30 5164 N 487.773 -1.03688 -1.18687 0
M  V30 5165 C 488.998 -0.757819 -1.93059 0
M  V30 5166 C 489.423 0.678353 -1.75442 0
M  V30 5167 O 488.781 1.46938 -1.06203 0
M  V30 5168 C 488.829 -1.12423 -3.42627 0
M  V30 5169 O 487.933 -0.247505 -4.11657 0
M  V30 5170 H 487.274 -0.279245 -0.602427 0
M  V30 5171 H 489.804 -1.3857 -1.5053 0
M  V30 5172 H 489.814 -1.08454 -3.93322 0
M  V30 5173 H 488.489 -2.17049 -3.54771 0
M  V30 5174 H 487.066 -0.34649 -3.71287 0
M  V30 5175 N 489.251 1.34841 -0.815825 0
M  V30 5176 C 490.499 1.98107 -0.399744 0
M  V30 5177 C 490.82 1.65019 1.03894 0
M  V30 5178 O 490.09 0.937311 1.72021 0
M  V30 5179 H 488.67 0.732827 -0.144823 0
M  V30 5180 H 491.332 1.64599 -1.0437 0
M  V30 5181 H 490.428 3.07856 -0.512965 0
M  V30 5182 N 490.729 0.570148 1.46925 0
M  V30 5183 C 491.677 -0.183181 2.31878 0
M  V30 5184 C 492.671 -0.896721 1.43719 0
M  V30 5185 O 493.877 -0.816536 1.60414 0
M  V30 5186 H 490.252 -0.077944 0.74795 0
M  V30 5187 H 492.223 0.552312 2.93244 0
M  V30 5188 C 490.972 -1.19172 3.2664 0
M  V30 5189 H 490.295 -0.652088 3.94446 0
M  V30 5190 H 491.735 -1.68946 3.88887 0
M  V30 5191 C 490.194 -2.24627 2.51086 0
M  V30 5192 O 490.724 -3.31773 2.26472 0
M  V30 5193 N 488.93 -1.98898 2.11867 0
M  V30 5194 H 488.477 -1.11777 2.32086 0
M  V30 5195 H 488.435 -2.6967 1.61634 0
M  V30 5196 N 492.207 -1.54576 0.307264 0
M  V30 5197 C 493.432 -2.05139 -0.305379 0
M  V30 5198 C 493.857 -1.18278 -1.46259 0
M  V30 5199 O 493.215 -0.188243 -1.8032 0
M  V30 5200 C 493.263 -3.53066 -0.733283 0
M  V30 5201 O 492.367 -3.69206 -1.83741 0
M  V30 5202 H 491.708 -0.661444 -0.0582105 0
M  V30 5203 H 494.238 -1.99569 0.450931 0
M  V30 5204 H 494.248 -3.95034 -1.02039 0
M  V30 5205 H 492.923 -4.15746 0.113198 0
M  V30 5206 H 491.5 -3.39143 -1.55037 0
M  V30 5207 N 493.685 -0.035106 -1.57561 0
M  V30 5208 C 494.617 0.973604 -2.07494 0
M  V30 5209 C 495.63 1.28504 -0.999534 0
M  V30 5210 O 496.819 1.24864 -1.27559 0
M  V30 5211 C 493.919 2.29945 -2.48955 0
M  V30 5212 C 493.092 2.1723 -3.79644 0
M  V30 5213 C 492.151 3.328 -4.07592 0
M  V30 5214 O 491.177 3.09418 -4.77754 0
M  V30 5215 N 492.379 4.56779 -3.58236 0
M  V30 5216 H 495.144 0.547525 -2.94656 0
M  V30 5217 H 492.705 0.151515 -1.61189 0
M  V30 5218 H 494.697 3.06097 -2.64739 0
M  V30 5219 H 493.267 2.64173 -1.67126 0
M  V30 5220 H 492.487 1.25768 -3.73599 0
M  V30 5221 H 493.775 2.05945 -4.65257 0
M  V30 5222 H 493.173 4.78668 -3.01485 0
M  V30 5223 H 491.73 5.30079 -3.79288 0
M  V30 5224 N 495.163 1.55791 0.238111 0
M  V30 5225 C 496.411 1.77681 0.963001 0
M  V30 5226 C 496.732 0.600674 1.85518 0
M  V30 5227 O 496.002 -0.383182 1.92116 0
M  V30 5228 H 494.582 0.655315 0.358568 0
M  V30 5229 H 497.244 1.93239 0.253945 0
M  V30 5230 H 496.34 2.69177 1.57956 0
M  V30 5231 N 496.642 -0.504142 1.49319 0
M  V30 5232 C 497.87 -1.28256 1.62351 0
M  V30 5233 C 498.285 -1.86502 0.293682 0
M  V30 5234 O 497.642 -1.67678 -0.720449 0
M  V30 5235 C 497.693 -2.41507 2.68992 0
M  V30 5236 O 497.414 -1.85656 3.96817 0
M  V30 5237 C 498.915 -3.32929 2.927 0
M  V30 5238 H 496.135 -0.389115 0.546654 0
M  V30 5239 H 498.679 -0.605531 1.95329 0
M  V30 5240 H 496.834 -3.05046 2.38801 0
M  V30 5241 H 497.248 -2.59981 4.55533 0
M  V30 5242 H 498.722 -4.0868 3.71058 0
M  V30 5243 H 499.199 -3.89733 2.02496 0
M  V30 5244 H 499.805 -2.75158 3.24296 0
M  V30 5245 N 498.12 -1.38341 -0.754957 0
M  V30 5246 C 499.36 -1.35888 -1.52689 0
M  V30 5247 C 499.724 0.0513682 -1.91931 0
M  V30 5248 O 500.925 0.200761 -2.68049 0
M  V30 5249 C 499.196 -2.28666 -2.74676 0
M  V30 5250 S 500.755 -2.4422 -3.64558 0
M  V30 5251 H 497.573 -0.482165 -0.522531 0
M  V30 5252 H 500.175 -1.74253 -0.886358 0
M  V30 5253 H 498.879 -3.30023 -2.43953 0
M  V30 5254 H 498.41 -1.91445 -3.43675 0
M  V30 5255 H 500.425 -1.66525 -4.67423 0
M  V30 5256 N 499.598 0.982988 -1.23187 0
M  V30 5257 C 500.846 1.72052 -1.06031 0
M  V30 5258 C 501.167 1.90769 0.404019 0
M  V30 5259 O 500.437 1.47446 1.28982 0
M  V30 5260 H 499.017 0.637499 -0.389363 0
M  V30 5261 H 501.679 1.18338 -1.54862 0
M  V30 5262 H 500.775 2.7111 -1.54615 0
M  V30 5263 N 501.076 1.04316 1.18135 0
M  V30 5264 C 502.322 0.749128 1.88457 0
M  V30 5265 C 502.655 -0.72149 1.803 0
M  V30 5266 O 501.93 -1.52676 1.205 0
M  V30 5267 C 502.213 1.21905 3.38838 0
M  V30 5268 C 502.066 2.75195 3.55792 0
M  V30 5269 C 503.385 0.811085 4.32561 0
M  V30 5270 H 500.504 0.273611 0.684329 0
M  V30 5271 H 503.146 1.29561 1.38975 0
M  V30 5272 H 501.296 0.754137 3.8111 0
M  V30 5273 H 502.968 3.29743 3.22595 0
M  V30 5274 H 501.211 3.14899 2.98364 0
M  V30 5275 H 501.882 3.03135 4.61317 0
M  V30 5276 H 504.358 1.21118 3.98082 0
M  V30 5277 H 503.234 1.16761 5.36338 0
M  V30 5278 H 503.495 -0.285596 4.41177 0
M  V30 5279 N 502.554 -1.34406 0.822964 0
M  V30 5280 C 503.784 -2.02214 0.423424 0
M  V30 5281 C 504.192 -1.62124 -0.975322 0
M  V30 5282 O 503.535 -0.822452 -1.6426 0
M  V30 5283 C 503.597 -3.56721 0.446107 0
M  V30 5284 C 503.261 -4.20136 1.79819 0
M  V30 5285 C 504.258 -4.4065 2.75904 0
M  V30 5286 C 501.943 -4.56906 2.08669 0
M  V30 5287 C 503.937 -4.9706 3.99012 0
M  V30 5288 C 501.624 -5.13026 3.32036 0
M  V30 5289 C 502.622 -5.33047 4.27024 0
M  V30 5290 O 502.31 -5.87979 5.48211 0
M  V30 5291 H 502.042 -0.654748 0.168169 0
M  V30 5292 H 504.596 -1.72659 1.11257 0
M  V30 5293 H 502.826 -3.85537 -0.299734 0
M  V30 5294 H 504.515 -4.05845 0.0666114 0
M  V30 5295 H 505.281 -4.12607 2.54912 0
M  V30 5296 H 501.16 -4.40626 1.35535 0
M  V30 5297 H 504.704 -5.12603 4.73164 0
M  V30 5298 H 500.601 -5.40498 3.52891 0
M  V30 5299 H 501.369 -6.06413 5.49732 0
M  V30 5300 N 504.032 -0.577932 -1.46621 0
M  V30 5301 C 504.979 0.158048 -2.30258 0
M  V30 5302 C 505.949 0.888669 -1.40328 0
M  V30 5303 O 507.134 0.880283 -1.6928 0
M  V30 5304 C 504.274 1.16884 -3.24703 0
M  V30 5305 C 503.387 0.442163 -4.29731 0
M  V30 5306 C 502.522 1.44007 -5.11308 0
M  V30 5307 C 501.561 0.69952 -6.0809 0
M  V30 5308 N 500.698 1.64525 -6.82551 0
M  V30 5309 H 505.538 -0.561242 -2.92667 0
M  V30 5310 H 503.075 -0.288591 -1.44241 0
M  V30 5311 H 505.033 1.7677 -3.779 0
M  V30 5312 H 503.663 1.85591 -2.64113 0
M  V30 5313 H 502.715 -0.271632 -3.79429 0
M  V30 5314 H 504.027 -0.136992 -4.98612 0
M  V30 5315 H 503.181 2.11186 -5.68758 0
M  V30 5316 H 501.92 2.05315 -4.42377 0
M  V30 5317 H 500.925 0.0139217 -5.49798 0
M  V30 5318 H 502.15 0.091894 -6.79038 0
M  V30 5319 H 500.096 2.24653 -6.16334 0
M  V30 5320 H 500.013 1.11878 -7.47676 0
M  V30 5321 H 501.281 2.30754 -7.44562 0
M  V30 5322 N 505.51 1.54411 -0.315457 0
M  V30 5323 C 506.735 2.05299 0.294496 0
M  V30 5324 C 507.16 1.19052 1.4563 0
M  V30 5325 O 506.518 0.197804 1.80218 0
M  V30 5326 C 506.566 3.5345 0.714549 0
M  V30 5327 O 505.67 3.70175 1.81781 0
M  V30 5328 H 505.011 0.661743 0.0547019 0
M  V30 5329 H 507.541 1.99327 -0.461508 0
M  V30 5330 H 507.551 3.9557 0.999426 0
M  V30 5331 H 506.226 4.1568 -0.135244 0
M  V30 5332 H 504.803 3.3996 1.53236 0
M  V30 5333 N 506.988 0.0434614 1.5754 0
M  V30 5334 C 508.213 -0.645358 1.97104 0
M  V30 5335 C 508.638 -1.64037 0.920521 0
M  V30 5336 O 507.996 -1.80922 -0.11708 0
M  V30 5337 C 508.044 -1.31547 3.35749 0
M  V30 5338 O 507.148 -2.43103 3.33129 0
M  V30 5339 H 506.489 -0.168403 0.64229 0
M  V30 5340 H 509.019 0.109573 2.04306 0
M  V30 5341 H 509.029 -1.66895 3.72304 0
M  V30 5342 H 507.704 -0.586205 4.11748 0
M  V30 5343 H 506.281 -2.0976 3.0831 0
M  V30 5344 N 508.466 -1.55915 -0.229846 0
M  V30 5345 C 509.696 -1.82352 -0.971152 0
M  V30 5346 C 510.104 -0.619231 -1.7878 0
M  V30 5347 O 509.447 0.421597 -1.78797 0
M  V30 5348 C 509.509 -3.02399 -1.9441 0
M  V30 5349 C 509.173 -4.37739 -1.31277 0
M  V30 5350 C 510.17 -5.15074 -0.706757 0
M  V30 5351 C 507.855 -4.84454 -1.32702 0
M  V30 5352 C 509.849 -6.37281 -0.123413 0
M  V30 5353 C 507.536 -6.06605 -0.739831 0
M  V30 5354 C 508.534 -6.82858 -0.139071 0
M  V30 5355 O 508.222 -8.027 0.439007 0
M  V30 5356 H 507.954 -0.61035 -0.290601 0
M  V30 5357 H 510.508 -2.03839 -0.252746 0
M  V30 5358 H 508.738 -2.76709 -2.70128 0
M  V30 5359 H 510.427 -3.15779 -2.55026 0
M  V30 5360 H 511.193 -4.80093 -0.688131 0
M  V30 5361 H 507.072 -4.25081 -1.78402 0
M  V30 5362 H 510.616 -6.96741 0.346124 0
M  V30 5363 H 506.513 -6.4106 -0.755841 0
M  V30 5364 H 507.281 -8.17824 0.332521 0
M  V30 5365 N 509.944 0.496216 -1.49584 0
M  V30 5366 C 511.174 1.27209 -1.62793 0
M  V30 5367 C 511.582 1.86799 -0.300476 0
M  V30 5368 O 510.925 1.68802 0.724674 0
M  V30 5369 C 510.987 2.43812 -2.64189 0
M  V30 5370 C 510.651 2.05055 -4.08414 0
M  V30 5371 C 511.648 1.58752 -4.9507 0
M  V30 5372 C 509.333 2.14543 -4.54177 0
M  V30 5373 C 511.327 1.22448 -6.25528 0
M  V30 5374 C 509.014 1.77851 -5.84647 0
M  V30 5375 C 510.012 1.31878 -6.70147 0
M  V30 5376 O 509.7 0.956834 -7.98185 0
M  V30 5377 H 509.432 0.391848 -0.550846 0
M  V30 5378 H 511.986 0.601712 -1.96389 0
M  V30 5379 H 510.216 3.13941 -2.25783 0
M  V30 5380 H 511.905 3.05829 -2.66877 0
M  V30 5381 H 512.671 1.50863 -4.60939 0
M  V30 5382 H 508.55 2.49277 -3.87791 0
M  V30 5383 H 512.094 0.864933 -6.92217 0
M  V30 5384 H 507.991 1.8539 -6.18305 0
M  V30 5385 H 508.759 1.08789 -8.11238 0
M  V30 5386 N 511.423 1.38739 0.74761 0
M  V30 5387 C 512.834 1.31507 1.32524 0
M  V30 5388 C 513.185 -0.0263963 1.96182 0
M  V30 5389 O 512.31 -0.92849 1.95469 0
M  V30 5390 C 512.905 2.38162 2.40966 0
M  V30 5391 C 511.464 2.34489 2.94434 0
M  V30 5392 C 510.611 2.20712 1.67873 0
M  V30 5393 H 513.562 1.4901 0.546043 0
M  V30 5394 H 513.583 2.04222 3.21051 0
M  V30 5395 H 513.095 3.35783 1.94605 0
M  V30 5396 H 511.196 1.40467 3.45108 0
M  V30 5397 H 511.309 3.28861 3.48407 0
M  V30 5398 H 509.673 1.67667 1.91729 0
M  V30 5399 H 510.456 3.20285 1.23582 0
M  V30 5400 N 512.901 -0.976442 1.23707 0
M  V30 5401 C 514.148 -1.71827 1.07153 0
M  V30 5402 C 514.476 -1.9053 -0.390982 0
M  V30 5403 O 513.731 -1.45779 -1.30564 0
M  V30 5404 C 514.03 -3.11814 1.74662 0
M  V30 5405 C 513.696 -3.12978 3.24585 0
M  V30 5406 C 512.358 -3.13003 3.6549 0
M  V30 5407 C 514.71 -3.07986 4.20469 0
M  V30 5408 C 512.038 -3.05757 5.00729 0
M  V30 5409 C 514.39 -3.02282 5.55705 0
M  V30 5410 C 513.054 -3.00631 5.95968 0
M  V30 5411 H 512.324 -0.628758 0.392102 0
M  V30 5412 H 514.971 -1.14239 1.53693 0
M  V30 5413 H 513.276 -3.72812 1.20492 0
M  V30 5414 H 514.973 -3.67989 1.59328 0
M  V30 5415 H 511.563 -3.13718 2.92026 0
M  V30 5416 H 515.747 -3.07103 3.89874 0
M  V30 5417 H 511.003 -3.02834 5.31132 0
M  V30 5418 H 515.177 -2.97376 6.29714 0
M  V30 5419 H 512.804 -2.94771 7.00724 0
M  V30 5420 N 514.379 -1.04941 -1.1758 0
M  V30 5421 C 515.326 -0.648155 -2.21512 0
M  V30 5422 C 516.296 0.348431 -1.62404 0
M  V30 5423 O 517.481 0.240419 -1.89279 0
M  V30 5424 C 514.621 -0.0264291 -3.4509 0
M  V30 5425 C 513.734 -1.07154 -4.185 0
M  V30 5426 C 512.869 -0.417403 -5.29558 0
M  V30 5427 C 511.908 -1.447 -5.94751 0
M  V30 5428 N 511.045 -0.817203 -6.97328 0
M  V30 5429 H 515.885 -1.53891 -2.55189 0
M  V30 5430 H 513.422 -0.769699 -1.25356 0
M  V30 5431 H 515.38 0.351456 -4.15717 0
M  V30 5432 H 514.01 0.827802 -3.12005 0
M  V30 5433 H 513.062 -1.56728 -3.46613 0
M  V30 5434 H 514.374 -1.8532 -4.63096 0
M  V30 5435 H 513.528 0.0142061 -6.06698 0
M  V30 5436 H 512.267 0.396265 -4.86087 0
M  V30 5437 H 511.272 -1.88865 -5.16343 0
M  V30 5438 H 512.497 -2.26252 -6.40302 0
M  V30 5439 H 510.443 -0.0239995 -6.55996 0
M  V30 5440 H 510.36 -1.53644 -7.40223 0
M  V30 5441 H 511.628 -0.410283 -7.7842 0
M  V30 5442 N 515.857 1.33968 -0.830081 0
M  V30 5443 C 517.105 1.97672 -0.420734 0
M  V30 5444 C 517.426 1.66111 1.02138 0
M  V30 5445 O 516.696 0.955503 1.71017 0
M  V30 5446 H 515.276 0.73125 -0.152587 0
M  V30 5447 H 517.938 1.63483 -1.0611 0
M  V30 5448 H 517.034 3.07294 -0.545588 0
M  V30 5449 N 517.335 0.585699 1.46312 0
M  V30 5450 C 518.582 0.0724211 2.0237 0
M  V30 5451 C 518.91 -1.28868 1.45683 0
M  V30 5452 O 518.165 -1.85853 0.612945 0
M  V30 5453 C 518.464 -0.0401312 3.57377 0
M  V30 5454 C 518.13 1.25376 4.33119 0
M  V30 5455 C 516.792 1.60824 4.5353 0
M  V30 5456 C 519.144 2.10987 4.76586 0
M  V30 5457 C 516.472 2.81676 5.14661 0
M  V30 5458 C 518.824 3.31068 5.39052 0
M  V30 5459 C 517.488 3.66794 5.5769 0
M  V30 5460 H 516.758 0.0265007 0.740526 0
M  V30 5461 H 519.405 0.762935 1.75646 0
M  V30 5462 H 517.71 -0.813791 3.83255 0
M  V30 5463 H 519.407 -0.453078 3.98432 0
M  V30 5464 H 515.997 0.967808 4.1753 0
M  V30 5465 H 520.181 1.84904 4.60569 0
M  V30 5466 H 515.437 3.0949 5.27282 0
M  V30 5467 H 519.611 3.97672 5.71691 0
M  V30 5468 H 517.238 4.60529 6.04828 0
M  V30 5469 N 518.813 -1.54241 0.323641 0
M  V30 5470 C 519.776 -2.22997 -0.529602 0
M  V30 5471 C 520.776 -1.22345 -1.04347 0
M  V30 5472 O 521.966 -1.46924 -0.935889 0
M  V30 5473 C 519.098 -2.93409 -1.73562 0
M  V30 5474 H 520.291 -2.99815 0.0714518 0
M  V30 5475 H 517.844 -1.56121 0.0747258 0
M  V30 5476 H 518.579 -2.20729 -2.37591 0
M  V30 5477 H 518.364 -3.67217 -1.37456 0
M  V30 5478 H 519.854 -3.45794 -2.34128 0
M  V30 5479 O 520.33 -0.191128 -1.60365 0
M  V30 5480 H 521.021 0.395023 -1.89629 0
M  V30 END ATOM
M  V30 BEGIN BOND
M  V30 END BOND
M  V30 END CTAB
M  END
$$$$
