drugbank_target|P53805 Calcipressin-1 (DB00975)
 OpenBabel12092121063D

  0  0  0     0  0            999 V3000
M  V30 BEGIN CTAB
M  V30 COUNTS 3903 3954 0 0 0
M  V30 BEGIN ATOM
M  V30 1 H -0.908 1.98254 -0.117106 0
M  V30 2 N 0 1.576 0 0
M  V30 3 C 0.933 2.03868 1.02534 0
M  V30 4 C 1.911 0.928543 1.3348 0
M  V30 5 O 3.095 1.19667 1.45644 0
M  V30 6 C 0.222 2.43627 2.35294 0
M  V30 7 C -0.732 3.65373 2.2001 0
M  V30 8 S 0.101 5.13292 1.52614 0
M  V30 9 C 1.257 5.56322 2.86805 0
M  V30 10 H 1.49 2.90518 0.631377 0
M  V30 11 H -0.977 1.52953 0.210867 0
M  V30 12 H 0.981 2.67203 3.11629 0
M  V30 13 H -0.358 1.57376 2.7183 0
M  V30 14 H -1.165 3.90944 3.18086 0
M  V30 15 H -1.563 3.418 1.51819 0
M  V30 16 H 0.729 5.58782 3.83104 0
M  V30 17 H 1.672 6.56266 2.65933 0
M  V30 18 H 2.08 4.83886 2.90714 0
M  V30 19 N 1.4781 -0.272755 1.55222 0
M  V30 20 C 2.3881 -1.35918 1.91216 0
M  V30 21 C 3.4041 -1.54026 0.809436 0
M  V30 22 O 4.5801 -1.68148 1.10852 0
M  V30 23 C 1.6451 -2.69834 2.17693 0
M  V30 24 C 0.7061 -2.6047 3.41253 0
M  V30 25 C -0.0609 -3.88 3.66458 0
M  V30 26 O 0.1621 -4.88693 2.94169 0
M  V30 27 O -0.9039 -3.88189 4.59992 0
M  V30 28 H 2.9221 -1.0839 2.83699 0
M  V30 29 H 0.5071 -0.471301 1.41771 0
M  V30 30 H 2.3891 -3.49017 2.36147 0
M  V30 31 H 1.0641 -2.97148 1.28392 0
M  V30 32 H -0.0289 -1.79663 3.28134 0
M  V30 33 H 1.3041 -2.38106 4.30774 0
M  V30 34 N 2.9562 -1.48159 -0.537278 0
M  V30 35 C 4.2332 -1.46291 -1.29839 0
M  V30 36 C 4.6132 -0.170613 -2.10409 0
M  V30 37 O 3.9612 0.847746 -2.12192 0
M  V30 38 C 4.1712 -2.72055 -2.18603 0
M  V30 39 C 5.5192 -3.20087 -2.7898 0
M  V30 40 O 6.5432 -2.72921 -2.28894 0
M  V30 41 O 5.4022 -4.02138 -3.70064 0
M  V30 42 H 2.4962 -0.583906 -0.585647 0
M  V30 43 H 5.0422 -1.60384 -0.554534 0
M  V30 44 H 3.8142 -3.57628 -1.58801 0
M  V30 45 H 3.4372 -2.60646 -3.00249 0
M  V30 46 N 4.4343 0.785586 -1.36625 0
M  V30 47 C 5.6823 1.54057 -1.30808 0
M  V30 48 C 6.0033 1.94683 0.111157 0
M  V30 49 O 5.2733 1.65241 1.05224 0
M  V30 50 H 3.8533 0.571354 -0.481211 0
M  V30 51 H 6.5153 0.935821 -1.70963 0
M  V30 52 H 5.6113 2.44637 -1.93801 0
M  V30 53 N 5.9124 1.20967 1.01018 0
M  V30 54 C 7.1584 1.02526 1.74975 0
M  V30 55 C 7.4914 -0.4408 1.89131 0
M  V30 56 O 6.7664 -1.32718 1.42184 0
M  V30 57 C 7.0494 1.71699 3.1653 0
M  V30 58 C 6.9024 3.25791 3.10129 0
M  V30 59 C 8.2214 1.45531 4.15342 0
M  V30 60 H 5.3404 0.373863 0.635134 0
M  V30 61 H 7.9824 1.49071 1.17805 0
M  V30 62 H 6.1324 1.32128 3.65341 0
M  V30 63 H 7.8044 3.74697 2.69072 0
M  V30 64 H 6.0474 3.56363 2.47362 0
M  V30 65 H 6.7184 3.69353 4.10222 0
M  V30 66 H 9.1944 1.79872 3.75213 0
M  V30 67 H 8.0704 1.96453 5.1254 0
M  V30 68 H 8.3314 0.384237 4.40427 0
M  V30 69 N 7.3905 -1.2043 1.01659 0
M  V30 70 C 8.3535 -2.21433 0.591616 0
M  V30 71 C 9.3535 -1.57203 -0.338226 0
M  V30 72 O 10.5435 -1.73737 -0.126918 0
M  V30 73 C 7.6755 -3.40628 -0.136058 0
M  V30 74 H 8.8685 -2.60545 1.48514 0
M  V30 75 H 6.4215 -1.33893 0.806379 0
M  V30 76 H 7.1565 -3.07019 -1.04449 0
M  V30 77 H 6.9415 -3.88475 0.531917 0
M  V30 78 H 8.4315 -4.15475 -0.420735 0
M  V30 79 N 8.8686 -0.792821 -1.36206 0
M  V30 80 C 10.1166 -0.366062 -1.98757 0
M  V30 81 C 10.4376 1.0668 -1.63231 0
M  V30 82 O 9.7076 1.73587 -0.907978 0
M  V30 83 H 8.2876 -0.132364 -0.735179 0
M  V30 84 H 10.9496 -1.01562 -1.66347 0
M  V30 85 H 10.0456 -0.460638 -3.08682 0
M  V30 86 N 10.3467 1.47872 -0.545128 0
M  V30 87 C 11.7577 1.86384 -0.108581 0
M  V30 88 C 12.1087 1.45309 1.31832 0
M  V30 89 O 11.2337 0.850641 1.9898 0
M  V30 90 C 11.8287 3.38265 -0.190274 0
M  V30 91 C 10.3877 3.75914 0.191164 0
M  V30 92 C 9.5347 2.71926 -0.543273 0
M  V30 93 H 12.4857 1.39561 -0.755537 0
M  V30 94 H 12.5067 3.75831 0.594217 0
M  V30 95 H 12.0187 3.6813 -1.2289 0
M  V30 96 H 10.1197 3.51665 1.23136 0
M  V30 97 H 10.2327 4.78836 -0.158987 0
M  V30 98 H 8.5967 2.54697 0.0122495 0
M  V30 99 H 9.3797 3.04634 -1.58282 0
M  V30 100 N 11.8248 0.280983 1.55075 0
M  V30 101 C 12.7568 -0.637268 2.20163 0
M  V30 102 C 13.7698 -1.11298 1.18813 0
M  V30 103 O 14.9588 -1.03388 1.4551 0
M  V30 104 C 12.0588 -1.88199 2.81841 0
M  V30 105 C 11.2318 -1.55211 4.08936 0
M  V30 106 C 10.2908 -2.64991 4.54606 0
M  V30 107 O 9.3168 -2.30929 5.2025 0
M  V30 108 N 10.5188 -3.95161 4.25238 0
M  V30 109 H 13.2838 -0.0801694 2.99593 0
M  V30 110 H 10.8448 0.102329 1.61576 0
M  V30 111 H 12.8368 -2.60948 3.09335 0
M  V30 112 H 11.4068 -2.34799 2.06369 0
M  V30 113 H 10.6268 -0.658185 3.88666 0
M  V30 114 H 11.9148 -1.30681 4.91732 0
M  V30 115 H 11.3128 -4.25653 3.72607 0
M  V30 116 H 9.8698 -4.6427 4.5749 0
M  V30 117 N 13.3029 -1.57598 0.00835791 0
M  V30 118 C 14.2329 -2.1198 -0.979113 0
M  V30 119 C 15.2139 -1.03091 -1.35301 0
M  V30 120 O 16.3989 -1.30818 -1.43528 0
M  V30 121 C 13.5289 -2.62995 -2.26828 0
M  V30 122 C 12.4829 -3.76485 -2.03576 0
M  V30 123 C 11.8089 -4.13846 -3.38579 0
M  V30 124 C 13.1089 -5.0342 -1.39161 0
M  V30 125 H 14.8029 -2.94738 -0.526281 0
M  V30 126 H 12.3489 -1.41783 -0.251704 0
M  V30 127 H 14.3019 -2.99669 -2.96271 0
M  V30 128 H 13.0259 -1.7737 -2.7424 0
M  V30 129 H 11.6849 -3.40217 -1.36557 0
M  V30 130 H 11.3329 -3.25232 -3.83709 0
M  V30 131 H 11.0329 -4.90312 -3.23834 0
M  V30 132 H 12.5569 -4.53086 -4.09323 0
M  V30 133 H 13.9709 -5.37812 -1.98573 0
M  V30 134 H 12.3679 -5.84746 -1.34878 0
M  V30 135 H 13.4379 -4.83548 -0.361868 0
M  V30 136 N 14.781 0.264519 -1.55364 0
M  V30 137 C 16.029 0.993021 -1.76021 0
M  V30 138 C 16.35 1.86511 -0.569099 0
M  V30 139 O 15.62 1.91438 0.415735 0
M  V30 140 H 14.2 0.369639 -0.649135 0
M  V30 141 H 16.862 0.286707 -1.9278 0
M  V30 142 H 15.958 1.62502 -2.66457 0
M  V30 143 N 16.2591 1.48442 0.529413 0
M  V30 144 C 17.2221 1.62524 1.61612 0
M  V30 145 C 18.2221 0.498509 1.52877 0
M  V30 146 O 19.4121 0.76431 1.56537 0
M  V30 147 C 16.5441 1.59597 3.01233 0
M  V30 148 H 17.7371 2.59423 1.50465 0
M  V30 149 H 15.2901 1.37047 0.751514 0
M  V30 150 H 16.0251 0.641781 3.17886 0
M  V30 151 H 15.8101 2.41397 3.08982 0
M  V30 152 H 17.3001 1.72646 3.80241 0
M  V30 153 N 17.7372 -0.778329 1.37039 0
M  V30 154 C 18.7002 -1.87301 1.32102 0
M  V30 155 C 19.7002 -1.59198 0.226405 0
M  V30 156 O 20.8902 -1.67403 0.481861 0
M  V30 157 C 18.0222 -3.24309 1.05055 0
M  V30 158 H 19.2152 -1.93093 2.29467 0
M  V30 159 H 16.7682 -0.977358 1.21973 0
M  V30 160 H 17.5032 -3.24196 0.0819373 0
M  V30 161 H 17.2882 -3.46098 1.84279 0
M  V30 162 H 18.7782 -4.04382 1.04234 0
M  V30 163 N 19.2153 -1.21501 -1.00376 0
M  V30 164 C 20.1783 -0.976927 -2.07337 0
M  V30 165 C 21.1783 0.0525322 -1.60714 0
M  V30 166 O 22.3683 -0.184869 -1.73216 0
M  V30 167 C 19.5003 -0.473423 -3.37597 0
M  V30 168 H 20.6933 -1.92587 -2.29892 0
M  V30 169 H 18.2463 -1.03217 -1.17371 0
M  V30 170 H 18.9813 0.480379 -3.20722 0
M  V30 171 H 18.7663 -1.216 -3.72768 0
M  V30 172 H 20.2563 -0.32675 -4.1632 0
M  V30 173 N 20.6934 1.19889 -1.02296 0
M  V30 174 C 21.6034 2.26571 -0.608508 0
M  V30 175 C 22.6194 1.70299 0.356964 0
M  V30 176 O 23.7954 2.00235 0.216326 0
M  V30 177 C 20.8604 3.46677 0.0402814 0
M  V30 178 C 19.9214 4.18153 -0.97194 0
M  V30 179 C 19.1544 5.32525 -0.354016 0
M  V30 180 O 19.3774 5.64112 0.844604 0
M  V30 181 O 18.3114 5.92242 -1.07391 0
M  V30 182 H 22.1374 2.64251 -1.49684 0
M  V30 183 H 19.7224 1.26629 -0.792809 0
M  V30 184 H 21.6044 4.19475 0.402324 0
M  V30 185 H 20.2794 3.10858 0.902707 0
M  V30 186 H 19.1864 3.47499 -1.38546 0
M  V30 187 H 20.5194 4.57927 -1.80454 0
M  V30 188 N 22.1715 0.800033 1.35784 0
M  V30 189 C 23.1345 0.211565 2.28221 0
M  V30 190 C 24.1345 -0.59728 1.49296 0
M  V30 191 O 25.3245 -0.416721 1.69142 0
M  V30 192 C 22.4565 -0.705846 3.33513 0
M  V30 193 H 23.6495 1.02677 2.81776 0
M  V30 194 H 21.2025 0.570211 1.45528 0
M  V30 195 H 21.9375 -1.54498 2.85133 0
M  V30 196 H 21.7225 -0.127655 3.91892 0
M  V30 197 H 23.2125 -1.11211 4.02519 0
M  V30 198 N 23.6496 -1.47581 0.552962 0
M  V30 199 C 24.6126 -2.28439 -0.186605 0
M  V30 200 C 25.6126 -1.36706 -0.84665 0
M  V30 201 O 26.8026 -1.59378 -0.703164 0
M  V30 202 C 23.9346 -3.16264 -1.2724 0
M  V30 203 H 25.1276 -2.95294 0.523609 0
M  V30 204 H 22.6806 -1.532 0.309745 0
M  V30 205 H 23.4156 -2.54091 -2.01514 0
M  V30 206 H 23.2006 -3.83769 -0.803968 0
M  V30 207 H 24.6906 -3.77198 -1.79196 0
M  V30 208 N 25.1277 -0.289203 -1.54924 0
M  V30 209 C 26.0377 0.601863 -2.26748 0
M  V30 210 C 27.0537 1.15834 -1.2984 0
M  V30 211 O 28.2297 1.18564 -1.62802 0
M  V30 212 C 25.2947 1.76299 -2.98529 0
M  V30 213 C 24.3557 1.24178 -4.10948 0
M  V30 214 C 23.5887 2.34757 -4.79296 0
M  V30 215 O 23.8117 3.54411 -4.46933 0
M  V30 216 O 22.7457 2.02115 -5.66951 0
M  V30 217 H 26.5717 0.0195879 -3.03694 0
M  V30 218 H 24.1567 -0.0560868 -1.49295 0
M  V30 219 H 26.0387 2.43973 -3.43592 0
M  V30 220 H 24.7137 2.33209 -2.24488 0
M  V30 221 H 23.6207 0.531104 -3.70311 0
M  V30 222 H 24.9537 0.718252 -4.86931 0
M  V30 223 N 26.6058 1.57591 -0.0167156 0
M  V30 224 C 27.5688 2.08393 0.954204 0
M  V30 225 C 28.5688 0.996531 1.26198 0
M  V30 226 O 29.7588 1.25858 1.20438 0
M  V30 227 C 26.8908 2.5394 2.27436 0
M  V30 228 H 28.0838 2.95455 0.514451 0
M  V30 229 H 25.6368 1.54582 0.231089 0
M  V30 230 H 26.3718 1.70171 2.76066 0
M  V30 231 H 26.1568 3.33371 2.06412 0
M  V30 232 H 27.6468 2.93512 2.97053 0
M  V30 233 N 28.0839 -0.256276 1.55502 0
M  V30 234 C 29.0469 -1.30047 1.88734 0
M  V30 235 C 30.0469 -1.4154 0.763086 0
M  V30 236 O 31.2369 -1.40403 1.03115 0
M  V30 237 C 28.3689 -2.67953 2.10747 0
M  V30 238 H 29.5619 -1.01802 2.82093 0
M  V30 239 H 27.1149 -0.495134 1.4825 0
M  V30 240 H 27.8499 -3.01351 1.19825 0
M  V30 241 H 27.6349 -2.60993 2.92617 0
M  V30 242 H 29.1249 -3.43368 2.37673 0
M  V30 243 N 29.562 -1.4872 -0.521534 0
M  V30 244 C 30.472 -1.66569 -1.65203 0
M  V30 245 C 31.488 -0.548197 -1.65139 0
M  V30 246 O 32.664 -0.820339 -1.83936 0
M  V30 247 C 29.729 -1.70917 -3.01642 0
M  V30 248 C 28.79 -2.94356 -3.12495 0
M  V30 249 C 28.023 -2.98487 -4.42426 0
M  V30 250 O 28.246 -2.10786 -5.30024 0
M  V30 251 O 27.18 -3.90746 -4.57822 0
M  V30 252 H 31.006 -2.62298 -1.5308 0
M  V30 253 H 28.591 -1.3222 -0.695565 0
M  V30 254 H 30.473 -1.7625 -3.82771 0
M  V30 255 H 29.148 -0.783633 -3.14071 0
M  V30 256 H 28.055 -2.94552 -2.3063 0
M  V30 257 H 29.388 -3.86322 -3.04986 0
M  V30 258 N 31.0401 0.771051 -1.3745 0
M  V30 259 C 32.0031 1.86598 -1.33093 0
M  V30 260 C 33.0031 1.59076 -0.234845 0
M  V30 261 O 34.1931 1.67145 -0.490732 0
M  V30 262 C 31.3251 3.23747 -1.06773 0
M  V30 263 H 32.5181 1.91873 -2.30488 0
M  V30 264 H 30.0711 0.970876 -1.2249 0
M  V30 265 H 30.8061 3.24148 -0.099129 0
M  V30 266 H 30.5911 3.45115 -1.86112 0
M  V30 267 H 32.0811 4.03824 -1.06377 0
M  V30 268 N 32.5182 1.22032 0.997298 0
M  V30 269 C 33.9342 0.979326 1.26021 0
M  V30 270 C 34.1342 -0.32972 1.98784 0
M  V30 271 O 33.1902 -1.05345 2.29475 0
M  V30 272 C 34.5032 2.17509 2.07631 0
M  V30 273 C 36.0512 2.21817 2.2083 0
M  V30 274 C 36.5262 3.40933 3.05825 0
M  V30 275 N 38.0172 3.41067 3.13412 0
M  V30 276 C 38.7522 4.29885 3.79455 0
M  V30 277 N 38.2482 5.28914 4.47462 0
M  V30 278 N 40.0412 4.17673 3.76173 0
M  V30 279 H 32.1922 2.06202 0.509352 0
M  V30 280 H 34.4552 0.90334 0.287541 0
M  V30 281 H 34.1612 3.12415 1.61524 0
M  V30 282 H 34.0352 2.17206 3.08385 0
M  V30 283 H 36.4222 1.27462 2.66153 0
M  V30 284 H 36.5032 2.2616 1.1952 0
M  V30 285 H 36.1472 4.35586 2.61203 0
M  V30 286 H 36.0772 3.33829 4.07266 0
M  V30 287 H 38.5682 2.69406 2.65007 0
M  V30 288 H 38.8812 5.92973 4.95583 0
M  V30 289 H 37.2262 5.32831 4.46224 0
M  V30 290 H 40.4172 3.39564 3.22202 0
M  V30 291 H 40.5902 4.87098 4.27363 0
M  V30 292 N 33.9963 -1.19345 1.0293 0
M  V30 293 C 34.9593 -2.20793 0.615069 0
M  V30 294 C 35.9593 -1.57553 -0.321533 0
M  V30 295 O 37.1493 -1.73862 -0.108483 0
M  V30 296 C 34.2813 -3.40754 -0.0999222 0
M  V30 297 H 35.4743 -2.58955 1.51269 0
M  V30 298 H 33.0273 -1.3303 0.820534 0
M  V30 299 H 33.7623 -3.0811 -1.01187 0
M  V30 300 H 33.5473 -3.87889 0.57309 0
M  V30 301 H 35.0373 -4.15898 -0.376645 0
M  V30 302 N 35.4744 -0.807222 -1.35358 0
M  V30 303 C 36.8904 -0.491038 -1.51858 0
M  V30 304 C 37.0904 0.987648 -1.75635 0
M  V30 305 O 36.1464 1.77265 -1.79815 0
M  V30 306 C 37.4594 -1.33695 -2.69344 0
M  V30 307 C 39.0074 -1.33246 -2.83222 0
M  V30 308 C 39.4824 -2.1625 -4.03733 0
M  V30 309 N 40.9734 -2.1379 -4.10911 0
M  V30 310 C 41.7084 -2.74772 -5.03277 0
M  V30 311 N 41.2044 -3.44684 -6.0097 0
M  V30 312 N 42.9974 -2.6441 -4.96028 0
M  V30 313 H 35.1484 -1.76485 -1.18181 0
M  V30 314 H 37.4114 -0.751199 -0.578276 0
M  V30 315 H 37.1174 -2.38634 -2.58354 0
M  V30 316 H 36.9914 -0.990618 -3.6396 0
M  V30 317 H 39.3784 -0.290911 -2.93663 0
M  V30 318 H 39.4594 -1.71866 -1.89461 0
M  V30 319 H 39.1034 -3.20445 -3.94052 0
M  V30 320 H 39.0334 -1.74989 -4.96675 0
M  V30 321 H 41.5244 -1.62923 -3.40976 0
M  V30 322 H 41.8374 -3.88501 -6.68047 0
M  V30 323 H 40.1824 -3.48788 -6.01142 0
M  V30 324 H 43.3734 -2.0938 -4.18662 0
M  V30 325 H 43.5464 -3.12225 -5.6782 0
M  V30 326 N 36.9525 1.47285 -0.560781 0
M  V30 327 C 38.3635 1.86258 -0.128343 0
M  V30 328 C 38.7145 1.46699 1.30284 0
M  V30 329 O 37.8395 0.871698 1.98067 0
M  V30 330 C 38.4345 3.38044 -0.22614 0
M  V30 331 C 36.9935 3.76096 0.151283 0
M  V30 332 C 36.1405 2.71335 -0.572084 0
M  V30 333 H 39.0915 1.38752 -0.770297 0
M  V30 334 H 39.1125 3.76441 0.554322 0
M  V30 335 H 38.6245 3.66806 -1.26788 0
M  V30 336 H 36.7255 3.52951 1.19399 0
M  V30 337 H 36.8385 4.78641 -0.209765 0
M  V30 338 H 35.2025 2.54696 -0.0147653 0
M  V30 339 H 35.9855 3.02938 -1.61504 0
M  V30 340 N 38.4306 0.297415 1.54768 0
M  V30 341 C 39.6786 -0.312295 1.99673 0
M  V30 342 C 39.9996 -1.54686 1.18732 0
M  V30 343 O 39.2696 -1.93854 0.282382 0
M  V30 344 H 37.8496 -0.118381 0.73756 0
M  V30 345 H 40.5116 0.407915 1.90583 0
M  V30 346 H 39.6076 -0.586813 3.06534 0
M  V30 347 N 39.9087 -1.5758 0.0250728 0
M  V30 348 C 41.1547 -1.91917 -0.655413 0
M  V30 349 C 41.4877 -0.901433 -1.72011 0
M  V30 350 O 40.7627 0.0764069 -1.9435 0
M  V30 351 C 41.0457 -3.36751 -1.27558 0
M  V30 352 C 40.8987 -4.49258 -0.220719 0
M  V30 353 C 42.2177 -3.81469 -2.19475 0
M  V30 354 H 39.3367 -0.697925 -0.23679 0
M  V30 355 H 41.9787 -1.89825 0.0815036 0
M  V30 356 H 40.1287 -3.38664 -1.90365 0
M  V30 357 H 41.8007 -4.59478 0.409601 0
M  V30 358 H 40.0437 -4.31415 0.454264 0
M  V30 359 H 40.7147 -5.47618 -0.694175 0
M  V30 360 H 43.1907 -3.81266 -1.66659 0
M  V30 361 H 42.0667 -4.83512 -2.59822 0
M  V30 362 H 42.3277 -3.16744 -3.08424 0
M  V30 363 N 41.3868 0.248026 -1.55636 0
M  V30 364 C 42.6148 0.993808 -1.81469 0
M  V30 365 C 43.0298 1.78991 -0.60064 0
M  V30 366 O 42.3868 1.77345 0.430682 0
M  V30 367 C 42.4378 1.93258 -3.05506 0
M  V30 368 O 42.1588 1.16869 -4.22224 0
M  V30 369 C 43.6598 2.79444 -3.4413 0
M  V30 370 H 40.8798 0.292486 -0.603898 0
M  V30 371 H 43.4238 0.271253 -2.02693 0
M  V30 372 H 41.5788 2.60943 -2.86335 0
M  V30 373 H 41.9928 1.80359 -4.92515 0
M  V30 374 H 43.4668 3.41066 -4.34026 0
M  V30 375 H 43.9438 3.50499 -2.64665 0
M  V30 376 H 44.5498 2.17214 -3.65648 0
M  V30 377 N 42.8649 1.48995 0.513639 0
M  V30 378 C 43.7949 1.67636 1.62544 0
M  V30 379 C 44.7759 0.525087 1.61793 0
M  V30 380 O 45.9609 0.759502 1.78732 0
M  V30 381 C 43.0909 1.73114 3.01079 0
M  V30 382 C 42.0449 2.87905 3.16693 0
M  V30 383 C 41.3709 2.78486 4.56453 0
M  V30 384 C 42.6709 4.29005 2.97913 0
M  V30 385 H 44.3649 2.60716 1.47198 0
M  V30 386 H 41.9109 1.25465 0.706714 0
M  V30 387 H 43.8639 1.84742 3.78746 0
M  V30 388 H 42.5879 0.766241 3.17484 0
M  V30 389 H 41.2469 2.75859 2.41448 0
M  V30 390 H 40.8949 1.7993 4.69717 0
M  V30 391 H 40.5949 3.55523 4.67843 0
M  V30 392 H 42.1189 2.92104 5.36197 0
M  V30 393 H 43.5329 4.41798 3.65359 0
M  V30 394 H 41.9299 5.07166 3.20785 0
M  V30 395 H 42.9999 4.44329 1.94165 0
M  V30 396 N 44.343 -0.763751 1.37857 0
M  V30 397 C 45.759 -1.06542 1.18832 0
M  V30 398 C 45.959 -2.01478 0.0299722 0
M  V30 399 O 45.015 -2.4458 -0.627447 0
M  V30 400 C 46.328 -1.65525 2.51042 0
M  V30 401 C 47.876 -1.77745 2.57635 0
M  V30 402 C 48.351 -2.4014 3.89996 0
M  V30 403 N 49.842 -2.47582 3.91481 0
M  V30 404 C 50.577 -2.96732 4.9065 0
M  V30 405 N 50.073 -3.45993 6.00217 0
M  V30 406 N 51.866 -2.95679 4.78048 0
M  V30 407 H 44.017 -0.133556 2.1198 0
M  V30 408 H 46.28 -0.121879 0.940133 0
M  V30 409 H 45.986 -1.03236 3.36207 0
M  V30 410 H 45.86 -2.64719 2.68707 0
M  V30 411 H 48.247 -2.39164 1.72872 0
M  V30 412 H 48.328 -0.772836 2.43846 0
M  V30 413 H 47.972 -1.79358 4.75177 0
M  V30 414 H 47.902 -3.41223 4.01092 0
M  V30 415 H 50.393 -2.1273 3.12337 0
M  V30 416 H 50.706 -3.81922 6.7183 0
M  V30 417 H 49.051 -3.44077 6.03851 0
M  V30 418 H 52.242 -2.56499 3.91568 0
M  V30 419 H 52.415 -3.33672 5.55488 0
M  V30 420 N 45.8211 -1.22559 -0.990812 0
M  V30 421 C 47.2321 -1.04791 -1.54518 0
M  V30 422 C 47.5831 0.387998 -1.92325 0
M  V30 423 O 46.7081 1.27328 -1.74976 0
M  V30 424 C 47.3031 -1.896 -2.80779 0
M  V30 425 C 45.8621 -1.76124 -3.32652 0
M  V30 426 C 45.0091 -1.8594 -2.05722 0
M  V30 427 H 47.9601 -1.36374 -0.811662 0
M  V30 428 H 47.9811 -1.41464 -3.53225 0
M  V30 429 H 47.4931 -2.94101 -2.53231 0
M  V30 430 H 45.5941 -0.743643 -3.65104 0
M  V30 431 H 45.7071 -2.58913 -4.03114 0
M  V30 432 H 44.0711 -1.29403 -2.19379 0
M  V30 433 H 44.8541 -2.91976 -1.80568 0
M  V30 434 N 47.2992 1.18797 -1.03562 0
M  V30 435 C 48.5462 1.8865 -0.736023 0
M  V30 436 C 48.8742 1.80041 0.735889 0
M  V30 437 O 48.1292 1.19179 1.55225 0
M  V30 438 C 48.4282 3.38692 -1.14117 0
M  V30 439 C 48.0942 3.67504 -2.6125 0
M  V30 440 C 46.7562 3.75078 -3.01447 0
M  V30 441 C 49.1082 3.80293 -3.56408 0
M  V30 442 C 46.4362 3.92915 -4.35701 0
M  V30 443 C 48.7882 3.99645 -4.90374 0
M  V30 444 C 47.4522 4.05453 -5.30249 0
M  V30 445 H 46.7222 0.690321 -0.26933 0
M  V30 446 H 49.3692 1.40641 -1.29971 0
M  V30 447 H 47.6742 3.88645 -0.496202 0
M  V30 448 H 49.3712 3.91072 -0.886789 0
M  V30 449 H 45.9612 3.62223 -2.29113 0
M  V30 450 H 50.1452 3.73779 -3.26501 0
M  V30 451 H 45.4012 3.95653 -4.66121 0
M  V30 452 H 49.5752 4.08482 -5.64017 0
M  V30 453 H 47.2022 4.19027 -6.34288 0
M  V30 454 N 48.7773 0.814389 1.34928 0
M  V30 455 C 49.7403 0.235759 2.27984 0
M  V30 456 C 50.7403 -0.581412 1.49921 0
M  V30 457 O 51.9303 -0.398758 1.69575 0
M  V30 458 C 49.0623 -0.670433 3.34242 0
M  V30 459 H 50.2553 1.05659 2.80671 0
M  V30 460 H 47.8083 0.585614 1.44915 0
M  V30 461 H 48.5433 -1.51466 2.86755 0
M  V30 462 H 48.3283 -0.0860822 3.92005 0
M  V30 463 H 49.8183 -1.06935 4.03676 0
M  V30 464 N 50.2554 -1.46986 0.568584 0
M  V30 465 C 51.6664 -1.86188 0.138219 0
M  V30 466 C 52.0174 -1.47388 -1.29504 0
M  V30 467 O 51.1424 -0.88219 -1.97602 0
M  V30 468 C 51.7374 -3.3792 0.244065 0
M  V30 469 C 50.2964 -3.76171 -0.131335 0
M  V30 470 C 49.4434 -2.71027 0.586465 0
M  V30 471 H 52.3944 -1.38342 0.777645 0
M  V30 472 H 52.4154 -3.76729 -0.534351 0
M  V30 473 H 51.9274 -3.66128 1.28731 0
M  V30 474 H 50.0284 -3.5358 -1.17526 0
M  V30 475 H 50.1414 -4.78523 0.235146 0
M  V30 476 H 48.5054 -2.54684 0.0282722 0
M  V30 477 H 49.2884 -3.02077 1.63109 0
M  V30 478 N 51.7335 -0.305618 -1.54608 0
M  V30 479 C 52.6635 0.561482 -2.26649 0
M  V30 480 C 53.6445 1.13415 -1.26772 0
M  V30 481 O 54.8295 1.16262 -1.55553 0
M  V30 482 C 51.9595 1.73122 -3.01075 0
M  V30 483 C 50.9135 1.2887 -4.08138 0
M  V30 484 C 50.2395 2.54396 -4.70305 0
M  V30 485 C 51.5395 0.416578 -5.20636 0
M  V30 486 H 53.2335 -0.0393902 -2.99374 0
M  V30 487 H 50.7795 -0.020385 -1.43986 0
M  V30 488 H 52.7325 2.34396 -3.50195 0
M  V30 489 H 51.4565 2.3584 -2.25936 0
M  V30 490 H 50.1155 0.698991 -3.59875 0
M  V30 491 H 49.7635 3.15439 -3.918 0
M  V30 492 H 49.4635 2.25486 -5.42614 0
M  V30 493 H 50.9875 3.16464 -5.2219 0
M  V30 494 H 52.4015 0.935116 -5.65622 0
M  V30 495 H 50.7985 0.221046 -5.99693 0
M  V30 496 H 51.8685 -0.557162 -4.81688 0
M  V30 497 N 53.2116 1.57565 -0.0334293 0
M  V30 498 C 54.4366 1.96689 0.657895 0
M  V30 499 C 54.8616 0.910057 1.64619 0
M  V30 500 O 54.2196 -0.128598 1.80843 0
M  V30 501 C 54.2676 3.34905 1.33683 0
M  V30 502 O 53.3716 3.31574 2.45219 0
M  V30 503 H 52.7126 0.641205 0.172489 0
M  V30 504 H 55.2426 2.04372 -0.0965621 0
M  V30 505 H 55.2526 3.71234 1.69262 0
M  V30 506 H 53.9276 4.11366 0.612411 0
M  V30 507 H 52.5046 3.06968 2.11719 0
M  V30 508 N 54.6897 -0.239769 1.55765 0
M  V30 509 C 55.9377 -0.964892 1.77579 0
M  V30 510 C 56.2587 -1.85582 0.598699 0
M  V30 511 O 55.5287 -1.92075 -0.385226 0
M  V30 512 H 54.1087 -0.359265 0.654933 0
M  V30 513 H 56.7707 -0.256001 1.93211 0
M  V30 514 H 55.8667 -1.58243 2.69009 0
M  V30 515 N 56.1678 -1.49265 -0.50573 0
M  V30 516 C 57.1308 -1.65075 -1.59006 0
M  V30 517 C 58.1308 -0.522768 -1.52065 0
M  V30 518 O 59.3208 -0.789117 -1.55302 0
M  V30 519 C 56.4528 -1.64369 -2.98656 0
M  V30 520 H 57.6458 -2.61784 -1.46319 0
M  V30 521 H 55.1988 -1.38226 -0.729616 0
M  V30 522 H 55.9338 -0.692272 -3.16825 0
M  V30 523 H 55.7188 -2.46282 -3.05103 0
M  V30 524 H 57.2088 -1.78674 -3.77446 0
M  V30 525 N 57.6459 0.756429 -1.3826 0
M  V30 526 C 58.6089 1.85176 -1.35065 0
M  V30 527 C 59.6089 1.58818 -0.251703 0
M  V30 528 O 60.7989 1.66615 -0.508433 0
M  V30 529 C 57.9309 3.22596 -1.10201 0
M  V30 530 H 59.1239 1.89417 -2.3251 0
M  V30 531 H 56.6769 0.95783 -1.23512 0
M  V30 532 H 57.4119 3.24025 -0.133504 0
M  V30 533 H 57.1969 3.43122 -1.89762 0
M  V30 534 H 58.6869 4.02673 -1.10654 0
M  V30 535 N 59.124 1.23083 0.984299 0
M  V30 536 C 60.034 1.02515 2.11016 0
M  V30 537 C 61.05 -0.0291702 1.73976 0
M  V30 538 O 62.226 0.165434 2.00719 0
M  V30 539 C 59.291 0.614673 3.41208 0
M  V30 540 C 58.352 1.74359 3.92297 0
M  V30 541 C 57.585 1.35261 5.16275 0
M  V30 542 O 57.808 0.235136 5.69915 0
M  V30 543 O 56.742 2.17227 5.61334 0
M  V30 544 H 60.568 1.96862 2.31255 0
M  V30 545 H 58.153 1.01753 1.09392 0
M  V30 546 H 60.035 0.396518 4.1953 0
M  V30 547 H 58.71 -0.299851 3.22308 0
M  V30 548 H 57.617 2.01635 3.1511 0
M  V30 549 H 58.95 2.63629 4.15645 0
M  V30 550 N 60.6021 -1.18246 1.0419 0
M  V30 551 C 61.5651 -2.20128 0.638452 0
M  V30 552 C 62.5651 -1.57885 -0.304805 0
M  V30 553 O 63.7551 -1.73967 -0.0900369 0
M  V30 554 C 60.8871 -3.4084 -0.0637751 0
M  V30 555 H 62.0801 -2.57336 1.54007 0
M  V30 556 H 59.6331 -1.32152 0.834598 0
M  V30 557 H 60.3681 -3.09166 -0.979136 0
M  V30 558 H 60.1531 -3.8726 0.614198 0
M  V30 559 H 61.6431 -4.16274 -0.332512 0
M  V30 560 N 62.0802 -0.821533 -1.34494 0
M  V30 561 C 63.3572 -0.33159 -1.92769 0
M  V30 562 C 63.7372 1.18088 -1.74981 0
M  V30 563 O 63.0852 1.98733 -1.12772 0
M  V30 564 C 63.2952 -0.759398 -3.40638 0
M  V30 565 C 64.6432 -0.757433 -4.1779 0
M  V30 566 O 65.6672 -0.70189 -3.49216 0
M  V30 567 O 64.5262 -0.829361 -5.4017 0
M  V30 568 H 61.6202 -0.0902502 -0.822061 0
M  V30 569 H 64.1662 -0.906231 -1.43477 0
M  V30 570 H 62.9382 -1.8012 -3.47379 0
M  V30 571 H 62.5612 -0.160378 -3.97276 0
M  V30 572 N 63.5583 1.46682 -0.576371 0
M  V30 573 C 64.4683 2.34032 0.163141 0
M  V30 574 C 65.4843 1.49367 0.892501 0
M  V30 575 O 66.6603 1.82252 0.857106 0
M  V30 576 C 63.7253 3.26435 1.16795 0
M  V30 577 C 62.7863 4.26998 0.443944 0
M  V30 578 C 62.0193 5.14986 1.40088 0
M  V30 579 O 62.2423 5.05785 2.637 0
M  V30 580 O 61.1763 5.94906 0.914917 0
M  V30 581 H 65.0023 2.98607 -0.55388 0
M  V30 582 H 62.5873 1.45554 -0.336821 0
M  V30 583 H 64.4693 3.83459 1.74748 0
M  V30 584 H 63.1443 2.64465 1.86655 0
M  V30 585 H 62.0513 3.7368 -0.177271 0
M  V30 586 H 63.3843 4.91736 -0.213566 0
M  V30 587 N 65.0364 0.313813 1.54444 0
M  V30 588 C 66.2844 -0.291099 1.99993 0
M  V30 589 C 66.6054 -1.53418 1.20366 0
M  V30 590 O 65.8754 -1.93544 0.302927 0
M  V30 591 H 64.4554 -0.110552 0.738774 0
M  V30 592 H 67.1174 0.428106 1.9014 0
M  V30 593 H 66.2134 -0.554268 3.07139 0
M  V30 594 N 66.5145 -1.57545 0.0417849 0
M  V30 595 C 67.7625 -1.91937 -0.632829 0
M  V30 596 C 68.0835 -0.919978 -1.71934 0
M  V30 597 O 67.3535 0.0366064 -1.95866 0
M  V30 598 H 65.9335 -0.708493 -0.236742 0
M  V30 599 H 68.5955 -1.9468 0.0925745 0
M  V30 600 H 67.6915 -2.92912 -1.07746 0
M  V30 601 N 67.9926 0.231505 -1.5589 0
M  V30 602 C 69.2406 0.955461 -1.78088 0
M  V30 603 C 69.5616 1.85262 -0.608533 0
M  V30 604 O 68.8316 1.92277 0.375035 0
M  V30 605 H 67.4116 0.355787 -0.656829 0
M  V30 606 H 70.0736 0.245751 -1.93344 0
M  V30 607 H 69.1696 1.56814 -2.69844 0
M  V30 608 N 69.4707 1.49531 0.497807 0
M  V30 609 C 70.7477 1.49682 1.25915 0
M  V30 610 C 71.1277 0.226339 2.09883 0
M  V30 611 O 70.4757 -0.791189 2.14365 0
M  V30 612 C 70.6857 2.77755 2.11313 0
M  V30 613 C 72.0337 3.27371 2.70395 0
M  V30 614 O 73.0577 2.78894 2.21578 0
M  V30 615 O 71.9167 4.11808 3.59272 0
M  V30 616 H 69.0107 0.599228 0.56996 0
M  V30 617 H 71.5567 1.61798 0.511816 0
M  V30 618 H 70.3287 3.61713 1.49264 0
M  V30 619 H 69.9517 2.68515 2.93233 0
M  V30 620 N 70.9488 -0.749086 1.3866 0
M  V30 621 C 72.1948 -1.50959 1.36319 0
M  V30 622 C 72.5498 -1.92347 -0.0452451 0
M  V30 623 O 71.8428 -1.6289 -1.00884 0
M  V30 624 C 72.0368 -2.7712 2.25697 0
M  V30 625 C 71.8658 -2.48067 3.7509 0
M  V30 626 C 70.6358 -2.41062 4.44091 0
M  V30 627 C 72.8338 -2.14544 4.67414 0
M  V30 628 N 70.8158 -2.04331 5.78897 0
M  V30 629 C 72.1868 -1.88141 5.90765 0
M  V30 630 C 74.2418 -2.00892 4.55573 0
M  V30 631 C 72.9448 -1.49463 7.036 0
M  V30 632 C 74.9708 -1.63616 5.68317 0
M  V30 633 C 74.3328 -1.38088 6.90732 0
M  V30 634 H 70.4318 -0.551804 0.554108 0
M  V30 635 H 73.0158 -0.871886 1.74087 0
M  V30 636 H 71.1868 -3.38693 1.9011 0
M  V30 637 H 72.9188 -3.4321 2.1445 0
M  V30 638 H 69.6738 -2.57685 3.9736 0
M  V30 639 H 70.0978 -1.88598 6.502 0
M  V30 640 H 74.7398 -2.19301 3.61479 0
M  V30 641 H 72.4578 -1.29794 7.97608 0
M  V30 642 H 76.0438 -1.53678 5.61137 0
M  V30 643 H 74.9238 -1.09674 7.76493 0
M  V30 644 N 72.4269 -1.23603 -0.977757 0
M  V30 645 C 73.6519 -1.09735 -1.75991 0
M  V30 646 C 74.0769 0.346858 -1.84874 0
M  V30 647 O 73.4349 1.25093 -1.3123 0
M  V30 648 C 73.4829 -1.73051 -3.16363 0
M  V30 649 O 72.5869 -0.994452 -4.0023 0
M  V30 650 H 71.9279 -0.384476 -0.541364 0
M  V30 651 H 74.4579 -1.6371 -1.2272 0
M  V30 652 H 74.4679 -1.78398 -3.66931 0
M  V30 653 H 73.1429 -2.78137 -3.09213 0
M  V30 654 H 71.7199 -1.01812 -3.58732 0
M  V30 655 N 73.905 1.17692 -1.04816 0
M  V30 656 C 75.152 1.87859 -0.75599 0
M  V30 657 C 75.48 1.80812 0.716752 0
M  V30 658 O 74.735 1.20819 1.53952 0
M  V30 659 C 75.034 3.37462 -1.17703 0
M  V30 660 C 74.7 3.64713 -2.65133 0
M  V30 661 C 73.362 3.71859 -3.05408 0
M  V30 662 C 75.714 3.76492 -3.60421 0
M  V30 663 C 73.042 3.88271 -4.39843 0
M  V30 664 C 75.394 3.94421 -4.94585 0
M  V30 665 C 74.058 3.99806 -5.3452 0
M  V30 666 H 73.328 0.687425 -0.276636 0
M  V30 667 H 75.975 1.39255 -1.31455 0
M  V30 668 H 74.28 3.88097 -0.537395 0
M  V30 669 H 75.977 3.90109 -0.928218 0
M  V30 670 H 72.567 3.59772 -2.32942 0
M  V30 671 H 76.751 3.70295 -3.30447 0
M  V30 672 H 72.007 3.90687 -4.70291 0
M  V30 673 H 76.181 4.02477 -5.68318 0
M  V30 674 H 73.808 4.12276 -6.38696 0
M  V30 675 N 75.3831 0.828654 1.34056 0
M  V30 676 C 76.6321 0.415828 1.97367 0
M  V30 677 C 76.9451 -1.02796 1.6641 0
M  V30 678 O 78.1511 -1.54497 2.23255 0
M  V30 679 C 76.6071 0.692601 3.53173 0
M  V30 680 C 76.2151 2.15038 3.93017 0
M  V30 681 C 77.9591 0.346222 4.23086 0
M  V30 682 C 75.8661 2.37174 5.41758 0
M  V30 683 H 74.7961 0.151755 0.738571 0
M  V30 684 H 77.4471 1.01581 1.52819 0
M  V30 685 H 75.8291 0.0223764 3.95994 0
M  V30 686 H 77.0031 2.86024 3.61285 0
M  V30 687 H 75.3181 2.45875 3.36057 0
M  V30 688 H 77.9151 0.48937 5.32456 0
M  V30 689 H 78.2581 -0.709842 4.10204 0
M  V30 690 H 78.7911 0.971258 3.85761 0
M  V30 691 H 75.5301 3.41308 5.59633 0
M  V30 692 H 75.0501 1.70738 5.74986 0
M  V30 693 H 76.7291 2.19818 6.08514 0
M  V30 694 N 76.8612 -1.46375 0.584142 0
M  V30 695 C 78.1382 -1.956 0.0033388 0
M  V30 696 C 78.5182 -1.52679 -1.45782 0
M  V30 697 O 77.8662 -0.77816 -2.14842 0
M  V30 698 C 78.0762 -3.48551 0.176891 0
M  V30 699 C 79.4242 -4.24576 0.0454609 0
M  V30 700 O 80.4482 -3.56043 0.105801 0
M  V30 701 O 79.3072 -5.46427 -0.0890376 0
M  V30 702 H 76.4012 -0.825547 -0.0490066 0
M  V30 703 H 78.9472 -1.56652 0.65256 0
M  V30 704 H 77.7192 -3.72683 1.1926 0
M  V30 705 H 77.3422 -3.94332 -0.508695 0
M  V30 706 N 78.3393 -0.321999 -1.54275 0
M  V30 707 C 79.5793 0.281657 -2.0245 0
M  V30 708 C 79.9433 1.49468 -1.20513 0
M  V30 709 O 81.1443 2.17109 -1.58484 0
M  V30 710 C 79.4153 0.609014 -3.52173 0
M  V30 711 S 80.9743 1.19255 -4.22284 0
M  V30 712 H 77.7923 0.0852825 -0.705867 0
M  V30 713 H 80.3943 -0.454758 -1.90137 0
M  V30 714 H 79.0983 -0.281982 -4.0943 0
M  V30 715 H 78.6293 1.37567 -3.68563 0
M  V30 716 H 80.6443 2.47944 -4.29812 0
M  V30 717 N 79.8174 1.5752 -0.0501392 0
M  V30 718 C 80.7274 2.14952 0.939827 0
M  V30 719 C 81.7434 1.10706 1.34239 0
M  V30 720 O 82.9194 1.42869 1.41952 0
M  V30 721 C 79.9844 2.68232 2.19665 0
M  V30 722 C 79.0454 3.87272 1.85253 0
M  V30 723 C 78.2784 4.38002 3.04943 0
M  V30 724 O 78.5014 3.87811 4.18281 0
M  V30 725 O 77.4354 5.29602 2.86017 0
M  V30 726 H 81.2614 2.9986 0.481392 0
M  V30 727 H 78.8464 1.4841 0.171699 0
M  V30 728 H 80.7284 3.02475 2.93406 0
M  V30 729 H 79.4034 1.86395 2.64648 0
M  V30 730 H 78.3104 3.5792 1.0883 0
M  V30 731 H 79.6434 4.70336 1.4507 0
M  V30 732 N 81.2955 -0.223234 1.56011 0
M  V30 733 C 82.2285 -1.30377 1.87289 0
M  V30 734 C 83.2065 -1.45286 0.730112 0
M  V30 735 O 84.3905 -1.61126 0.978302 0
M  V30 736 C 81.5175 -2.67431 2.07843 0
M  V30 737 C 80.5635 -2.69546 3.30526 0
M  V30 738 S 81.3965 -2.23781 4.865 0
M  V30 739 C 82.5525 -3.62714 5.10088 0
M  V30 740 H 82.7855 -1.03652 2.78646 0
M  V30 741 H 80.3185 -0.425393 1.48424 0
M  V30 742 H 82.2765 -3.46336 2.20368 0
M  V30 743 H 80.9375 -2.91381 1.17285 0
M  V30 744 H 80.1305 -3.70255 3.41947 0
M  V30 745 H 79.7325 -1.98703 3.16849 0
M  V30 746 H 82.0245 -4.58391 4.98883 0
M  V30 747 H 82.9675 -3.5621 6.11981 0
M  V30 748 H 83.3755 -3.56323 4.37829 0
M  V30 749 N 82.7736 -1.49793 -0.48987 0
M  V30 750 C 83.6836 -1.70036 -1.61632 0
M  V30 751 C 84.6996 -0.583102 -1.63939 0
M  V30 752 O 85.8756 -0.859169 -1.82154 0
M  V30 753 C 82.9406 -1.77277 -2.97949 0
M  V30 754 C 82.0016 -3.00918 -3.06181 0
M  V30 755 C 81.2346 -3.07804 -4.35996 0
M  V30 756 O 81.4576 -2.21982 -5.25433 0
M  V30 757 O 80.3916 -4.00369 -4.49431 0
M  V30 758 H 84.2176 -2.65486 -1.47482 0
M  V30 759 H 81.8026 -1.33666 -0.667362 0
M  V30 760 H 83.6846 -1.84329 -3.78947 0
M  V30 761 H 82.3596 -0.850076 -3.12339 0
M  V30 762 H 81.2666 -2.99377 -2.2433 0
M  V30 763 H 82.5996 -3.92704 -2.96723 0
M  V30 764 N 84.2517 0.741722 -1.39055 0
M  V30 765 C 85.1617 1.88621 -1.39496 0
M  V30 766 C 86.1777 1.71557 -0.290578 0
M  V30 767 O 87.3537 1.94275 -0.530954 0
M  V30 768 C 84.4187 3.24134 -1.23037 0
M  V30 769 C 83.4797 3.5364 -2.43387 0
M  V30 770 C 82.7127 4.82687 -2.27703 0
M  V30 771 O 82.9357 5.55922 -1.27696 0
M  V30 772 O 81.8697 5.1194 -3.16545 0
M  V30 773 H 85.6957 1.91203 -2.35956 0
M  V30 774 H 83.2807 0.888625 -1.20099 0
M  V30 775 H 85.1627 4.0513 -1.15964 0
M  V30 776 H 83.8377 3.22337 -0.296691 0
M  V30 777 H 82.7447 2.72758 -2.56035 0
M  V30 778 H 84.0777 3.60209 -3.35425 0
M  V30 779 N 85.7298 1.2412 0.971189 0
M  V30 780 C 86.9758 1.08041 1.71625 0
M  V30 781 C 87.3088 -0.380407 1.90438 0
M  V30 782 O 86.5838 -1.28127 1.46334 0
M  V30 783 C 86.8668 1.81682 3.10908 0
M  V30 784 C 86.7198 3.35493 2.99608 0
M  V30 785 C 88.0388 1.58671 4.10501 0
M  V30 786 H 85.1578 0.39388 0.622919 0
M  V30 787 H 87.7998 1.52743 1.13003 0
M  V30 788 H 85.9498 1.43684 3.60953 0
M  V30 789 H 87.6218 3.83068 2.57015 0
M  V30 790 H 85.8648 3.64052 2.35899 0
M  V30 791 H 86.5358 3.82217 3.98264 0
M  V30 792 H 89.0118 1.91719 3.69301 0
M  V30 793 H 87.8878 2.1266 5.06031 0
M  V30 794 H 88.1488 0.524161 4.38982 0
M  V30 795 N 87.2079 -1.17134 1.05439 0
M  V30 796 C 88.4849 -1.83411 0.679699 0
M  V30 797 C 88.8649 -1.9368 -0.839726 0
M  V30 798 O 88.2129 -1.47325 -1.74664 0
M  V30 799 C 88.4229 -3.20918 1.37159 0
M  V30 800 C 89.7709 -3.96796 1.51123 0
M  V30 801 O 90.7949 -3.30406 1.3308 0
M  V30 802 O 89.6539 -5.15778 1.80651 0
M  V30 803 H 86.7479 -0.79154 0.239569 0
M  V30 804 H 89.2939 -1.24411 1.15413 0
M  V30 805 H 88.0659 -3.08428 2.40807 0
M  V30 806 H 87.6889 -3.87587 0.886674 0
M  V30 807 N 88.686 -0.835752 -1.33615 0
M  V30 808 C 89.616 -0.281739 -2.31794 0
M  V30 809 C 90.597 0.608833 -1.58831 0
M  V30 810 O 91.782 0.533035 -1.86741 0
M  V30 811 C 88.912 0.546612 -3.42971 0
M  V30 812 C 87.866 -0.247904 -4.27281 0
M  V30 813 C 87.192 0.704001 -5.30045 0
M  V30 814 C 88.492 -1.46324 -5.01385 0
M  V30 815 H 90.186 -1.10206 -2.78379 0
M  V30 816 H 87.732 -0.531388 -1.33837 0
M  V30 817 H 89.685 0.944467 -4.1068 0
M  V30 818 H 88.409 1.40011 -2.95067 0
M  V30 819 H 87.068 -0.627281 -3.61194 0
M  V30 820 H 86.716 1.55381 -4.78399 0
M  V30 821 H 86.416 0.176524 -5.87335 0
M  V30 822 H 87.94 1.09944 -6.0062 0
M  V30 823 H 89.354 -1.13871 -5.61877 0
M  V30 824 H 87.751 -1.92728 -5.6831 0
M  V30 825 H 88.821 -2.23467 -4.30338 0
M  V30 826 N 90.1641 1.46063 -0.591896 0
M  V30 827 C 91.0961 2.28539 0.174001 0
M  V30 828 C 92.1091 1.39047 0.846753 0
M  V30 829 O 93.2981 1.63564 0.714774 0
M  V30 830 C 90.3981 3.14347 1.26645 0
M  V30 831 C 89.5711 4.32021 0.683856 0
M  V30 832 C 88.6301 4.99157 1.66518 0
M  V30 833 O 87.6561 5.56458 1.19763 0
M  V30 834 N 88.8581 4.97005 2.99943 0
M  V30 835 H 91.6231 2.94911 -0.533633 0
M  V30 836 H 89.1841 1.56077 -0.430294 0
M  V30 837 H 91.1761 3.56125 1.92242 0
M  V30 838 H 89.7461 2.49988 1.87682 0
M  V30 839 H 88.9661 3.93915 -0.1498 0
M  V30 840 H 90.2541 5.08059 0.274567 0
M  V30 841 H 89.6521 4.51714 3.40545 0
M  V30 842 H 88.2091 5.42696 3.61004 0
M  V30 843 N 91.6422 0.330177 1.54103 0
M  V30 844 C 92.9192 -0.325007 1.92881 0
M  V30 845 C 93.2992 -1.6934 1.26045 0
M  V30 846 O 92.6472 -2.24855 0.406526 0
M  V30 847 C 92.8572 -0.410634 3.46576 0
M  V30 848 C 94.2052 -0.667801 4.19316 0
M  V30 849 O 95.2292 -0.49329 3.52768 0
M  V30 850 O 94.0882 -1.00491 5.37181 0
M  V30 851 H 91.1822 -0.186873 0.80561 0
M  V30 852 H 93.7282 0.380376 1.65382 0
M  V30 853 H 92.5002 0.550164 3.87413 0
M  V30 854 H 92.1232 -1.16333 3.802 0
M  V30 855 N 93.1203 -1.57491 0.0584922 0
M  V30 856 C 94.0503 -2.14988 -0.911178 0
M  V30 857 C 95.0313 -1.07343 -1.31952 0
M  V30 858 O 96.2163 -1.35318 -1.39294 0
M  V30 859 C 93.3463 -2.70078 -2.18347 0
M  V30 860 C 92.3003 -3.82771 -1.91495 0
M  V30 861 C 91.6263 -4.24408 -3.25241 0
M  V30 862 C 92.9263 -5.07592 -1.23075 0
M  V30 863 H 94.6203 -2.96263 -0.432246 0
M  V30 864 H 92.1663 -1.42512 -0.206469 0
M  V30 865 H 94.1193 -3.08943 -2.86587 0
M  V30 866 H 92.8433 -1.86005 -2.68458 0
M  V30 867 H 91.5023 -3.44389 -1.25664 0
M  V30 868 H 91.1503 -3.37275 -3.73168 0
M  V30 869 H 90.8503 -5.00366 -3.08071 0
M  V30 870 H 92.3743 -4.65879 -3.94701 0
M  V30 871 H 93.7883 -5.43857 -1.81362 0
M  V30 872 H 92.1853 -5.88741 -1.16207 0
M  V30 873 H 93.2553 -4.84454 -0.207847 0
M  V30 874 N 94.5984 0.214957 -1.56127 0
M  V30 875 C 96.0094 0.781386 -1.69562 0
M  V30 876 C 96.3604 1.84707 -0.66165 0
M  V30 877 O 95.4854 2.156 0.185927 0
M  V30 878 C 96.0804 1.42411 -3.07416 0
M  V30 879 C 94.6394 1.93786 -3.22683 0
M  V30 880 C 93.7864 0.800438 -2.65496 0
M  V30 881 H 96.7374 -0.00980633 -1.58697 0
M  V30 882 H 96.7584 2.29309 -3.0364 0
M  V30 883 H 96.2704 0.64826 -3.82648 0
M  V30 884 H 94.3714 2.74152 -2.52332 0
M  V30 885 H 94.4844 2.1133 -4.29973 0
M  V30 886 H 92.8484 1.2095 -2.2415 0
M  V30 887 H 93.6314 0.0371471 -3.4328 0
M  V30 888 N 96.0765 1.50051 0.48192 0
M  V30 889 C 97.3015 1.64508 1.26301 0
M  V30 890 C 97.7265 0.323851 1.85291 0
M  V30 891 O 97.0845 -0.710969 1.66778 0
M  V30 892 C 97.1325 2.7305 2.35533 0
M  V30 893 O 96.2365 2.3355 3.39895 0
M  V30 894 H 95.5775 0.549978 0.372048 0
M  V30 895 H 98.1075 1.9636 0.574786 0
M  V30 896 H 98.1175 2.95799 2.8101 0
M  V30 897 H 96.7925 3.68946 1.91967 0
M  V30 898 H 95.3695 2.21205 3.00204 0
M  V30 899 N 97.5546 -0.734337 1.39446 0
M  V30 900 C 98.5176 -1.83004 1.37994 0
M  V30 901 C 99.5176 -1.58397 0.276938 0
M  V30 902 O 100.708 -1.65785 0.534875 0
M  V30 903 C 97.8396 -3.20802 1.1532 0
M  V30 904 H 99.0326 -1.85694 2.35494 0
M  V30 905 H 96.5856 -0.938059 1.25021 0
M  V30 906 H 97.3206 -3.23772 0.185036 0
M  V30 907 H 97.1056 -3.4006 1.95197 0
M  V30 908 H 98.5956 -4.00862 1.17046 0
M  V30 909 N 99.0327 -1.24633 -0.964593 0
M  V30 910 C 100.261 -1.11501 -1.74285 0
M  V30 911 C 100.676 0.332165 -1.85855 0
M  V30 912 O 100.033 1.22903 -1.34911 0
M  V30 913 C 100.084 -1.75258 -3.16175 0
M  V30 914 O 99.8047 -3.14318 -3.05182 0
M  V30 915 C 101.306 -1.67776 -4.10324 0
M  V30 916 H 98.5257 -0.389407 -0.546446 0
M  V30 917 H 101.07 -1.64801 -1.21083 0
M  V30 918 H 99.2247 -1.25954 -3.66353 0
M  V30 919 H 99.6387 -3.4551 -3.94618 0
M  V30 920 H 101.113 -2.17064 -5.0753 0
M  V30 921 H 101.59 -0.639584 -4.34518 0
M  V30 922 H 102.196 -2.16522 -3.66058 0
M  V30 923 N 100.511 1.16574 -1.06058 0
M  V30 924 C 101.76 1.86385 -0.770944 0
M  V30 925 C 102.073 1.82448 0.705129 0
M  V30 926 O 103.279 2.47815 1.10905 0
M  V30 927 C 101.735 3.34466 -1.32893 0
M  V30 928 C 101.343 3.46883 -2.83507 0
M  V30 929 C 103.087 4.09548 -1.11672 0
M  V30 930 C 100.994 4.89036 -3.32562 0
M  V30 931 H 99.9238 0.698181 -0.284709 0
M  V30 932 H 102.575 1.31583 -1.27899 0
M  V30 933 H 100.957 3.88859 -0.748662 0
M  V30 934 H 102.131 3.02663 -3.47465 0
M  V30 935 H 100.446 2.85232 -3.03368 0
M  V30 936 H 103.043 5.14434 -1.45814 0
M  V30 937 H 103.386 4.16264 -0.0549535 0
M  V30 938 H 103.919 3.61387 -1.66265 0
M  V30 939 H 100.658 4.87499 -4.38207 0
M  V30 940 H 100.178 5.3389 -2.73351 0
M  V30 941 H 101.857 5.57843 -3.2775 0
M  V30 942 N 101.989 0.842826 1.3317 0
M  V30 943 C 102.952 0.284065 2.27433 0
M  V30 944 C 103.952 -0.54948 1.5112 0
M  V30 945 O 105.142 -0.362699 1.70382 0
M  V30 946 C 102.274 -0.599384 3.35589 0
M  V30 947 H 103.467 1.11589 2.78366 0
M  V30 948 H 101.02 0.616221 1.4364 0
M  V30 949 H 101.755 -1.45349 2.89904 0
M  V30 950 H 101.54 -0.00291266 3.921 0
M  V30 951 H 103.03 -0.983488 4.05854 0
M  V30 952 N 103.467 -1.45747 0.599634 0
M  V30 953 C 104.707 -2.04181 0.0946309 0
M  V30 954 C 105.071 -1.45895 -1.24815 0
M  V30 955 O 106.272 -1.95633 -1.8434 0
M  V30 956 C 104.543 -3.57368 0.047581 0
M  V30 957 S 106.102 -4.36997 -0.397387 0
M  V30 958 H 102.92 -0.70953 0.0456954 0
M  V30 959 H 105.522 -1.78564 0.795946 0
M  V30 960 H 104.226 -3.97303 1.02852 0
M  V30 961 H 103.757 -3.87549 -0.675977 0
M  V30 962 H 105.772 -4.68012 -1.64862 0
M  V30 963 N 104.945 -0.338344 -1.53925 0
M  V30 964 C 105.895 0.536712 -2.21593 0
M  V30 965 C 106.879 1.07015 -1.20153 0
M  V30 966 O 108.071 1.00471 -1.45721 0
M  V30 967 C 105.2 1.68977 -2.98834 0
M  V30 968 C 104.286 1.17052 -4.07627 0
M  V30 969 N 104.677 0.372085 -5.0443 0
M  V30 970 C 102.975 1.44789 -4.21844 0
M  V30 971 C 103.676 0.0909171 -5.81629 0
M  V30 972 N 102.652 0.681131 -5.39316 0
M  V30 973 H 106.454 -0.0804298 -2.9379 0
M  V30 974 H 103.968 -0.144943 -1.61752 0
M  V30 975 H 105.965 2.32857 -3.45808 0
M  V30 976 H 104.625 2.31024 -2.28162 0
M  V30 977 H 105.636 0.0136217 -5.17898 0
M  V30 978 H 102.313 2.07313 -3.62391 0
M  V30 979 H 103.703 -0.552817 -6.69622 0
M  V30 980 N 106.423 1.57458 -0.0668435 0
M  V30 981 C 107.353 2.15468 0.899764 0
M  V30 982 C 108.334 1.08042 1.31381 0
M  V30 983 O 109.519 1.36054 1.38574 0
M  V30 984 C 106.649 2.71232 2.16911 0
M  V30 985 C 105.603 3.83781 1.89463 0
M  V30 986 C 104.929 4.26127 3.22986 0
M  V30 987 C 106.229 5.08238 1.20381 0
M  V30 988 H 107.923 2.96488 0.416529 0
M  V30 989 H 105.469 1.4262 0.198908 0
M  V30 990 H 107.422 3.10458 2.84945 0
M  V30 991 H 106.146 1.87426 2.67468 0
M  V30 992 H 104.805 3.45051 1.23836 0
M  V30 993 H 104.453 3.39249 3.71374 0
M  V30 994 H 104.153 5.01993 3.05413 0
M  V30 995 H 105.677 4.67966 3.92225 0
M  V30 996 H 107.091 5.44811 1.78475 0
M  V30 997 H 105.488 5.89349 1.13083 0
M  V30 998 H 106.558 4.84558 0.182153 0
M  V30 999 N 107.901 -0.206675 1.56239 0
M  V30 1000 C 109.178 -0.954051 1.70755 0
M  V30 1001 C 109.558 -2.01841 0.618353 0
M  V30 1002 O 108.906 -2.25444 -0.372434 0
M  V30 1003 C 109.116 -1.551 3.12642 0
M  V30 1004 C 110.464 -2.03757 3.72516 0
M  V30 1005 O 111.488 -1.64965 3.15698 0
M  V30 1006 O 110.347 -2.75103 4.72208 0
M  V30 1007 H 107.441 -0.446636 0.696021 0
M  V30 1008 H 109.987 -0.197283 1.68549 0
M  V30 1009 H 108.759 -0.783212 3.83382 0
M  V30 1010 H 108.382 -2.37291 3.19028 0
M  V30 1011 N 109.379 -1.50304 -0.473955 0
M  V30 1012 C 110.79 -1.54042 -1.0549 0
M  V30 1013 C 111.141 -0.342248 -1.93192 0
M  V30 1014 O 110.266 0.545157 -2.09421 0
M  V30 1015 C 110.861 -2.79152 -1.91989 0
M  V30 1016 C 109.42 -2.8558 -2.45196 0
M  V30 1017 C 108.567 -2.48295 -1.2347 0
M  V30 1018 H 111.518 -1.5661 -0.256693 0
M  V30 1019 H 111.539 -2.60845 -2.7702 0
M  V30 1020 H 111.051 -3.66339 -1.28131 0
M  V30 1021 H 109.152 -2.02738 -3.12615 0
M  V30 1022 H 109.265 -3.88403 -2.80499 0
M  V30 1023 H 107.629 -2.00669 -1.56856 0
M  V30 1024 H 108.412 -3.37787 -0.612789 0
M  V30 1025 N 110.857 0.726932 -1.39834 0
M  V30 1026 C 112.273 1.03354 -1.21615 0
M  V30 1027 C 112.473 2.01327 -0.08338 0
M  V30 1028 O 111.529 2.46158 0.56238 0
M  V30 1029 C 112.842 1.58811 -2.55342 0
M  V30 1030 C 114.39 1.70851 -2.62257 0
M  V30 1031 C 114.865 2.29716 -3.96225 0
M  V30 1032 N 116.356 2.37116 -3.97907 0
M  V30 1033 C 117.091 2.83619 -4.98345 0
M  V30 1034 N 116.587 3.29958 -6.09179 0
M  V30 1035 N 118.38 2.82901 -4.8572 0
M  V30 1036 H 110.531 0.0773069 -2.12259 0
M  V30 1037 H 112.794 0.0969102 -0.943034 0
M  V30 1038 H 112.5 0.942855 -3.38826 0
M  V30 1039 H 112.374 2.57502 -2.75632 0
M  V30 1040 H 114.761 2.34497 -1.79152 0
M  V30 1041 H 114.842 0.707913 -2.45809 0
M  V30 1042 H 114.486 1.66696 -4.79765 0
M  V30 1043 H 114.416 3.30469 -4.09997 0
M  V30 1044 H 116.907 2.04374 -3.17868 0
M  V30 1045 H 117.22 3.63976 -6.8172 0
M  V30 1046 H 115.565 3.27946 -6.12761 0
M  V30 1047 H 118.756 2.46027 -3.98231 0
M  V30 1048 H 118.929 3.18827 -5.6414 0
M  V30 1049 N 112.336 1.25143 0.95797 0
M  V30 1050 C 113.582 1.09855 1.70469 0
M  V30 1051 C 113.915 -0.360187 1.90831 0
M  V30 1052 O 113.19 -1.26568 1.47685 0
M  V30 1053 C 113.473 1.8497 3.08963 0
M  V30 1054 C 113.326 3.38652 2.96032 0
M  V30 1055 C 114.645 1.63016 4.08795 0
M  V30 1056 H 111.764 0.400465 0.618706 0
M  V30 1057 H 114.406 1.53933 1.11376 0
M  V30 1058 H 112.556 1.47505 3.59409 0
M  V30 1059 H 114.228 3.85772 2.52938 0
M  V30 1060 H 112.471 3.66534 2.32025 0
M  V30 1061 H 113.142 3.8642 3.94187 0
M  V30 1062 H 115.618 1.95625 3.67247 0
M  V30 1063 H 114.494 2.18015 5.03747 0
M  V30 1064 H 114.755 0.570692 4.38401 0
M  V30 1065 N 113.814 -1.1601 1.06675 0
M  V30 1066 C 115.061 -1.86633 0.785781 0
M  V30 1067 C 115.389 -1.81929 -0.687896 0
M  V30 1068 O 114.644 -1.23253 -1.52011 0
M  V30 1069 C 114.943 -3.35547 1.23057 0
M  V30 1070 C 114.609 -3.60448 2.70902 0
M  V30 1071 C 113.271 -3.66954 3.11285 0
M  V30 1072 C 115.623 -3.7071 3.66365 0
M  V30 1073 C 112.951 -3.81225 4.45965 0
M  V30 1074 C 115.303 -3.86503 5.00797 0
M  V30 1075 C 113.967 -3.91252 5.40813 0
M  V30 1076 H 113.237 -0.682937 0.287538 0
M  V30 1077 H 115.884 -1.37146 1.33654 0
M  V30 1078 H 114.189 -3.87193 0.59907 0
M  V30 1079 H 115.886 -3.88583 0.990163 0
M  V30 1080 H 112.476 -3.56021 2.38636 0
M  V30 1081 H 116.66 -3.64991 3.36296 0
M  V30 1082 H 111.916 -3.83155 4.76447 0
M  V30 1083 H 116.09 -3.93385 5.74649 0
M  V30 1084 H 113.717 -4.02062 6.45174 0
M  V30 1085 N 115.292 -0.849877 -1.32721 0
M  V30 1086 C 116.538 -0.451591 -1.97708 0
M  V30 1087 C 116.871 0.989175 -1.6712 0
M  V30 1088 O 116.146 1.69334 -0.956891 0
M  V30 1089 C 116.429 -0.685598 -3.53513 0
M  V30 1090 C 116.282 -2.17444 -3.93749 0
M  V30 1091 C 117.601 -0.138874 -4.39881 0
M  V30 1092 H 114.72 -0.16555 -0.718166 0
M  V30 1093 H 117.362 -1.06742 -1.57182 0
M  V30 1094 H 115.512 -0.161416 -3.88165 0
M  V30 1095 H 117.184 -2.76433 -3.693 0
M  V30 1096 H 115.427 -2.65476 -3.43081 0
M  V30 1097 H 116.098 -2.28888 -5.02309 0
M  V30 1098 H 118.574 -0.587068 -4.11938 0
M  V30 1099 H 117.45 -0.332213 -5.47894 0
M  V30 1100 H 117.711 0.95806 -4.31594 0
M  V30 1101 N 116.77 1.45427 -0.607355 0
M  V30 1102 C 118.047 1.9557 -0.0344566 0
M  V30 1103 C 118.427 1.54979 1.43334 0
M  V30 1104 O 117.775 0.812241 2.13576 0
M  V30 1105 C 117.985 3.48226 -0.232321 0
M  V30 1106 C 119.333 4.2445 -0.113001 0
M  V30 1107 O 120.357 3.55829 -0.162431 0
M  V30 1108 O 119.216 5.465 0.00209442 0
M  V30 1109 H 116.31 0.826222 0.0358667 0
M  V30 1110 H 118.856 1.55594 -0.6774 0
M  V30 1111 H 117.628 3.70739 -1.25174 0
M  V30 1112 H 117.251 3.95092 0.445896 0
M  V30 1113 N 118.248 0.346503 1.53744 0
M  V30 1114 C 119.496 -0.248612 2.00565 0
M  V30 1115 C 119.817 -1.5083 1.23593 0
M  V30 1116 O 119.087 -1.92858 0.343912 0
M  V30 1117 H 117.667 -0.0948564 0.740953 0
M  V30 1118 H 120.329 0.468341 1.89189 0
M  V30 1119 H 119.425 -0.488994 3.08245 0
M  V30 1120 N 119.726 -1.57421 0.075193 0
M  V30 1121 C 120.656 -2.15942 -0.888324 0
M  V30 1122 C 121.637 -1.08737 -1.30806 0
M  V30 1123 O 122.822 -1.36787 -1.37851 0
M  V30 1124 C 119.952 -2.72379 -2.1547 0
M  V30 1125 C 118.906 -3.8478 -1.87425 0
M  V30 1126 C 118.232 -4.27834 -3.20721 0
M  V30 1127 C 119.532 -5.08869 -1.17684 0
M  V30 1128 H 121.226 -2.96705 -0.400799 0
M  V30 1129 H 118.772 -1.42723 -0.191342 0
M  V30 1130 H 120.725 -3.11965 -2.83295 0
M  V30 1131 H 119.449 -1.88841 -2.6647 0
M  V30 1132 H 118.108 -3.45703 -1.22004 0
M  V30 1133 H 117.756 -3.41214 -3.6957 0
M  V30 1134 H 117.456 -5.03605 -3.02746 0
M  V30 1135 H 118.98 -4.70039 -3.89738 0
M  V30 1136 H 120.394 -5.4575 -1.75584 0
M  V30 1137 H 118.791 -5.8994 -1.09956 0
M  V30 1138 H 119.861 -4.84648 -0.156453 0
M  V30 1139 N 121.204 0.198386 -1.56346 0
M  V30 1140 C 122.444 0.92609 -1.82217 0
M  V30 1141 C 122.808 1.80584 -0.652195 0
M  V30 1142 O 124.009 2.56907 -0.790716 0
M  V30 1143 C 122.28 1.72354 -3.13096 0
M  V30 1144 S 123.839 2.50371 -3.6036 0
M  V30 1145 H 120.657 0.310677 -0.639532 0
M  V30 1146 H 123.259 0.189755 -1.94577 0
M  V30 1147 H 121.963 1.0678 -3.96265 0
M  V30 1148 H 121.494 2.50175 -3.03605 0
M  V30 1149 H 123.509 3.74488 -3.25535 0
M  V30 1150 N 122.682 1.50554 0.465978 0
M  V30 1151 C 124.098 1.38093 0.800154 0
M  V30 1152 C 124.298 0.440988 1.96615 0
M  V30 1153 O 123.354 -0.114499 2.5224 0
M  V30 1154 C 124.667 2.79565 1.10742 0
M  V30 1155 C 126.215 2.88516 1.21357 0
M  V30 1156 C 126.69 4.30833 1.55393 0
M  V30 1157 N 128.181 4.33807 1.62375 0
M  V30 1158 C 128.916 5.40927 1.90225 0
M  V30 1159 N 128.412 6.58247 2.16062 0
M  V30 1160 N 130.205 5.28376 1.9177 0
M  V30 1161 H 122.356 2.10237 -0.302366 0
M  V30 1162 H 124.619 0.945203 -0.0727746 0
M  V30 1163 H 124.325 3.50208 0.323661 0
M  V30 1164 H 124.199 3.17125 2.04234 0
M  V30 1165 H 126.586 2.1809 1.98799 0
M  V30 1166 H 126.667 2.54492 0.258321 0
M  V30 1167 H 126.311 5.01799 0.784889 0
M  V30 1168 H 126.241 4.62347 2.52076 0
M  V30 1169 H 128.732 3.49212 1.44427 0
M  V30 1170 H 129.045 7.3569 2.36601 0
M  V30 1171 H 127.39 6.61413 2.13444 0
M  V30 1172 H 130.581 4.35715 1.71085 0
M  V30 1173 H 130.754 6.11944 2.13139 0
M  V30 1174 N 124.16 -0.719506 1.40217 0
M  V30 1175 C 125.123 -1.8153 1.39927 0
M  V30 1176 C 126.123 -1.58095 0.293723 0
M  V30 1177 O 127.313 -1.65209 0.552429 0
M  V30 1178 C 124.445 -3.19561 1.18716 0
M  V30 1179 H 125.638 -1.83186 2.37451 0
M  V30 1180 H 123.191 -0.924746 1.26008 0
M  V30 1181 H 123.926 -3.23557 0.219366 0
M  V30 1182 H 123.711 -3.3797 1.98793 0
M  V30 1183 H 125.201 -3.99598 1.21291 0
M  V30 1184 N 125.638 -1.25649 -0.95132 0
M  V30 1185 C 126.585 -1.06323 -2.04851 0
M  V30 1186 C 127.555 0.0286491 -1.66075 0
M  V30 1187 O 128.74 -0.12917 -1.90362 0
M  V30 1188 C 125.88 -0.691529 -3.381 0
M  V30 1189 C 124.993 -1.85861 -3.89974 0
M  V30 1190 C 124.128 -1.43096 -5.11563 0
M  V30 1191 C 123.167 -2.56696 -5.55674 0
M  V30 1192 N 122.304 -2.14684 -6.68472 0
M  V30 1193 H 127.144 -2.00222 -2.20715 0
M  V30 1194 H 124.681 -0.997027 -1.08156 0
M  V30 1195 H 126.639 -0.456963 -4.1469 0
M  V30 1196 H 125.269 0.210474 -3.22113 0
M  V30 1197 H 124.321 -2.20639 -3.09875 0
M  V30 1198 H 125.633 -2.71161 -4.18657 0
M  V30 1199 H 124.787 -1.15624 -5.9558 0
M  V30 1200 H 123.526 -0.548722 -4.84603 0
M  V30 1201 H 122.531 -2.84909 -4.7022 0
M  V30 1202 H 123.756 -3.45503 -5.8464 0
M  V30 1203 H 121.702 -1.28881 -6.43215 0
M  V30 1204 H 121.619 -2.9353 -6.96689 0
M  V30 1205 H 122.887 -1.90397 -7.5589 0
M  V30 1206 N 127.117 1.15442 -1.07289 0
M  V30 1207 C 128.364 1.86213 -0.795668 0
M  V30 1208 C 128.692 1.82291 0.678238 0
M  V30 1209 O 127.947 1.24057 1.51355 0
M  V30 1210 C 128.246 3.3489 -1.24834 0
M  V30 1211 C 127.912 3.59007 -2.72809 0
M  V30 1212 C 126.574 3.65298 -3.13227 0
M  V30 1213 C 128.926 3.68762 -3.68326 0
M  V30 1214 C 126.254 3.78854 -4.4798 0
M  V30 1215 C 128.606 3.83842 -5.0284 0
M  V30 1216 C 127.27 3.88378 -5.4288 0
M  V30 1217 H 126.54 0.681403 -0.291155 0
M  V30 1218 H 129.187 1.36435 -1.34379 0
M  V30 1219 H 127.492 3.8687 -0.619595 0
M  V30 1220 H 129.189 3.88052 -1.01076 0
M  V30 1221 H 125.779 3.5475 -2.40521 0
M  V30 1222 H 129.963 3.63202 -3.38227 0
M  V30 1223 H 125.219 3.80623 -4.78472 0
M  V30 1224 H 129.393 3.90332 -5.76727 0
M  V30 1225 H 127.02 3.98635 -6.47298 0
M  V30 1226 N 128.595 0.856903 1.32268 0
M  V30 1227 C 129.505 0.306131 2.32594 0
M  V30 1228 C 130.521 -0.577209 1.64147 0
M  V30 1229 O 131.697 -0.477043 1.95669 0
M  V30 1230 C 128.762 -0.494561 3.43154 0
M  V30 1231 C 127.823 0.415186 4.27288 0
M  V30 1232 C 127.056 -0.347387 5.32568 0
M  V30 1233 O 127.279 -1.57708 5.48165 0
M  V30 1234 O 126.213 0.287982 6.01211 0
M  V30 1235 H 130.039 1.13737 2.81598 0
M  V30 1236 H 127.624 0.619902 1.35932 0
M  V30 1237 H 129.506 -0.948944 4.10576 0
M  V30 1238 H 128.181 -1.30257 2.96336 0
M  V30 1239 H 127.088 0.917793 3.62667 0
M  V30 1240 H 128.421 1.18844 4.77637 0
M  V30 1241 N 130.073 -1.45103 0.615059 0
M  V30 1242 C 131.298 -2.07064 0.117988 0
M  V30 1243 C 131.723 -1.4554 -1.19163 0
M  V30 1244 O 131.081 -0.550855 -1.72729 0
M  V30 1245 C 131.129 -3.606 -0.000288387 0
M  V30 1246 O 130.233 -3.98847 -1.04856 0
M  V30 1247 H 129.574 -0.659467 0.0774581 0
M  V30 1248 H 132.104 -1.86236 0.847186 0
M  V30 1249 H 132.114 -4.07529 -0.196091 0
M  V30 1250 H 130.789 -4.04765 0.955932 0
M  V30 1251 H 129.366 -3.63577 -0.828619 0
M  V30 1252 N 131.551 -0.354651 -1.53558 0
M  V30 1253 C 132.481 0.489091 -2.2832 0
M  V30 1254 C 133.462 1.09324 -1.30316 0
M  V30 1255 O 134.647 1.11255 -1.59173 0
M  V30 1256 C 131.777 1.63456 -3.0643 0
M  V30 1257 C 130.731 1.1582 -4.12031 0
M  V30 1258 C 130.057 2.39305 -4.7816 0
M  V30 1259 C 131.357 0.250731 -5.21698 0
M  V30 1260 H 133.051 -0.134614 -2.99097 0
M  V30 1261 H 130.597 -0.0661826 -1.43848 0
M  V30 1262 H 132.55 2.23136 -3.57475 0
M  V30 1263 H 131.274 2.28533 -2.33325 0
M  V30 1264 H 129.933 0.584146 -3.61916 0
M  V30 1265 H 129.581 3.02814 -4.01637 0
M  V30 1266 H 129.281 2.08109 -5.49513 0
M  V30 1267 H 130.805 2.99691 -5.31994 0
M  V30 1268 H 132.219 0.754695 -5.68311 0
M  V30 1269 H 130.616 0.0301468 -6.00092 0
M  V30 1270 H 131.686 -0.710125 -4.79672 0
M  V30 1271 N 133.029 1.57378 -0.0835403 0
M  V30 1272 C 134.276 1.9393 0.58287 0
M  V30 1273 C 134.604 0.964455 1.68904 0
M  V30 1274 O 133.859 -0.0179474 1.95692 0
M  V30 1275 C 134.158 3.37063 1.1884 0
M  V30 1276 C 133.824 4.50424 0.207194 0
M  V30 1277 C 132.486 4.81159 -0.0627115 0
M  V30 1278 C 134.838 5.19136 -0.463426 0
M  V30 1279 C 132.166 5.77939 -1.01012 0
M  V30 1280 C 134.518 6.16931 -1.39924 0
M  V30 1281 C 133.182 6.46078 -1.67749 0
M  V30 1282 H 132.452 0.70964 0.213287 0
M  V30 1283 H 135.099 1.90856 -0.156916 0
M  V30 1284 H 133.404 3.3666 2.00418 0
M  V30 1285 H 135.101 3.6264 1.71153 0
M  V30 1286 H 131.691 4.2646 0.427747 0
M  V30 1287 H 135.875 4.95576 -0.268034 0
M  V30 1288 H 131.131 5.98842 -1.23283 0
M  V30 1289 H 135.305 6.69273 -1.92476 0
M  V30 1290 H 132.932 7.2088 -2.41321 0
M  V30 1291 N 134.507 -0.190092 1.56449 0
M  V30 1292 C 135.923 -0.54113 1.50146 0
M  V30 1293 C 136.123 -1.85603 0.784465 0
M  V30 1294 O 135.179 -2.5024 0.337051 0
M  V30 1295 C 136.492 -0.591241 2.9483 0
M  V30 1296 C 138.04 -0.679732 3.0553 0
M  V30 1297 C 138.515 -0.760908 4.51635 0
M  V30 1298 N 140.006 -0.824302 4.55806 0
M  V30 1299 C 140.741 -0.907365 5.66175 0
M  V30 1300 N 140.237 -0.952422 6.86222 0
M  V30 1301 N 142.03 -0.94494 5.541 0
M  V30 1302 H 134.181 0.67235 2.01478 0
M  V30 1303 H 136.444 0.240127 0.917084 0
M  V30 1304 H 136.15 0.305905 3.50367 0
M  V30 1305 H 136.024 -1.44422 3.48457 0
M  V30 1306 H 138.411 -1.56731 2.50039 0
M  V30 1307 H 138.492 0.199549 2.5502 0
M  V30 1308 H 138.136 0.122336 5.07753 0
M  V30 1309 H 138.066 -1.65606 4.99882 0
M  V30 1310 H 140.557 -0.798526 3.69367 0
M  V30 1311 H 140.87 -1.01645 7.66086 0
M  V30 1312 H 139.215 -0.921014 6.8887 0
M  V30 1313 H 142.406 -0.906612 4.59236 0
M  V30 1314 H 142.579 -1.00622 6.4014 0
M  V30 1315 N 135.985 -1.50799 -0.457987 0
M  V30 1316 C 137.213 -1.66218 -1.23203 0
M  V30 1317 C 137.628 -0.350894 -1.85511 0
M  V30 1318 O 136.985 0.668546 -1.69814 0
M  V30 1319 C 137.036 -2.76291 -2.33121 0
M  V30 1320 O 136.757 -4.02338 -1.73366 0
M  V30 1321 C 138.258 -3.028 -3.2377 0
M  V30 1322 H 135.478 -0.558361 -0.372121 0
M  V30 1323 H 138.022 -1.97099 -0.545179 0
M  V30 1324 H 136.177 -2.48068 -2.97558 0
M  V30 1325 H 136.591 -4.63312 -2.4585 0
M  V30 1326 H 138.065 -3.8345 -3.97077 0
M  V30 1327 H 138.542 -2.14385 -3.83322 0
M  V30 1328 H 139.148 -3.32604 -2.65056 0
M  V30 1329 N 137.463 0.71206 -1.40597 0
M  V30 1330 C 138.693 1.49894 -1.42181 0
M  V30 1331 C 139.101 1.89189 -0.0208078 0
M  V30 1332 O 138.444 1.56223 0.966436 0
M  V30 1333 C 138.506 2.80215 -2.25211 0
M  V30 1334 C 138.17 2.63221 -3.73582 0
M  V30 1335 C 139.167 2.30249 -4.66135 0
M  V30 1336 C 136.852 2.79376 -4.17438 0
M  V30 1337 C 138.846 2.13645 -6.00529 0
M  V30 1338 C 136.533 2.6239 -5.51901 0
M  V30 1339 C 137.531 2.29573 -6.43262 0
M  V30 1340 O 137.219 2.12719 -7.75246 0
M  V30 1341 H 136.951 0.469031 -0.486812 0
M  V30 1342 H 139.505 0.88564 -1.85326 0
M  V30 1343 H 137.735 3.4389 -1.76852 0
M  V30 1344 H 139.424 3.41947 -2.18694 0
M  V30 1345 H 140.19 2.17398 -4.33547 0
M  V30 1346 H 136.069 3.03906 -3.46644 0
M  V30 1347 H 139.613 1.87953 -6.71803 0
M  V30 1348 H 135.51 2.74826 -5.84073 0
M  V30 1349 H 136.278 2.27611 -7.86216 0
M  V30 1350 N 138.941 1.26152 0.944643 0
M  V30 1351 C 140.218 1.02247 1.66748 0
M  V30 1352 C 140.598 -0.448202 2.06287 0
M  V30 1353 O 139.946 -1.42779 1.78399 0
M  V30 1354 C 140.156 1.96788 2.88228 0
M  V30 1355 C 141.504 2.25201 3.59958 0
M  V30 1356 O 142.528 1.94626 2.98327 0
M  V30 1357 O 141.387 2.77242 4.70956 0
M  V30 1358 H 138.481 0.388517 0.730057 0
M  V30 1359 H 141.027 1.37348 0.99668 0
M  V30 1360 H 139.799 2.96047 2.55875 0
M  V30 1361 H 139.422 1.62145 3.63035 0
M  V30 1362 N 140.419 -1.14872 1.07899 0
M  V30 1363 C 141.366 -2.19791 0.704319 0
M  V30 1364 C 142.336 -1.63238 -0.306987 0
M  V30 1365 O 143.521 -1.8983 -0.192171 0
M  V30 1366 C 140.661 -3.44911 0.114244 0
M  V30 1367 C 139.774 -4.15637 1.1777 0
M  V30 1368 C 138.909 -5.28324 0.552037 0
M  V30 1369 C 137.948 -5.90875 1.59789 0
M  V30 1370 N 137.085 -6.95022 0.994404 0
M  V30 1371 H 141.925 -2.5119 1.60336 0
M  V30 1372 H 139.462 -1.23356 0.801352 0
M  V30 1373 H 141.42 -4.16477 -0.245544 0
M  V30 1374 H 140.05 -3.14011 -0.74813 0
M  V30 1375 H 139.102 -3.42512 1.65499 0
M  V30 1376 H 140.414 -4.5823 1.97046 0
M  V30 1377 H 139.568 -6.06538 0.1402 0
M  V30 1378 H 138.307 -4.86939 -0.272431 0
M  V30 1379 H 137.312 -5.11369 2.01945 0
M  V30 1380 H 138.537 -6.34337 2.42474 0
M  V30 1381 H 136.483 -6.55722 0.190939 0
M  V30 1382 H 136.4 -7.36073 1.72432 0
M  V30 1383 H 137.668 -7.77123 0.608253 0
M  V30 1384 N 141.898 -0.863906 -1.31812 0
M  V30 1385 C 143.175 -0.39275 -1.91616 0
M  V30 1386 C 143.555 1.12461 -1.7865 0
M  V30 1387 O 142.903 1.95045 -1.19037 0
M  V30 1388 C 143.113 -0.867385 -3.38049 0
M  V30 1389 C 144.461 -0.889966 -4.15168 0
M  V30 1390 O 145.485 -0.812635 -3.46806 0
M  V30 1391 O 144.344 -1.00079 -5.37258 0
M  V30 1392 H 141.438 -0.116358 -0.818773 0
M  V30 1393 H 143.984 -0.951418 -1.40521 0
M  V30 1394 H 142.756 -1.91081 -3.41473 0
M  V30 1395 H 142.379 -0.286687 -3.96565 0
M  V30 1396 N 143.376 1.44774 -0.622745 0
M  V30 1397 C 144.625 2.01334 -0.121397 0
M  V30 1398 C 144.938 1.49505 1.26125 0
M  V30 1399 O 146.144 1.98139 1.85616 0
M  V30 1400 C 144.6 3.59516 -0.166298 0
M  V30 1401 C 144.208 4.20342 -1.54974 0
M  V30 1402 C 145.952 4.23582 0.279021 0
M  V30 1403 C 143.859 5.70721 -1.55021 0
M  V30 1404 H 142.789 0.752851 -0.0416172 0
M  V30 1405 H 145.44 1.66083 -0.780309 0
M  V30 1406 H 143.822 3.92027 0.559557 0
M  V30 1407 H 144.996 3.99381 -2.29851 0
M  V30 1408 H 143.311 3.68529 -1.93843 0
M  V30 1409 H 145.908 5.33868 0.298083 0
M  V30 1410 H 146.251 3.95327 1.30471 0
M  V30 1411 H 146.784 3.95843 -0.394063 0
M  V30 1412 H 143.523 6.03698 -2.55399 0
M  V30 1413 H 143.043 5.93829 -0.844245 0
M  V30 1414 H 144.722 6.34203 -1.28047 0
M  V30 1415 N 144.854 0.36279 1.53368 0
M  V30 1416 C 146.082 -0.228613 2.05633 0
M  V30 1417 C 146.497 -1.42676 1.23649 0
M  V30 1418 O 145.854 -1.80394 0.27647 0
M  V30 1419 C 145.905 -0.624845 3.56059 0
M  V30 1420 O 145.626 0.525675 4.34935 0
M  V30 1421 C 147.127 -1.27493 4.24571 0
M  V30 1422 H 144.347 -0.0407183 0.669763 0
M  V30 1423 H 146.891 0.520352 1.97769 0
M  V30 1424 H 145.046 -1.32373 3.64083 0
M  V30 1425 H 145.46 0.205969 5.24095 0
M  V30 1426 H 146.934 -1.50277 5.31151 0
M  V30 1427 H 147.411 -2.23439 3.78116 0
M  V30 1428 H 148.017 -0.617558 4.20792 0
M  V30 1429 N 146.332 -1.57332 0.0918853 0
M  V30 1430 C 147.579 -1.94236 -0.572577 0
M  V30 1431 C 147.907 -0.973398 -1.6839 0
M  V30 1432 O 147.162 0.00756912 -1.95699 0
M  V30 1433 C 147.461 -3.37689 -1.17051 0
M  V30 1434 C 147.127 -4.50527 -0.183304 0
M  V30 1435 C 145.789 -4.81119 0.0882276 0
M  V30 1436 C 148.141 -5.18883 0.49095 0
M  V30 1437 C 145.469 -5.77395 1.04076 0
M  V30 1438 C 147.821 -6.1618 1.43193 0
M  V30 1439 C 146.485 -6.45179 1.71173 0
M  V30 1440 H 145.755 -0.710762 -0.209521 0
M  V30 1441 H 148.402 -1.9077 0.167036 0
M  V30 1442 H 146.707 -3.37718 -1.9863 0
M  V30 1443 H 148.404 -3.63543 -1.69227 0
M  V30 1444 H 144.994 -4.26681 -0.405124 0
M  V30 1445 H 149.178 -4.95427 0.294312 0
M  V30 1446 H 144.434 -5.98179 1.26457 0
M  V30 1447 H 148.608 -6.68243 1.96023 0
M  V30 1448 H 146.235 -7.1959 2.4514 0
M  V30 1449 N 147.81 0.181792 -1.56548 0
M  V30 1450 C 148.742 1.24956 -1.92142 0
M  V30 1451 C 149.755 1.41022 -0.813422 0
M  V30 1452 O 150.944 1.41212 -1.09186 0
M  V30 1453 C 148.044 2.61981 -2.14987 0
M  V30 1454 C 147.217 2.6735 -3.46183 0
M  V30 1455 C 146.276 3.85664 -3.5798 0
M  V30 1456 O 145.302 3.72148 -4.30691 0
M  V30 1457 N 146.504 5.01683 -2.92053 0
M  V30 1458 H 149.269 0.947329 -2.84334 0
M  V30 1459 H 146.83 0.371629 -1.57577 0
M  V30 1460 H 148.822 3.3958 -2.20154 0
M  V30 1461 H 147.392 2.84637 -1.2923 0
M  V30 1462 H 146.612 1.75925 -3.52766 0
M  V30 1463 H 147.9 2.67939 -4.32534 0
M  V30 1464 H 147.298 5.15564 -2.32832 0
M  V30 1465 H 145.855 5.77181 -3.0283 0
M  V30 1466 N 149.288 1.51039 0.449983 0
M  V30 1467 C 150.518 1.66627 1.22143 0
M  V30 1468 C 150.926 0.357776 1.85786 0
M  V30 1469 O 150.269 -0.672424 1.70951 0
M  V30 1470 C 150.331 2.71562 2.35573 0
M  V30 1471 C 149.995 4.14526 1.92399 0
M  V30 1472 C 150.992 4.99717 1.43453 0
M  V30 1473 C 148.677 4.60559 2.00475 0
M  V30 1474 C 150.671 6.28998 1.03155 0
M  V30 1475 C 148.358 5.8984 1.59788 0
M  V30 1476 C 149.356 6.73886 1.11208 0
M  V30 1477 O 149.044 8.0075 0.710935 0
M  V30 1478 H 148.776 0.562635 0.374724 0
M  V30 1479 H 151.33 1.98146 0.541036 0
M  V30 1480 H 149.56 2.3533 3.06849 0
M  V30 1481 H 151.249 2.76156 2.97478 0
M  V30 1482 H 152.015 4.65361 1.36618 0
M  V30 1483 H 147.894 3.95273 2.37235 0
M  V30 1484 H 151.438 6.9455 0.651663 0
M  V30 1485 H 147.335 6.23713 1.66289 0
M  V30 1486 H 148.103 8.142 0.837913 0
M  V30 1487 N 150.766 -0.704594 1.40972 0
M  V30 1488 C 152.013 -1.46458 1.39844 0
M  V30 1489 C 152.341 -1.94499 0.00447594 0
M  V30 1490 O 151.596 -1.69275 -0.982057 0
M  V30 1491 C 151.895 -2.698 2.34399 0
M  V30 1492 C 151.561 -2.40464 3.81429 0
M  V30 1493 C 150.223 -2.32174 4.21484 0
M  V30 1494 C 152.575 -2.16086 4.74296 0
M  V30 1495 C 149.903 -1.97589 5.52427 0
M  V30 1496 C 152.255 -1.83011 6.05549 0
M  V30 1497 C 150.919 -1.7321 6.44635 0
M  V30 1498 H 150.189 -0.535927 0.511725 0
M  V30 1499 H 152.836 -0.806124 1.73706 0
M  V30 1500 H 151.141 -3.40536 1.93759 0
M  V30 1501 H 152.838 -3.27919 2.30804 0
M  V30 1502 H 149.428 -2.47808 3.49699 0
M  V30 1503 H 153.612 -2.2144 4.4416 0
M  V30 1504 H 148.868 -1.88547 5.81601 0
M  V30 1505 H 153.042 -1.63164 6.77016 0
M  V30 1506 H 150.669 -1.46179 7.46013 0
M  V30 1507 N 152.244 -1.26651 -0.937939 0
M  V30 1508 C 153.191 -1.0849 -2.03712 0
M  V30 1509 C 154.161 0.011033 -1.66096 0
M  V30 1510 O 155.346 -0.149353 -1.90215 0
M  V30 1511 C 152.486 -0.72735 -3.37348 0
M  V30 1512 C 151.599 -1.89986 -3.87981 0
M  V30 1513 C 150.734 -1.48513 -5.10017 0
M  V30 1514 C 149.773 -2.62575 -5.5292 0
M  V30 1515 N 148.91 -2.21762 -6.66158 0
M  V30 1516 H 153.75 -2.02551 -2.18579 0
M  V30 1517 H 151.287 -1.00844 -1.07093 0
M  V30 1518 H 153.245 -0.50092 -4.14182 0
M  V30 1519 H 151.875 0.176298 -3.22318 0
M  V30 1520 H 150.927 -2.23913 -3.07518 0
M  V30 1521 H 152.239 -2.75586 -4.15757 0
M  V30 1522 H 151.393 -1.21934 -5.94321 0
M  V30 1523 H 150.132 -0.60009 -4.83994 0
M  V30 1524 H 149.137 -2.8988 -4.67172 0
M  V30 1525 H 150.362 -3.51685 -5.80943 0
M  V30 1526 H 148.308 -1.35696 -6.41812 0
M  V30 1527 H 148.225 -3.00903 -6.93537 0
M  V30 1528 H 149.493 -1.98403 -7.53828 0
M  V30 1529 N 153.722 1.14298 -1.08507 0
M  V30 1530 C 154.947 1.8976 -0.837001 0
M  V30 1531 C 155.372 1.78097 0.605228 0
M  V30 1532 O 154.73 1.12188 1.4242 0
M  V30 1533 C 154.778 3.37685 -1.26495 0
M  V30 1534 O 153.882 4.10281 -0.417514 0
M  V30 1535 H 153.223 0.590365 -0.303917 0
M  V30 1536 H 155.753 1.44672 -1.44676 0
M  V30 1537 H 155.763 3.88501 -1.24625 0
M  V30 1538 H 154.438 3.45492 -2.31534 0
M  V30 1539 H 153.015 3.69536 -0.499722 0
M  V30 1540 N 155.201 0.870884 1.31352 0
M  V30 1541 C 156.448 0.482273 1.96673 0
M  V30 1542 C 156.776 -0.965638 1.68836 0
M  V30 1543 O 156.031 -1.69514 0.977937 0
M  V30 1544 C 156.33 0.687157 3.50732 0
M  V30 1545 C 155.996 2.108 3.9859 0
M  V30 1546 C 154.658 2.49656 4.1137 0
M  V30 1547 C 157.01 3.03459 4.23748 0
M  V30 1548 C 154.338 3.80412 4.46659 0
M  V30 1549 C 156.69 4.3373 4.60501 0
M  V30 1550 C 155.354 4.725 4.71487 0
M  V30 1551 H 154.624 0.176476 0.719679 0
M  V30 1552 H 157.271 1.10405 1.56471 0
M  V30 1553 H 155.576 -0.0177476 3.91796 0
M  V30 1554 H 157.273 0.366284 3.99324 0
M  V30 1555 H 153.863 1.79633 3.8914 0
M  V30 1556 H 158.047 2.74665 4.13368 0
M  V30 1557 H 153.303 4.1021 4.53362 0
M  V30 1558 H 157.477 5.05578 4.78919 0
M  V30 1559 H 155.104 5.73859 4.98588 0
M  V30 1560 N 156.679 -1.44442 0.630414 0
M  V30 1561 C 157.626 -2.30678 -0.0749355 0
M  V30 1562 C 158.596 -1.4344 -0.837502 0
M  V30 1563 O 159.781 -1.72343 -0.818684 0
M  V30 1564 C 156.921 -3.28706 -1.05103 0
M  V30 1565 C 156.034 -4.31046 -0.286954 0
M  V30 1566 C 155.169 -5.16167 -1.2548 0
M  V30 1567 C 154.208 -6.10216 -0.479843 0
M  V30 1568 N 153.345 -6.88039 -1.39811 0
M  V30 1569 H 158.185 -2.90454 0.666386 0
M  V30 1570 H 155.722 -1.43107 0.340404 0
M  V30 1571 H 157.68 -3.84027 -1.63031 0
M  V30 1572 H 156.31 -2.70632 -1.75949 0
M  V30 1573 H 155.362 -3.78203 0.408243 0
M  V30 1574 H 156.674 -4.97794 0.316657 0
M  V30 1575 H 155.828 -5.76002 -1.90544 0
M  V30 1576 H 154.567 -4.49491 -1.89233 0
M  V30 1577 H 153.572 -5.49491 0.184295 0
M  V30 1578 H 154.797 -6.78928 0.152965 0
M  V30 1579 H 152.743 -6.24032 -2.02287 0
M  V30 1580 H 152.66 -7.51223 -0.848508 0
M  V30 1581 H 153.928 -7.52397 -2.03762 0
M  V30 1582 N 158.157 -0.370918 -1.53173 0
M  V30 1583 C 159.573 -0.0200818 -1.59587 0
M  V30 1584 C 159.773 1.46279 -1.38581 0
M  V30 1585 O 158.829 2.22506 -1.19363 0
M  V30 1586 C 160.142 -0.4808 -2.96831 0
M  V30 1587 C 161.69 -0.435477 -3.09956 0
M  V30 1588 C 162.165 -0.872092 -4.4962 0
M  V30 1589 N 163.656 -0.827364 -4.55751 0
M  V30 1590 C 164.391 -1.13683 -5.62018 0
M  V30 1591 N 163.887 -1.51584 -6.76014 0
M  V30 1592 N 165.68 -1.05927 -5.52029 0
M  V30 1593 H 157.831 -1.33652 -1.65079 0
M  V30 1594 H 160.094 -0.546634 -0.774529 0
M  V30 1595 H 159.8 -1.51577 -3.1736 0
M  V30 1596 H 159.674 0.129796 -3.76977 0
M  V30 1597 H 162.061 0.590371 -2.89134 0
M  V30 1598 H 162.142 -1.08164 -2.31806 0
M  V30 1599 H 161.786 -1.89608 -4.71181 0
M  V30 1600 H 161.716 -0.203127 -5.26208 0
M  V30 1601 H 164.207 -0.548216 -3.73902 0
M  V30 1602 H 164.52 -1.73609 -7.53047 0
M  V30 1603 H 162.865 -1.55454 -6.77391 0
M  V30 1604 H 166.056 -0.762321 -4.61851 0
M  V30 1605 H 166.229 -1.30378 -6.34749 0
M  V30 1606 N 159.635 1.57281 -0.100228 0
M  V30 1607 C 160.881 1.94826 0.563101 0
M  V30 1608 C 161.214 0.982475 1.67514 0
M  V30 1609 O 160.489 0.0164069 1.94493 0
M  V30 1610 C 160.772 3.42453 1.11346 0
M  V30 1611 C 160.625 4.498 0.00612081 0
M  V30 1612 C 161.944 3.91506 2.01024 0
M  V30 1613 H 159.063 0.708428 0.203221 0
M  V30 1614 H 161.705 1.8922 -0.171979 0
M  V30 1615 H 159.855 3.47361 1.7399 0
M  V30 1616 H 161.527 4.57 -0.628357 0
M  V30 1617 H 159.77 4.28756 -0.659581 0
M  V30 1618 H 160.441 5.50306 0.432109 0
M  V30 1619 H 162.917 3.88784 1.48278 0
M  V30 1620 H 161.793 4.95358 2.36457 0
M  V30 1621 H 162.054 3.31099 2.92961 0
M  V30 1622 N 161.113 -0.173488 1.56642 0
M  V30 1623 C 162.529 -0.525174 1.50712 0
M  V30 1624 C 162.729 -1.8476 0.804107 0
M  V30 1625 O 161.785 -2.49869 0.363574 0
M  V30 1626 C 163.098 -0.559937 2.95441 0
M  V30 1627 C 164.646 -0.647288 3.06234 0
M  V30 1628 C 165.121 -0.712963 4.52417 0
M  V30 1629 N 166.612 -0.775911 4.56655 0
M  V30 1630 C 167.347 -0.847264 5.67106 0
M  V30 1631 N 166.843 -0.879585 6.87194 0
M  V30 1632 N 168.636 -0.886117 5.55071 0
M  V30 1633 H 160.787 0.693681 2.00753 0
M  V30 1634 H 163.05 0.249841 0.914485 0
M  V30 1635 H 162.756 0.343049 3.50023 0
M  V30 1636 H 162.63 -1.40718 3.49969 0
M  V30 1637 H 165.017 -1.5407 2.51687 0
M  V30 1638 H 165.098 0.226586 2.54794 0
M  V30 1639 H 164.742 0.176183 5.07594 0
M  V30 1640 H 164.672 -1.60295 5.0161 0
M  V30 1641 H 167.163 -0.759304 3.70193 0
M  V30 1642 H 167.476 -0.935144 7.67121 0
M  V30 1643 H 165.821 -0.847898 6.89808 0
M  V30 1644 H 169.012 -0.857853 4.60172 0
M  V30 1645 H 169.185 -0.938263 6.41171 0
M  V30 1646 N 162.591 -1.51276 -0.441967 0
M  V30 1647 C 163.84 -1.6295 -1.18871 0
M  V30 1648 C 164.153 -0.349312 -1.92456 0
M  V30 1649 O 165.359 -0.345355 -2.69295 0
M  V30 1650 C 163.815 -2.87759 -2.16155 0
M  V30 1651 C 163.423 -4.22764 -1.48239 0
M  V30 1652 C 165.167 -3.08788 -2.91291 0
M  V30 1653 C 163.074 -5.38728 -2.4398 0
M  V30 1654 H 162.004 -0.606913 -0.447406 0
M  V30 1655 H 164.655 -1.77739 -0.456205 0
M  V30 1656 H 163.037 -2.66593 -2.92821 0
M  V30 1657 H 164.211 -4.54293 -0.771635 0
M  V30 1658 H 162.526 -4.07575 -0.852741 0
M  V30 1659 H 165.123 -3.92599 -3.63002 0
M  V30 1660 H 165.466 -2.21679 -3.5237 0
M  V30 1661 H 165.999 -3.30272 -2.21733 0
M  V30 1662 H 162.738 -6.28082 -1.87598 0
M  V30 1663 H 162.258 -5.1158 -3.13123 0
M  V30 1664 H 163.937 -5.70489 -3.05207 0
M  V30 1665 N 164.069 0.697108 -1.41344 0
M  V30 1666 C 165.017 1.83237 -1.43272 0
M  V30 1667 C 166.011 1.66522 -0.310947 0
M  V30 1668 O 167.217 1.73402 -0.482899 0
M  V30 1669 H 163.592 0.603802 -0.448249 0
M  V30 1670 H 165.563 1.78727 -2.38954 0
M  V30 1671 C 164.312 3.21245 -1.33029 0
M  V30 1672 H 163.635 3.34723 -2.18633 0
M  V30 1673 H 165.075 4.00763 -1.38439 0
M  V30 1674 C 163.534 3.36873 -0.0424635 0
M  V30 1675 O 164.064 3.91177 0.913421 0
M  V30 1676 N 162.27 2.90581 0.0331145 0
M  V30 1677 H 161.817 2.46577 -0.745506 0
M  V30 1678 H 161.775 3.01416 0.894199 0
M  V30 1679 N 165.547 1.27147 0.931209 0
M  V30 1680 C 166.794 1.13278 1.67852 0
M  V30 1681 C 167.122 -0.32204 1.91815 0
M  V30 1682 O 166.377 -1.25224 1.50391 0
M  V30 1683 C 166.676 1.8579 3.05314 0
M  V30 1684 C 166.342 3.35657 3.01073 0
M  V30 1685 C 165.004 3.76536 2.99623 0
M  V30 1686 C 167.356 4.31299 2.92627 0
M  V30 1687 C 164.684 5.11426 2.87506 0
M  V30 1688 C 167.036 5.66242 2.82051 0
M  V30 1689 C 165.7 6.06418 2.7895 0
M  V30 1690 H 164.97 0.414515 0.614214 0
M  V30 1691 H 167.617 1.57712 1.08624 0
M  V30 1692 H 165.922 1.33854 3.68226 0
M  V30 1693 H 167.619 1.72491 3.62005 0
M  V30 1694 H 164.209 3.03146 3.02986 0
M  V30 1695 H 168.393 4.00692 2.92848 0
M  V30 1696 H 163.649 5.41705 2.83489 0
M  V30 1697 H 167.823 6.40026 2.74481 0
M  V30 1698 H 165.45 7.10895 2.69318 0
M  V30 1699 N 167.025 -1.13721 1.09112 0
M  V30 1700 C 168.25 -1.89314 0.847053 0
M  V30 1701 C 168.675 -1.78416 -0.595774 0
M  V30 1702 O 168.033 -1.12942 -1.41823 0
M  V30 1703 C 168.081 -3.3701 1.28284 0
M  V30 1704 O 167.185 -4.10054 0.439267 0
M  V30 1705 H 166.526 -0.588745 0.307044 0
M  V30 1706 H 169.056 -1.43902 1.45442 0
M  V30 1707 H 169.066 -3.87834 1.26683 0
M  V30 1708 H 167.741 -3.4426 2.33363 0
M  V30 1709 H 166.318 -3.69266 0.519312 0
M  V30 1710 N 168.503 -0.877838 -1.30888 0
M  V30 1711 C 169.451 -0.328662 -2.30266 0
M  V30 1712 C 170.445 0.560496 -1.59859 0
M  V30 1713 O 171.651 0.445722 -1.74394 0
M  V30 1714 H 168.026 -0.0876142 -0.746879 0
M  V30 1715 H 169.997 -1.18061 -2.74051 0
M  V30 1716 C 168.746 0.448071 -3.44801 0
M  V30 1717 H 168.069 -0.226859 -3.99156 0
M  V30 1718 H 169.509 0.797541 -4.16432 0
M  V30 1719 C 167.968 1.64239 -2.94155 0
M  V30 1720 O 168.498 2.74175 -2.93583 0
M  V30 1721 N 166.704 1.47716 -2.50256 0
M  V30 1722 H 166.251 0.582821 -2.5092 0
M  V30 1723 H 166.209 2.27765 -2.16727 0
M  V30 1724 N 169.982 1.44106 -0.638065 0
M  V30 1725 C 171.393 1.85316 -0.226894 0
M  V30 1726 C 171.744 1.53399 1.22324 0
M  V30 1727 O 170.869 0.975463 1.93167 0
M  V30 1728 C 171.464 3.3637 -0.405013 0
M  V30 1729 C 170.023 3.76369 -0.0482902 0
M  V30 1730 C 169.17 2.67921 -0.715108 0
M  V30 1731 H 172.121 1.34474 -0.842764 0
M  V30 1732 H 172.142 3.7885 0.354 0
M  V30 1733 H 171.654 3.59569 -1.46053 0
M  V30 1734 H 169.755 3.58784 1.00522 0
M  V30 1735 H 169.868 4.76856 -0.463187 0
M  V30 1736 H 168.232 2.54259 -0.149753 0
M  V30 1737 H 169.015 2.93951 -1.77335 0
M  V30 1738 N 171.46 0.379036 1.52974 0
M  V30 1739 C 172.707 -0.206421 2.01445 0
M  V30 1740 C 173.035 -1.47668 1.26587 0
M  V30 1741 O 172.29 -1.92514 0.351675 0
M  V30 1742 C 172.589 -0.53096 3.53434 0
M  V30 1743 C 172.255 0.646546 4.46241 0
M  V30 1744 C 170.917 0.969604 4.7133 0
M  V30 1745 C 173.269 1.43479 5.01062 0
M  V30 1746 C 170.597 2.08263 5.48492 0
M  V30 1747 C 172.949 2.53834 5.7944 0
M  V30 1748 C 171.613 2.86659 6.02812 0
M  V30 1749 H 170.883 -0.0755349 0.73714 0
M  V30 1750 H 173.53 0.514271 1.84465 0
M  V30 1751 H 171.835 -1.33285 3.68432 0
M  V30 1752 H 173.532 -0.996417 3.88423 0
M  V30 1753 H 170.122 0.384734 4.2687 0
M  V30 1754 H 174.306 1.19844 4.81613 0
M  V30 1755 H 169.562 2.34078 5.64816 0
M  V30 1756 H 173.736 3.15319 6.20924 0
M  V30 1757 H 171.363 3.73026 6.62387 0
M  V30 1758 N 172.938 -1.57226 0.108567 0
M  V30 1759 C 174.163 -1.99604 -0.563303 0
M  V30 1760 C 174.588 -0.987563 -1.6009 0
M  V30 1761 O 173.946 0.0421687 -1.81251 0
M  V30 1762 C 173.994 -3.40902 -1.17552 0
M  V30 1763 O 173.098 -3.42896 -2.2912 0
M  V30 1764 H 172.439 -0.648704 -0.1417 0
M  V30 1765 H 174.969 -2.03679 0.193961 0
M  V30 1766 H 174.979 -3.78886 -1.51357 0
M  V30 1767 H 173.654 -4.1382 -0.415445 0
M  V30 1768 H 172.231 -3.1672 -1.96832 0
M  V30 1769 N 174.416 0.165178 -1.56732 0
M  V30 1770 C 175.379 1.18822 -1.95995 0
M  V30 1771 C 176.379 1.3685 -0.84431 0
M  V30 1772 O 177.569 1.34152 -1.11126 0
M  V30 1773 C 174.701 2.5521 -2.26011 0
M  V30 1774 H 175.894 0.851825 -2.87548 0
M  V30 1775 H 173.447 0.407857 -1.50885 0
M  V30 1776 H 174.182 2.93852 -1.37191 0
M  V30 1777 H 173.967 2.43489 -3.07336 0
M  V30 1778 H 175.457 3.28927 -2.57288 0
M  V30 1779 N 175.894 1.51508 0.433938 0
M  V30 1780 C 176.857 1.72473 1.50949 0
M  V30 1781 C 177.857 0.594725 1.49398 0
M  V30 1782 O 179.047 0.862315 1.5136 0
M  V30 1783 C 176.179 1.78431 2.90474 0
M  V30 1784 H 177.372 2.68467 1.33662 0
M  V30 1785 H 174.925 1.41549 0.662836 0
M  V30 1786 H 175.66 0.842645 3.13161 0
M  V30 1787 H 175.445 2.60558 2.93005 0
M  V30 1788 H 176.935 1.96479 3.68491 0
M  V30 1789 N 177.372 -0.689602 1.41712 0
M  V30 1790 C 178.649 -1.44457 1.31877 0
M  V30 1791 C 179.029 -2.11039 -0.0508537 0
M  V30 1792 O 178.377 -2.02138 -1.06547 0
M  V30 1793 C 178.587 -2.45913 2.47645 0
M  V30 1794 C 179.935 -3.10991 2.89084 0
M  V30 1795 O 180.959 -2.56238 2.47428 0
M  V30 1796 O 179.818 -4.10174 3.61137 0
M  V30 1797 H 176.912 -0.64362 0.519309 0
M  V30 1798 H 179.458 -0.719576 1.53689 0
M  V30 1799 H 178.23 -1.95409 3.39015 0
M  V30 1800 H 177.853 -3.25913 2.27742 0
M  V30 1801 N 178.85 -1.27639 -0.924453 0
M  V30 1802 C 179.813 -1.10681 -2.00705 0
M  V30 1803 C 180.813 -0.0497823 -1.60723 0
M  V30 1804 O 182.003 -0.294654 -1.7169 0
M  V30 1805 C 179.135 -0.687164 -3.33902 0
M  V30 1806 H 180.328 -2.06817 -2.17179 0
M  V30 1807 H 177.881 -1.10473 -1.10569 0
M  V30 1808 H 178.616 0.275439 -3.23128 0
M  V30 1809 H 178.401 -1.45061 -3.6428 0
M  V30 1810 H 179.891 -0.590853 -4.13399 0
M  V30 1811 N 180.328 1.1314 -1.09713 0
M  V30 1812 C 181.744 1.36477 -0.827423 0
M  V30 1813 C 181.944 1.93654 0.556817 0
M  V30 1814 O 181 2.15791 1.31112 0
M  V30 1815 C 182.313 2.31334 -1.92106 0
M  V30 1816 C 183.861 2.44943 -1.94864 0
M  V30 1817 C 184.336 3.4311 -3.0338 0
M  V30 1818 N 185.827 3.50662 -3.02639 0
M  V30 1819 C 186.562 4.2651 -3.83246 0
M  V30 1820 N 186.058 5.05485 -4.73768 0
M  V30 1821 N 187.851 4.2184 -3.71493 0
M  V30 1822 H 180.002 0.743807 -1.9895 0
M  V30 1823 H 182.265 0.389823 -0.864143 0
M  V30 1824 H 181.971 1.96483 -2.91698 0
M  V30 1825 H 181.845 3.31381 -1.80184 0
M  V30 1826 H 184.232 2.79079 -0.959099 0
M  V30 1827 H 184.313 1.4481 -2.10864 0
M  V30 1828 H 183.957 3.09704 -4.02549 0
M  V30 1829 H 183.887 4.43055 -2.84622 0
M  V30 1830 H 186.378 2.94315 -2.37039 0
M  V30 1831 H 186.691 5.60675 -5.3185 0
M  V30 1832 H 185.036 5.04708 -4.77802 0
M  V30 1833 H 188.227 3.5922 -3.00131 0
M  V30 1834 H 188.4 4.80697 -4.3455 0
M  V30 1835 N 181.806 0.884767 1.30421 0
M  V30 1836 C 182.736 0.367574 2.30589 0
M  V30 1837 C 183.717 -0.549464 1.60981 0
M  V30 1838 O 184.902 -0.46336 1.88591 0
M  V30 1839 C 182.032 -0.418944 3.44764 0
M  V30 1840 C 180.986 0.406316 4.26067 0
M  V30 1841 C 180.312 -0.506793 5.32293 0
M  V30 1842 C 181.612 1.64832 4.95608 0
M  V30 1843 H 183.306 1.20462 2.74097 0
M  V30 1844 H 180.852 0.580695 1.31772 0
M  V30 1845 H 182.805 -0.791395 4.13902 0
M  V30 1846 H 181.529 -1.28964 3.0006 0
M  V30 1847 H 180.188 0.760903 3.58617 0
M  V30 1848 H 179.836 -1.37519 4.83836 0
M  V30 1849 H 179.536 0.0415828 5.87585 0
M  V30 1850 H 181.06 -0.875764 6.04287 0
M  V30 1851 H 182.474 1.34646 5.57264 0
M  V30 1852 H 180.871 2.13688 5.60765 0
M  V30 1853 H 181.941 2.39284 4.21748 0
M  V30 1854 N 183.284 -1.43765 0.645699 0
M  V30 1855 C 184.216 -2.29027 -0.0890605 0
M  V30 1856 C 185.229 -1.42093 -0.794563 0
M  V30 1857 O 186.418 -1.66104 -0.653575 0
M  V30 1858 C 183.518 -3.18831 -1.14891 0
M  V30 1859 C 182.691 -4.34261 -0.523043 0
M  V30 1860 C 181.75 -5.04994 -1.47878 0
M  V30 1861 O 180.776 -5.6052 -0.990277 0
M  V30 1862 N 181.978 -5.07795 -2.81291 0
M  V30 1863 H 184.743 -2.92727 0.64272 0
M  V30 1864 H 182.304 -1.54373 0.487924 0
M  V30 1865 H 184.296 -3.63015 -1.78892 0
M  V30 1866 H 182.866 -2.56782 -1.78275 0
M  V30 1867 H 182.086 -3.93088 0.295896 0
M  V30 1868 H 183.374 -5.08728 -0.0858147 0
M  V30 1869 H 182.772 -4.64042 -3.23546 0
M  V30 1870 H 181.329 -5.55721 -3.40614 0
M  V30 1871 N 184.763 -0.387143 -1.52771 0
M  V30 1872 C 185.693 0.440551 -2.29306 0
M  V30 1873 C 186.674 1.06535 -1.32606 0
M  V30 1874 O 187.859 1.07853 -1.61497 0
M  V30 1875 C 184.989 1.56919 -3.09829 0
M  V30 1876 C 183.943 1.07054 -4.14395 0
M  V30 1877 C 183.269 2.29109 -4.83129 0
M  V30 1878 C 184.569 0.140015 -5.22112 0
M  V30 1879 H 186.263 -0.198026 -2.98744 0
M  V30 1880 H 183.809 -0.09668 -1.43675 0
M  V30 1881 H 185.762 2.15503 -3.62128 0
M  V30 1882 H 184.486 2.23532 -2.3812 0
M  V30 1883 H 183.145 0.507247 -3.63074 0
M  V30 1884 H 182.793 2.94227 -4.0797 0
M  V30 1885 H 182.493 1.96406 -5.53804 0
M  V30 1886 H 184.017 2.88339 -5.38231 0
M  V30 1887 H 185.431 0.633978 -5.69784 0
M  V30 1888 H 183.828 -0.0971485 -6.00021 0
M  V30 1889 H 184.898 -0.811711 -4.78058 0
M  V30 1890 N 186.241 1.57166 -0.116904 0
M  V30 1891 C 187.191 2.11756 0.845178 0
M  V30 1892 C 188.175 1.03783 1.22955 0
M  V30 1893 O 189.367 1.3002 1.20099 0
M  V30 1894 C 186.496 2.71886 2.09602 0
M  V30 1895 C 185.582 3.86937 1.7361 0
M  V30 1896 N 185.973 4.94073 1.08284 0
M  V30 1897 C 184.271 3.97082 2.03082 0
M  V30 1898 C 184.972 5.74477 0.913855 0
M  V30 1899 N 183.948 5.2423 1.43818 0
M  V30 1900 H 187.75 2.91967 0.336523 0
M  V30 1901 H 185.264 1.62174 0.0856332 0
M  V30 1902 H 187.261 3.09338 2.79492 0
M  V30 1903 H 185.921 1.93138 2.61013 0
M  V30 1904 H 186.932 5.12483 0.747067 0
M  V30 1905 H 183.609 3.29372 2.56554 0
M  V30 1906 H 184.999 6.70701 0.40125 0
M  V30 1907 N 187.719 -0.156864 1.56817 0
M  V30 1908 C 188.666 -1.19394 1.97519 0
M  V30 1909 C 189.636 -1.4322 0.841265 0
M  V30 1910 O 190.821 -1.55719 1.10255 0
M  V30 1911 C 187.961 -2.52483 2.35258 0
M  V30 1912 C 187.074 -2.35914 3.61896 0
M  V30 1913 C 186.209 -3.61969 3.88782 0
M  V30 1914 C 185.248 -3.40395 5.08722 0
M  V30 1915 N 184.385 -4.58556 5.31668 0
M  V30 1916 H 189.225 -0.839845 2.85921 0
M  V30 1917 H 186.762 -0.403264 1.41464 0
M  V30 1918 H 188.72 -3.30071 2.55165 0
M  V30 1919 H 187.35 -2.85859 1.49949 0
M  V30 1920 H 186.402 -1.49429 3.49821 0
M  V30 1921 H 187.714 -2.15926 4.49641 0
M  V30 1922 H 186.868 -4.47989 4.09135 0
M  V30 1923 H 185.607 -3.84951 2.9944 0
M  V30 1924 H 184.612 -2.52763 4.88253 0
M  V30 1925 H 185.837 -3.18822 5.99608 0
M  V30 1926 H 183.783 -4.81729 4.45279 0
M  V30 1927 H 183.7 -4.41535 6.13664 0
M  V30 1928 H 184.968 -5.45817 5.5651 0
M  V30 1929 N 189.197 -1.51736 -0.425897 0
M  V30 1930 C 190.425 -1.68794 -1.1965 0
M  V30 1931 C 190.84 -0.390164 -1.84725 0
M  V30 1932 O 190.197 0.632376 -1.71194 0
M  V30 1933 C 190.248 -2.81174 -2.27208 0
M  V30 1934 O 189.969 -4.05925 -1.64793 0
M  V30 1935 C 191.47 -3.09599 -3.17275 0
M  V30 1936 H 188.69 -0.566128 -0.360194 0
M  V30 1937 H 191.234 -1.98211 -0.503249 0
M  V30 1938 H 189.389 -2.54324 -2.9223 0
M  V30 1939 H 189.803 -4.68423 -2.35967 0
M  V30 1940 H 191.277 -3.91786 -3.88854 0
M  V30 1941 H 191.754 -2.22468 -3.78688 0
M  V30 1942 H 192.36 -3.38151 -2.57941 0
M  V30 1943 N 190.675 0.682077 -1.42076 0
M  V30 1944 C 191.585 1.82535 -1.47371 0
M  V30 1945 C 192.601 1.7017 -0.363079 0
M  V30 1946 O 193.777 1.91848 -0.612875 0
M  V30 1947 C 190.842 3.18624 -1.36674 0
M  V30 1948 C 189.903 3.42999 -2.58167 0
M  V30 1949 C 189.136 4.72595 -2.4797 0
M  V30 1950 O 189.359 5.50006 -1.5116 0
M  V30 1951 O 188.293 4.98054 -3.37974 0
M  V30 1952 H 192.119 1.81023 -2.43853 0
M  V30 1953 H 189.704 0.836887 -1.2376 0
M  V30 1954 H 191.586 3.99847 -1.33043 0
M  V30 1955 H 190.261 3.20789 -0.433138 0
M  V30 1956 H 189.168 2.61653 -2.67373 0
M  V30 1957 H 190.501 3.45659 -3.50401 0
M  V30 1958 N 192.153 1.28127 0.917671 0
M  V30 1959 C 193.4 1.15052 1.66641 0
M  V30 1960 C 193.728 -0.301677 1.92146 0
M  V30 1961 O 192.983 -1.23622 1.51711 0
M  V30 1962 C 193.282 1.89018 3.03327 0
M  V30 1963 C 192.948 3.38832 2.97496 0
M  V30 1964 C 191.61 3.79693 2.95613 0
M  V30 1965 C 193.962 4.34378 2.88036 0
M  V30 1966 C 191.29 5.14447 2.82066 0
M  V30 1967 C 193.642 5.69201 2.7603 0
M  V30 1968 C 192.306 6.09343 2.72502 0
M  V30 1969 H 191.576 0.421006 0.609783 0
M  V30 1970 H 194.223 1.58855 1.06945 0
M  V30 1971 H 192.528 1.37752 3.66785 0
M  V30 1972 H 194.225 1.76321 3.60156 0
M  V30 1973 H 190.815 3.06342 2.99754 0
M  V30 1974 H 194.999 4.03775 2.88581 0
M  V30 1975 H 190.255 5.44681 2.77728 0
M  V30 1976 H 194.429 6.42901 2.67678 0
M  V30 1977 H 192.056 7.13712 2.61762 0
M  V30 1978 N 193.631 -1.12557 1.10312 0
M  V30 1979 C 194.561 -2.20341 0.772798 0
M  V30 1980 C 195.542 -1.68198 -0.25365 0
M  V30 1981 O 196.727 -1.93831 -0.119699 0
M  V30 1982 C 193.857 -3.46709 0.202443 0
M  V30 1983 C 192.811 -4.11996 1.15943 0
M  V30 1984 C 192.137 -5.328 0.450345 0
M  V30 1985 C 193.437 -4.5828 2.50552 0
M  V30 1986 H 195.131 -2.48229 1.674 0
M  V30 1987 H 192.677 -1.19308 0.806326 0
M  V30 1988 H 194.63 -4.2138 -0.0407752 0
M  V30 1989 H 193.354 -3.18245 -0.734001 0
M  V30 1990 H 192.013 -3.39305 1.38808 0
M  V30 1991 H 191.661 -5.00602 -0.490531 0
M  V30 1992 H 191.361 -5.7743 1.08851 0
M  V30 1993 H 192.885 -6.10219 0.215642 0
M  V30 1994 H 194.299 -5.2433 2.31843 0
M  V30 1995 H 192.696 -5.13683 3.10242 0
M  V30 1996 H 193.766 -3.72329 3.10643 0
M  V30 1997 N 195.109 -0.891671 -1.2995 0
M  V30 1998 C 196.357 -0.512486 -1.95494 0
M  V30 1999 C 196.678 0.942776 -1.70695 0
M  V30 2000 O 195.948 1.66374 -1.03424 0
M  V30 2001 H 194.528 -0.186533 -0.723336 0
M  V30 2002 H 197.19 -1.13621 -1.58355 0
M  V30 2003 H 196.286 -0.688342 -3.04415 0
M  V30 2004 N 196.587 1.43421 -0.653314 0
M  V30 2005 C 197.534 2.30768 0.0382271 0
M  V30 2006 C 198.504 1.44755 0.814576 0
M  V30 2007 O 199.689 1.73624 0.791162 0
M  V30 2008 C 196.829 3.30336 0.998599 0
M  V30 2009 C 195.942 4.31448 0.218342 0
M  V30 2010 C 195.077 5.18098 1.17252 0
M  V30 2011 C 194.116 6.10902 0.382702 0
M  V30 2012 N 193.253 6.90176 1.28848 0
M  V30 2013 H 198.093 2.89357 -0.712511 0
M  V30 2014 H 195.63 1.42548 -0.363128 0
M  V30 2015 H 197.588 3.86572 1.56901 0
M  V30 2016 H 196.218 2.73397 1.71621 0
M  V30 2017 H 195.27 3.77506 -0.46836 0
M  V30 2018 H 196.582 4.97227 -0.395812 0
M  V30 2019 H 195.736 5.7896 1.81356 0
M  V30 2020 H 194.475 4.52444 1.82058 0
M  V30 2021 H 193.48 5.49128 -0.27169 0
M  V30 2022 H 194.705 6.78598 -0.260957 0
M  V30 2023 H 192.651 6.27171 1.92334 0
M  V30 2024 H 192.568 7.52478 0.728887 0
M  V30 2025 H 193.836 7.55543 1.91766 0
M  V30 2026 N 198.065 0.39524 1.52563 0
M  V30 2027 C 198.975 -0.444232 2.30356 0
M  V30 2028 C 199.991 -1.06615 1.37511 0
M  V30 2029 O 201.167 -1.07067 1.70583 0
M  V30 2030 C 198.232 -1.55315 3.09964 0
M  V30 2031 C 197.293 -0.955734 4.18526 0
M  V30 2032 C 196.526 -2.01181 4.9433 0
M  V30 2033 O 196.749 -3.22781 4.70285 0
M  V30 2034 O 195.683 -1.62579 5.79527 0
M  V30 2035 H 199.509 0.189667 3.03107 0
M  V30 2036 H 197.094 0.1588 1.48554 0
M  V30 2037 H 198.976 -2.19724 3.59582 0
M  V30 2038 H 197.651 -2.17191 2.4002 0
M  V30 2039 H 196.558 -0.274743 3.7309 0
M  V30 2040 H 197.891 -0.381109 4.90722 0
M  V30 2041 N 199.544 -1.57102 0.125237 0
M  V30 2042 C 200.477 -2.11371 -0.860094 0
M  V30 2043 C 201.455 -1.03168 -1.25679 0
M  V30 2044 O 202.639 -1.30862 -1.35674 0
M  V30 2045 C 199.766 -2.61555 -2.1519 0
M  V30 2046 C 198.812 -3.81701 -1.9028 0
M  V30 2047 S 199.645 -5.23797 -1.11343 0
M  V30 2048 C 200.801 -5.77353 -2.41689 0
M  V30 2049 H 201.034 -2.94617 -0.39852 0
M  V30 2050 H 198.567 -1.54145 -0.0886555 0
M  V30 2051 H 200.525 -2.91122 -2.89411 0
M  V30 2052 H 199.186 -1.78479 -2.58465 0
M  V30 2053 H 198.379 -4.14985 -2.86014 0
M  V30 2054 H 197.981 -3.52783 -1.24178 0
M  V30 2055 H 200.273 -5.87458 -3.37489 0
M  V30 2056 H 201.216 -6.75323 -2.12942 0
M  V30 2057 H 201.624 -5.05457 -2.51342 0
M  V30 2058 N 201.022 0.148545 -1.56898 0
M  V30 2059 C 201.969 1.18345 -1.98149 0
M  V30 2060 C 202.939 1.42772 -0.848848 0
M  V30 2061 O 204.124 1.55132 -1.11079 0
M  V30 2062 C 201.264 2.51231 -2.36594 0
M  V30 2063 C 200.377 2.33991 -3.63142 0
M  V30 2064 C 199.512 3.59902 -3.90697 0
M  V30 2065 C 198.551 3.37692 -5.1052 0
M  V30 2066 N 197.688 4.5573 -5.34092 0
M  V30 2067 H 202.528 0.82467 -2.86362 0
M  V30 2068 H 200.065 0.395756 -1.41676 0
M  V30 2069 H 202.023 3.28713 -2.56912 0
M  V30 2070 H 200.653 2.85059 -1.51463 0
M  V30 2071 H 199.705 1.47572 -3.50609 0
M  V30 2072 H 201.017 2.13539 -4.5078 0
M  V30 2073 H 200.171 4.45813 -4.11505 0
M  V30 2074 H 198.91 3.83357 -3.01477 0
M  V30 2075 H 197.915 2.5017 -4.89587 0
M  V30 2076 H 199.14 3.15637 -6.0129 0
M  V30 2077 H 197.086 4.79361 -4.47827 0
M  V30 2078 H 197.003 4.38274 -6.15996 0
M  V30 2079 H 198.271 5.42858 -5.59397 0
M  V30 2080 N 202.5 1.5196 0.417844 0
M  V30 2081 C 203.43 1.77634 1.51554 0
M  V30 2082 C 204.411 0.626918 1.58126 0
M  V30 2083 O 205.596 0.871632 1.7354 0
M  V30 2084 C 202.726 1.91911 2.8946 0
M  V30 2085 C 201.68 3.07463 2.97743 0
M  V30 2086 C 201.006 3.06951 4.37819 0
M  V30 2087 C 202.306 4.47082 2.70027 0
M  V30 2088 H 204 2.6955 1.3032 0
M  V30 2089 H 201.546 1.29706 0.625492 0
M  V30 2090 H 203.499 2.08455 3.6623 0
M  V30 2091 H 202.223 0.966598 3.11969 0
M  V30 2092 H 200.882 2.90656 2.23416 0
M  V30 2093 H 200.53 2.09438 4.57323 0
M  V30 2094 H 200.23 3.84556 4.44286 0
M  V30 2095 H 201.754 3.25613 5.16535 0
M  V30 2096 H 203.168 4.6414 3.36522 0
M  V30 2097 H 201.565 5.2654 2.87881 0
M  V30 2098 H 202.635 4.55777 1.65514 0
M  V30 2099 N 203.978 -0.674533 1.42435 0
M  V30 2100 C 205.208 -1.46071 1.46105 0
M  V30 2101 C 205.616 -1.89067 0.0709605 0
M  V30 2102 O 204.959 -1.58731 -0.924677 0
M  V30 2103 C 205.021 -2.74145 2.32561 0
M  V30 2104 C 204.685 -2.53224 3.8043 0
M  V30 2105 C 205.682 -2.17809 4.72075 0
M  V30 2106 C 203.367 -2.6821 4.24698 0
M  V30 2107 C 205.361 -1.97648 6.05982 0
M  V30 2108 C 203.048 -2.47665 5.58664 0
M  V30 2109 C 204.046 -2.12437 6.49122 0
M  V30 2110 O 203.734 -1.9209 7.80613 0
M  V30 2111 H 203.466 -0.455959 0.499076 0
M  V30 2112 H 206.02 -0.836193 1.87609 0
M  V30 2113 H 204.25 -3.3908 1.85908 0
M  V30 2114 H 205.939 -3.36028 2.27683 0
M  V30 2115 H 206.705 -2.05826 4.39159 0
M  V30 2116 H 202.584 -2.94609 3.54579 0
M  V30 2117 H 206.128 -1.70075 6.7655 0
M  V30 2118 H 202.025 -2.59244 5.91154 0
M  V30 2119 H 202.793 -2.06686 7.91974 0
M  V30 2120 N 205.456 -1.28612 -0.910864 0
M  V30 2121 C 206.703 -1.15934 -1.66029 0
M  V30 2122 C 207.031 0.291483 -1.92303 0
M  V30 2123 O 206.286 1.22816 -1.52364 0
M  V30 2124 C 206.585 -1.90624 -3.0232 0
M  V30 2125 C 206.251 -3.40405 -2.95695 0
M  V30 2126 C 204.913 -3.81255 -2.93595 0
M  V30 2127 C 207.265 -4.359 -2.85728 0
M  V30 2128 C 204.593 -5.15936 -2.79334 0
M  V30 2129 C 206.945 -5.70657 -2.73007 0
M  V30 2130 C 205.609 -6.10779 -2.69267 0
M  V30 2131 H 204.879 -0.424234 -0.607541 0
M  V30 2132 H 207.526 -1.5942 -1.06101 0
M  V30 2133 H 205.831 -1.39696 -3.6605 0
M  V30 2134 H 207.528 -1.78228 -3.59215 0
M  V30 2135 H 204.118 -3.07927 -2.98125 0
M  V30 2136 H 208.302 -4.053 -2.86436 0
M  V30 2137 H 203.558 -5.46146 -2.74835 0
M  V30 2138 H 207.732 -6.44311 -2.64264 0
M  V30 2139 H 205.359 -7.1509 -2.57974 0
M  V30 2140 N 206.934 1.1197 -1.10907 0
M  V30 2141 C 207.897 2.16031 -0.765707 0
M  V30 2142 C 208.897 1.59393 0.212235 0
M  V30 2143 O 210.087 1.74196 -0.0115441 0
M  V30 2144 C 207.219 3.40632 -0.135053 0
M  V30 2145 H 208.412 2.47919 -1.68748 0
M  V30 2146 H 205.965 1.27061 -0.910226 0
M  V30 2147 H 206.7 3.14348 0.797218 0
M  V30 2148 H 206.485 3.8302 -0.838937 0
M  V30 2149 H 207.975 4.17505 0.0892469 0
M  V30 2150 N 208.412 0.89855 1.29475 0
M  V30 2151 C 209.344 0.332726 2.26772 0
M  V30 2152 C 210.357 -0.520323 1.54261 0
M  V30 2153 O 211.546 -0.337668 1.75277 0
M  V30 2154 C 208.646 -0.544334 3.345 0
M  V30 2155 C 207.819 0.282728 4.36485 0
M  V30 2156 C 206.878 -0.526982 5.23555 0
M  V30 2157 O 205.904 0.0551165 5.69173 0
M  V30 2158 N 207.106 -1.83331 5.5079 0
M  V30 2159 H 209.871 1.16897 2.75962 0
M  V30 2160 H 207.432 0.762919 1.42798 0
M  V30 2161 H 209.424 -1.09239 3.89678 0
M  V30 2162 H 207.994 -1.28127 2.85136 0
M  V30 2163 H 207.214 1.01221 3.80983 0
M  V30 2164 H 208.502 0.84918 5.01664 0
M  V30 2165 H 207.9 -2.32898 5.15534 0
M  V30 2166 H 206.457 -2.32852 6.08788 0
M  V30 2167 N 209.89 -1.43072 0.660911 0
M  V30 2168 C 211.118 -2.06067 0.185422 0
M  V30 2169 C 211.533 -1.49582 -1.15198 0
M  V30 2170 O 210.89 -0.630134 -1.71276 0
M  V30 2171 C 210.941 -3.61371 0.0966523 0
M  V30 2172 O 210.662 -4.15758 1.38119 0
M  V30 2173 C 212.163 -4.41455 -0.403996 0
M  V30 2174 H 209.383 -0.664459 0.0934604 0
M  V30 2175 H 211.927 -1.83447 0.90373 0
M  V30 2176 H 210.082 -3.8315 -0.572259 0
M  V30 2177 H 210.496 -5.09499 1.24542 0
M  V30 2178 H 211.97 -5.50437 -0.415045 0
M  V30 2179 H 212.447 -4.15036 -1.43674 0
M  V30 2180 H 213.053 -4.24663 0.232691 0
M  V30 2181 N 211.368 -0.403325 -1.52352 0
M  V30 2182 C 212.298 0.416205 -2.29761 0
M  V30 2183 C 213.279 1.05123 -1.33728 0
M  V30 2184 O 214.464 1.06134 -1.62632 0
M  V30 2185 C 211.594 1.53624 -3.11475 0
M  V30 2186 C 210.548 1.02653 -4.15507 0
M  V30 2187 C 209.874 2.23971 -4.85532 0
M  V30 2188 C 211.174 0.08463 -5.22231 0
M  V30 2189 H 212.868 -0.229701 -2.98518 0
M  V30 2190 H 210.414 -0.111913 -1.43564 0
M  V30 2191 H 212.367 2.1165 -3.64393 0
M  V30 2192 H 211.091 2.20994 -2.40477 0
M  V30 2193 H 209.75 0.46871 -3.63591 0
M  V30 2194 H 209.398 2.89883 -4.11068 0
M  V30 2195 H 209.098 1.90521 -5.55856 0
M  V30 2196 H 210.622 2.82614 -5.41259 0
M  V30 2197 H 212.036 0.573509 -5.70424 0
M  V30 2198 H 210.433 -0.160783 -5.99885 0
M  V30 2199 H 211.503 -0.86237 -4.7717 0
M  V30 2200 N 212.846 1.57033 -0.133567 0
M  V30 2201 C 213.796 2.12641 0.822671 0
M  V30 2202 C 214.78 1.05081 1.21847 0
M  V30 2203 O 215.972 1.31287 1.18713 0
M  V30 2204 C 213.101 2.74094 2.06706 0
M  V30 2205 C 212.187 3.88757 1.69497 0
M  V30 2206 N 212.578 4.95194 1.03037 0
M  V30 2207 C 210.876 3.99213 1.98859 0
M  V30 2208 C 211.577 5.75414 0.852873 0
M  V30 2209 N 210.553 5.25726 1.3825 0
M  V30 2210 H 214.355 2.92308 0.305537 0
M  V30 2211 H 211.869 1.62256 0.0684276 0
M  V30 2212 H 213.866 3.12285 2.76195 0
M  V30 2213 H 212.526 1.95896 2.5895 0
M  V30 2214 H 213.537 5.13247 0.692669 0
M  V30 2215 H 210.214 3.32075 2.53047 0
M  V30 2216 H 211.604 6.71089 0.330091 0
M  V30 2217 N 214.325 -0.140222 1.56975 0
M  V30 2218 C 215.574 -0.850152 1.82908 0
M  V30 2219 C 215.887 -1.82028 0.715892 0
M  V30 2220 O 217.093 -2.57485 0.861016 0
M  V30 2221 C 215.549 -1.5625 3.24213 0
M  V30 2222 C 215.157 -0.63443 4.43485 0
M  V30 2223 C 216.901 -2.25881 3.59413 0
M  V30 2224 C 214.808 -1.34879 5.75814 0
M  V30 2225 H 213.738 -0.321221 0.682153 0
M  V30 2226 H 216.389 -0.102874 1.83211 0
M  V30 2227 H 214.771 -2.35565 3.18316 0
M  V30 2228 H 215.945 0.12398 4.60633 0
M  V30 2229 H 214.26 -0.0461836 4.16374 0
M  V30 2230 H 216.857 -2.79978 4.5554 0
M  V30 2231 H 217.2 -3.02693 2.85802 0
M  V30 2232 H 217.733 -1.53477 3.67001 0
M  V30 2233 H 214.472 -0.622385 6.52539 0
M  V30 2234 H 213.992 -2.07974 5.6259 0
M  V30 2235 H 215.671 -1.88784 6.18845 0
M  V30 2236 N 215.803 -1.52179 -0.40978 0
M  V30 2237 C 217.051 -1.65878 -1.15451 0
M  V30 2238 C 217.372 -0.390771 -1.91044 0
M  V30 2239 O 216.642 0.594323 -1.86667 0
M  V30 2240 H 215.222 -0.611405 -0.429177 0
M  V30 2241 H 217.884 -1.89219 -0.467134 0
M  V30 2242 H 216.98 -2.49954 -1.86894 0
M  V30 2243 N 217.281 0.66697 -1.42791 0
M  V30 2244 C 218.506 1.46004 -1.47301 0
M  V30 2245 C 218.931 1.87894 -0.0880317 0
M  V30 2246 O 218.289 1.56502 0.915253 0
M  V30 2247 C 218.337 2.68031 -2.41229 0
M  V30 2248 O 217.441 3.6659 -1.88906 0
M  V30 2249 H 216.782 0.43832 -0.49877 0
M  V30 2250 H 219.312 0.817391 -1.87563 0
M  V30 2251 H 219.322 3.1601 -2.58073 0
M  V30 2252 H 217.997 2.36883 -3.41847 0
M  V30 2253 H 216.574 3.25661 -1.81656 0
M  V30 2254 N 218.759 1.29093 0.90403 0
M  V30 2255 C 219.984 1.19809 1.69294 0
M  V30 2256 C 220.409 -0.238481 1.86582 0
M  V30 2257 O 219.767 -1.1723 1.383 0
M  V30 2258 C 219.815 1.91202 3.05736 0
M  V30 2259 O 218.919 1.22611 3.93752 0
M  V30 2260 H 218.26 0.415385 0.518027 0
M  V30 2261 H 220.79 1.70586 1.12967 0
M  V30 2262 H 220.8 1.99487 3.55906 0
M  V30 2263 H 219.475 2.95692 2.92471 0
M  V30 2264 H 218.052 1.22554 3.52186 0
M  V30 2265 N 220.237 -1.11381 1.11499 0
M  V30 2266 C 221.187 -2.15555 0.74298 0
M  V30 2267 C 222.171 -1.58894 -0.253276 0
M  V30 2268 O 223.363 -1.76897 -0.0602918 0
M  V30 2269 C 220.492 -3.42782 0.188481 0
M  V30 2270 C 219.578 -4.064 1.21244 0
M  V30 2271 N 219.969 -4.44864 2.40685 0
M  V30 2272 C 218.267 -4.3333 1.05552 0
M  V30 2273 C 218.968 -4.94715 3.05994 0
M  V30 2274 N 217.944 -4.90909 2.33472 0
M  V30 2275 H 221.746 -2.43074 1.65203 0
M  V30 2276 H 219.26 -1.28401 0.994329 0
M  V30 2277 H 221.257 -4.16789 -0.0961693 0
M  V30 2278 H 219.917 -3.16727 -0.715149 0
M  V30 2279 H 220.928 -4.36876 2.78136 0
M  V30 2280 H 217.605 -4.1698 0.208372 0
M  V30 2281 H 218.995 -5.34103 4.07656 0
M  V30 2282 N 221.715 -0.905404 -1.28997 0
M  V30 2283 C 222.645 -0.404212 -2.29975 0
M  V30 2284 C 223.626 0.523784 -1.61835 0
M  V30 2285 O 224.811 0.433298 -1.89304 0
M  V30 2286 C 221.941 0.364042 -3.45387 0
M  V30 2287 C 220.895 -0.474048 -4.25367 0
M  V30 2288 C 220.221 0.422045 -5.33032 0
M  V30 2289 C 221.521 -1.72696 -4.92923 0
M  V30 2290 H 223.215 -1.24807 -2.72146 0
M  V30 2291 H 220.761 -0.601585 -1.30832 0
M  V30 2292 H 222.714 0.725447 -4.15109 0
M  V30 2293 H 221.438 1.24174 -3.02074 0
M  V30 2294 H 220.097 -0.81786 -3.57361 0
M  V30 2295 H 219.745 1.29804 -4.85963 0
M  V30 2296 H 219.445 -0.135057 -5.87445 0
M  V30 2297 H 220.969 0.779517 -6.05604 0
M  V30 2298 H 222.383 -1.43495 -5.55051 0
M  V30 2299 H 220.78 -2.22582 -5.57295 0
M  V30 2300 H 221.85 -2.45964 -4.17887 0
M  V30 2301 N 223.193 1.4272 -0.668489 0
M  V30 2302 C 224.156 2.292 0.00448567 0
M  V30 2303 C 225.156 1.43001 0.735339 0
M  V30 2304 O 226.346 1.64461 0.57429 0
M  V30 2305 C 223.478 3.25375 1.01705 0
M  V30 2306 H 224.671 2.90199 -0.756608 0
M  V30 2307 H 222.224 1.50254 -0.430506 0
M  V30 2308 H 222.959 2.69301 1.80686 0
M  V30 2309 H 222.744 3.88944 0.496463 0
M  V30 2310 H 224.234 3.90245 1.48655 0
M  V30 2311 N 224.671 0.411399 1.52136 0
M  V30 2312 C 226.082 -0.0576826 1.86611 0
M  V30 2313 C 226.433 -1.44238 1.33003 0
M  V30 2314 O 225.558 -2.05759 0.670228 0
M  V30 2315 C 226.153 -0.111448 3.38617 0
M  V30 2316 C 224.712 -0.52487 3.72723 0
M  V30 2317 C 223.859 0.299176 2.75681 0
M  V30 2318 H 226.81 0.628368 1.4573 0
M  V30 2319 H 226.831 -0.926252 3.69054 0
M  V30 2320 H 226.343 0.896488 3.77604 0
M  V30 2321 H 224.444 -1.53936 3.39315 0
M  V30 2322 H 224.557 -0.267681 4.78352 0
M  V30 2323 H 222.921 -0.238814 2.53578 0
M  V30 2324 H 223.704 1.3055 3.17508 0
M  V30 2325 N 226.149 -1.5696 0.141893 0
M  V30 2326 C 227.56 -1.82797 -0.379776 0
M  V30 2327 C 227.911 -1.06033 -1.6508 0
M  V30 2328 O 227.036 -0.304011 -2.14254 0
M  V30 2329 C 227.631 -3.31578 -0.695802 0
M  V30 2330 C 226.19 -3.58014 -1.16201 0
M  V30 2331 C 225.337 -2.76699 -0.182455 0
M  V30 2332 H 228.288 -1.54406 0.366675 0
M  V30 2333 H 228.309 -3.47454 -1.55099 0
M  V30 2334 H 227.821 -3.87421 0.229449 0
M  V30 2335 H 225.922 -3.07553 -2.10338 0
M  V30 2336 H 226.035 -4.66501 -1.09151 0
M  V30 2337 H 224.399 -2.45618 -0.674072 0
M  V30 2338 H 225.182 -3.35311 0.736297 0
M  V30 2339 N 227.627 0.131896 -1.57047 0
M  V30 2340 C 228.575 1.18146 -2.0036 0
M  V30 2341 C 229.569 1.43614 -0.898406 0
M  V30 2342 O 230.775 1.43729 -1.08361 0
M  V30 2343 H 227.15 0.398042 -0.638018 0
M  V30 2344 H 229.121 0.789564 -2.87765 0
M  V30 2345 C 227.87 2.50341 -2.41298 0
M  V30 2346 H 227.193 2.31578 -3.25902 0
M  V30 2347 H 228.633 3.22371 -2.75414 0
M  V30 2348 C 227.092 3.11984 -1.27153 0
M  V30 2349 O 227.622 3.97484 -0.580459 0
M  V30 2350 N 225.828 2.71662 -1.03189 0
M  V30 2351 H 225.375 2.02231 -1.59564 0
M  V30 2352 H 225.333 3.13238 -0.270077 0
M  V30 2353 N 229.106 1.52395 0.401703 0
M  V30 2354 C 230.517 1.58899 0.980202 0
M  V30 2355 C 230.868 0.434032 1.91339 0
M  V30 2356 O 229.993 -0.444619 2.11783 0
M  V30 2357 C 230.588 2.87994 1.78451 0
M  V30 2358 C 229.147 2.96953 2.31292 0
M  V30 2359 C 228.294 2.53903 1.11483 0
M  V30 2360 H 231.245 1.57657 0.18168 0
M  V30 2361 H 231.266 2.73765 2.64259 0
M  V30 2362 H 230.778 3.72035 1.10506 0
M  V30 2363 H 228.879 2.17422 3.02586 0
M  V30 2364 H 228.992 4.01344 2.61649 0
M  V30 2365 H 227.356 2.07925 1.47104 0
M  V30 2366 H 228.139 3.40326 0.450928 0
M  V30 2367 N 230.584 -0.659388 1.43143 0
M  V30 2368 C 231.861 -1.41627 1.34912 0
M  V30 2369 C 232.241 -2.11099 -0.00607785 0
M  V30 2370 O 231.589 -2.04353 -1.02236 0
M  V30 2371 C 231.799 -2.40604 2.52805 0
M  V30 2372 C 233.147 -3.04789 2.95616 0
M  V30 2373 O 234.171 -2.50932 2.52807 0
M  V30 2374 O 233.03 -4.02421 3.69756 0
M  V30 2375 H 230.124 -0.63246 0.532844 0
M  V30 2376 H 232.67 -0.686814 1.5518 0
M  V30 2377 H 231.442 -1.88174 3.43083 0
M  V30 2378 H 231.065 -3.21009 2.34604 0
M  V30 2379 N 232.062 -1.29571 -0.897171 0
M  V30 2380 C 233.009 -1.14916 -2.00158 0
M  V30 2381 C 233.979 -0.0418149 -1.66047 0
M  V30 2382 O 235.164 -0.209793 -1.89643 0
M  V30 2383 C 232.304 -0.834307 -3.34863 0
M  V30 2384 C 231.417 -2.02234 -3.8174 0
M  V30 2385 C 230.552 -1.64664 -5.05034 0
M  V30 2386 C 229.591 -2.80033 -5.44286 0
M  V30 2387 N 228.728 -2.42843 -6.58765 0
M  V30 2388 H 233.568 -2.09403 -2.12025 0
M  V30 2389 H 231.105 -1.042 -1.0383 0
M  V30 2390 H 233.063 -0.632436 -4.12379 0
M  V30 2391 H 231.693 0.0736656 -3.22716 0
M  V30 2392 H 230.745 -2.33583 -3.00238 0
M  V30 2393 H 232.057 -2.88673 -4.06779 0
M  V30 2394 H 231.211 -1.4078 -5.9014 0
M  V30 2395 H 229.95 -0.753766 -4.8184 0
M  V30 2396 H 228.955 -3.04596 -4.57713 0
M  V30 2397 H 230.18 -3.69989 -5.6946 0
M  V30 2398 H 228.126 -1.56046 -6.3717 0
M  V30 2399 H 228.043 -3.22815 -6.83613 0
M  V30 2400 H 229.311 -2.22285 -7.47134 0
M  V30 2401 N 233.54 1.10788 -1.12088 0
M  V30 2402 C 234.472 2.16816 -0.743213 0
M  V30 2403 C 235.485 1.6119 0.228412 0
M  V30 2404 O 236.674 1.78497 0.0102931 0
M  V30 2405 C 233.774 3.38809 -0.0787313 0
M  V30 2406 C 232.947 4.23885 -1.0789 0
M  V30 2407 C 232.006 5.24334 -0.442713 0
M  V30 2408 O 231.032 5.58497 -1.09864 0
M  V30 2409 N 232.234 5.75079 0.791457 0
M  V30 2410 H 234.999 2.49825 -1.65552 0
M  V30 2411 H 232.56 1.26373 -1.012 0
M  V30 2412 H 234.552 4.03107 0.358766 0
M  V30 2413 H 233.122 3.03805 0.736275 0
M  V30 2414 H 232.342 3.55939 -1.69414 0
M  V30 2415 H 233.63 4.77562 -1.75533 0
M  V30 2416 H 233.028 5.49517 1.3434 0
M  V30 2417 H 231.585 6.4118 1.17183 0
M  V30 2418 N 235.018 0.912232 1.28515 0
M  V30 2419 C 236.265 0.544599 1.95039 0
M  V30 2420 C 236.593 -0.911435 1.71823 0
M  V30 2421 O 235.848 -1.66317 1.03137 0
M  V30 2422 C 236.147 0.798392 3.48368 0
M  V30 2423 C 235.813 2.23374 3.91682 0
M  V30 2424 C 234.475 2.62617 4.03219 0
M  V30 2425 C 236.827 3.16786 4.13879 0
M  V30 2426 C 234.155 3.94429 4.3433 0
M  V30 2427 C 236.507 4.48161 4.46469 0
M  V30 2428 C 235.171 4.8726 4.56217 0
M  V30 2429 H 234.441 0.199283 0.7137 0
M  V30 2430 H 237.088 1.15327 1.52879 0
M  V30 2431 H 235.393 0.106908 3.91654 0
M  V30 2432 H 237.09 0.493141 3.97956 0
M  V30 2433 H 233.68 1.91922 3.83228 0
M  V30 2434 H 237.864 2.87677 4.0442 0
M  V30 2435 H 233.12 4.24426 4.40082 0
M  V30 2436 H 237.294 5.20559 4.62592 0
M  V30 2437 H 234.921 5.89431 4.80078 0
M  V30 2438 N 236.496 -1.42363 0.676048 0
M  V30 2439 C 237.426 -2.33497 0.0124832 0
M  V30 2440 C 238.407 -1.50748 -0.787981 0
M  V30 2441 O 239.592 -1.79346 -0.744884 0
M  V30 2442 C 236.722 -3.34377 -0.938582 0
M  V30 2443 C 235.676 -4.27289 -0.246622 0
M  V30 2444 C 235.002 -5.18386 -1.31071 0
M  V30 2445 C 236.302 -5.14916 0.875125 0
M  V30 2446 H 237.996 -2.89233 0.773593 0
M  V30 2447 H 235.542 -1.39073 0.37346 0
M  V30 2448 H 237.495 -3.97044 -1.41188 0
M  V30 2449 H 236.219 -2.76947 -1.73113 0
M  V30 2450 H 234.878 -3.66018 0.206456 0
M  V30 2451 H 234.526 -4.57282 -2.09528 0
M  V30 2452 H 234.226 -5.81378 -0.852839 0
M  V30 2453 H 235.75 -5.83929 -1.78492 0
M  V30 2454 H 237.164 -5.71262 0.482983 0
M  V30 2455 H 235.561 -5.86747 1.25887 0
M  V30 2456 H 236.631 -4.53242 1.72335 0
M  V30 2457 N 237.974 -0.419461 -1.51915 0
M  V30 2458 C 239.223 0.154346 -2.01109 0
M  V30 2459 C 239.536 1.45338 -1.30905 0
M  V30 2460 O 240.742 2.10906 -1.7097 0
M  V30 2461 C 239.198 0.325615 -3.58424 0
M  V30 2462 C 238.806 -0.961934 -4.37551 0
M  V30 2463 C 240.55 0.854155 -4.15818 0
M  V30 2464 C 238.457 -0.757287 -5.86531 0
M  V30 2465 H 237.387 0.0614563 -0.751491 0
M  V30 2466 H 240.038 -0.54649 -1.75173 0
M  V30 2467 H 238.42 1.08903 -3.80731 0
M  V30 2468 H 239.594 -1.7323 -4.26999 0
M  V30 2469 H 237.909 -1.41766 -3.91524 0
M  V30 2470 H 240.506 1.02346 -5.24814 0
M  V30 2471 H 240.849 1.83172 -3.73837 0
M  V30 2472 H 241.382 0.149528 -3.97519 0
M  V30 2473 H 238.121 -1.70671 -6.32892 0
M  V30 2474 H 237.641 -0.0264061 -5.99794 0
M  V30 2475 H 239.32 -0.403482 -6.45741 0
M  V30 2476 N 239.452 1.56882 -0.150215 0
M  V30 2477 C 240.677 2.01027 0.510184 0
M  V30 2478 C 241.102 1.02966 1.57415 0
M  V30 2479 O 240.46 0.00590158 1.81299 0
M  V30 2480 C 240.508 3.43899 1.08472 0
M  V30 2481 O 239.612 3.4885 2.19948 0
M  V30 2482 H 238.953 0.652233 0.124451 0
M  V30 2483 H 241.483 2.03093 -0.247894 0
M  V30 2484 H 241.493 3.82766 1.41259 0
M  V30 2485 H 240.168 4.14776 0.305582 0
M  V30 2486 H 238.745 3.21827 1.88366 0
M  V30 2487 N 240.93 -0.123565 1.57115 0
M  V30 2488 C 242.341 -0.681198 1.73829 0
M  V30 2489 C 242.692 -1.80535 0.768214 0
M  V30 2490 O 241.817 -2.16317 -0.0599103 0
M  V30 2491 C 242.412 -1.24246 3.15196 0
M  V30 2492 C 240.971 -1.74643 3.33432 0
M  V30 2493 C 240.118 -0.644284 2.69711 0
M  V30 2494 H 243.069 0.102315 1.5837 0
M  V30 2495 H 243.09 -2.11216 3.16493 0
M  V30 2496 H 242.602 -0.424062 3.85776 0
M  V30 2497 H 240.703 -2.58974 2.67886 0
M  V30 2498 H 240.816 -1.85902 4.41562 0
M  V30 2499 H 239.18 -1.07676 2.3082 0
M  V30 2500 H 239.963 0.163058 3.42913 0
M  V30 2501 N 242.408 -1.52605 -0.393616 0
M  V30 2502 C 243.819 -1.59417 -0.971761 0
M  V30 2503 C 244.17 -0.444173 -1.91106 0
M  V30 2504 O 243.295 0.433382 -2.12016 0
M  V30 2505 C 243.89 -2.88936 -1.76921 0
M  V30 2506 C 242.449 -2.98175 -2.29714 0
M  V30 2507 C 241.596 -2.54491 -1.10135 0
M  V30 2508 H 244.547 -1.57751 -0.173317 0
M  V30 2509 H 244.568 -2.75163 -2.62804 0
M  V30 2510 H 244.08 -3.72616 -1.08532 0
M  V30 2511 H 242.181 -2.19024 -3.01429 0
M  V30 2512 H 242.294 -4.02726 -2.59517 0
M  V30 2513 H 240.658 -2.08702 -1.45999 0
M  V30 2514 H 241.441 -3.4056 -0.432874 0
M  V30 2515 N 243.887 0.651787 -1.4349 0
M  V30 2516 C 244.85 1.74647 -1.48429 0
M  V30 2517 C 245.85 1.56513 -0.368817 0
M  V30 2518 O 247.04 1.62385 -0.630623 0
M  V30 2519 C 244.172 3.13533 -1.33827 0
M  V30 2520 H 245.365 1.71649 -2.4592 0
M  V30 2521 H 242.918 0.863573 -1.30277 0
M  V30 2522 H 243.653 3.22142 -0.37349 0
M  V30 2523 H 243.438 3.28101 -2.14691 0
M  V30 2524 H 244.928 3.93356 -1.40218 0
M  V30 2525 N 245.365 1.30045 0.890287 0
M  V30 2526 C 246.59 1.21598 1.68014 0
M  V30 2527 C 247.015 -0.218678 1.86825 0
M  V30 2528 O 246.373 -1.15756 1.39536 0
M  V30 2529 C 246.421 1.94434 3.03691 0
M  V30 2530 O 245.525 1.2678 3.92429 0
M  V30 2531 H 244.866 0.420856 0.513592 0
M  V30 2532 H 247.396 1.71775 1.11151 0
M  V30 2533 H 247.406 2.03251 3.5377 0
M  V30 2534 H 246.081 2.98777 2.89318 0
M  V30 2535 H 244.658 1.26282 3.50866 0
M  V30 2536 N 246.843 -1.10192 1.12674 0
M  V30 2537 C 248.254 -1.63707 0.897604 0
M  V30 2538 C 248.605 -1.87812 -0.567546 0
M  V30 2539 O 247.73 -1.62196 -1.43253 0
M  V30 2540 C 248.325 -2.974 1.62292 0
M  V30 2541 C 246.884 -3.47772 1.43986 0
M  V30 2542 C 246.031 -2.22332 1.65722 0
M  V30 2543 H 248.982 -0.936587 1.28116 0
M  V30 2544 H 249.003 -3.64986 1.07541 0
M  V30 2545 H 248.515 -2.79824 2.68924 0
M  V30 2546 H 246.616 -3.70487 0.396206 0
M  V30 2547 H 246.729 -4.25723 2.19765 0
M  V30 2548 H 245.093 -2.30599 1.08149 0
M  V30 2549 H 245.876 -2.07285 2.73657 0
M  V30 2550 N 248.321 -0.919034 -1.28029 0
M  V30 2551 C 249.732 -0.600735 -1.76771 0
M  V30 2552 C 250.083 0.884024 -1.75156 0
M  V30 2553 O 249.208 1.69163 -1.34956 0
M  V30 2554 C 249.803 -1.08372 -3.21 0
M  V30 2555 C 248.362 -0.816248 -3.67443 0
M  V30 2556 C 247.509 -1.24742 -2.47658 0
M  V30 2557 H 250.46 -1.09974 -1.14418 0
M  V30 2558 H 250.481 -0.427512 -3.78091 0
M  V30 2559 H 249.993 -2.16437 -3.22144 0
M  V30 2560 H 248.094 0.250968 -3.71754 0
M  V30 2561 H 248.207 -1.4277 -4.57333 0
M  V30 2562 H 246.571 -0.666083 -2.45836 0
M  V30 2563 H 247.354 -2.33653 -2.51518 0
M  V30 2564 N 249.799 1.42003 -0.683588 0
M  V30 2565 C 251.045 2.01712 -0.209825 0
M  V30 2566 C 251.378 1.53968 1.18353 0
M  V30 2567 O 250.653 0.745661 1.79639 0
M  V30 2568 C 250.936 3.59202 -0.254197 0
M  V30 2569 C 250.789 4.17102 -1.68363 0
M  V30 2570 C 252.108 4.38344 0.392709 0
M  V30 2571 H 249.227 0.732891 -0.0777189 0
M  V30 2572 H 251.869 1.68909 -0.87004 0
M  V30 2573 H 250.019 3.87278 0.307954 0
M  V30 2574 H 251.691 3.99946 -2.29871 0
M  V30 2575 H 249.934 3.72597 -2.22157 0
M  V30 2576 H 250.605 5.26249 -1.6663 0
M  V30 2577 H 253.081 4.16011 -0.0859162 0
M  V30 2578 H 251.957 5.47901 0.331063 0
M  V30 2579 H 252.218 4.16887 1.47164 0
M  V30 2580 N 251.277 0.427512 1.51691 0
M  V30 2581 C 252.525 -0.141948 2.01601 0
M  V30 2582 C 252.846 -1.44067 1.31414 0
M  V30 2583 O 252.116 -1.90763 0.445658 0
M  V30 2584 H 250.696 -0.0554468 0.744939 0
M  V30 2585 H 253.358 0.567968 1.86441 0
M  V30 2586 H 252.454 -0.324913 3.10404 0
M  V30 2587 N 252.755 -1.56801 0.158532 0
M  V30 2588 C 254.001 -1.97559 -0.483957 0
M  V30 2589 C 254.356 -1.04239 -1.61716 0
M  V30 2590 O 253.649 -0.079603 -1.91435 0
M  V30 2591 C 253.843 -3.4235 -1.02623 0
M  V30 2592 C 253.672 -4.49669 0.0528929 0
M  V30 2593 C 252.442 -5.02838 0.498234 0
M  V30 2594 C 254.64 -5.0725 0.848616 0
M  V30 2595 N 252.622 -5.93775 1.559 0
M  V30 2596 C 253.993 -5.94506 1.7596 0
M  V30 2597 C 256.048 -4.89788 0.895121 0
M  V30 2598 C 254.751 -6.66169 2.71314 0
M  V30 2599 C 256.777 -5.62161 1.83654 0
M  V30 2600 C 256.139 -6.49134 2.73503 0
M  V30 2601 H 252.238 -0.768332 -0.145566 0
M  V30 2602 H 254.822 -1.93012 0.255799 0
M  V30 2603 H 252.993 -3.47467 -1.73555 0
M  V30 2604 H 254.725 -3.70145 -1.63629 0
M  V30 2605 H 251.48 -4.73498 0.0983222 0
M  V30 2606 H 251.904 -6.43948 2.08949 0
M  V30 2607 H 256.546 -4.22255 0.21453 0
M  V30 2608 H 254.264 -7.32923 3.40367 0
M  V30 2609 H 257.85 -5.5064 1.87847 0
M  V30 2610 H 256.73 -7.04153 3.45163 0
M  V30 2611 N 254.233 0.115231 -1.57178 0
M  V30 2612 C 255.18 1.14115 -2.00615 0
M  V30 2613 C 256.15 1.40939 -0.878941 0
M  V30 2614 O 257.335 1.52741 -1.14345 0
M  V30 2615 C 254.475 2.46156 -2.4187 0
M  V30 2616 C 253.588 2.26236 -3.68024 0
M  V30 2617 C 252.723 3.51534 -3.98243 0
M  V30 2618 C 251.762 3.26787 -5.17568 0
M  V30 2619 N 250.899 4.44298 -5.43639 0
M  V30 2620 H 255.739 0.763743 -2.88047 0
M  V30 2621 H 253.276 0.365615 -1.42484 0
M  V30 2622 H 255.234 3.23189 -2.63827 0
M  V30 2623 H 253.864 2.81783 -1.57475 0
M  V30 2624 H 252.916 1.40102 -3.5366 0
M  V30 2625 H 254.228 2.03929 -4.55208 0
M  V30 2626 H 253.382 4.36984 -4.20868 0
M  V30 2627 H 252.121 3.76876 -3.09541 0
M  V30 2628 H 251.126 2.39729 -4.94783 0
M  V30 2629 H 252.351 3.02812 -6.0785 0
M  V30 2630 H 250.297 4.69754 -4.57895 0
M  V30 2631 H 250.214 4.25109 -6.25154 0
M  V30 2632 H 251.482 5.3087 -5.70786 0
M  V30 2633 N 255.711 1.52812 0.385517 0
M  V30 2634 C 256.643 1.74096 1.49074 0
M  V30 2635 C 257.656 0.621462 1.50472 0
M  V30 2636 O 258.845 0.897245 1.54311 0
M  V30 2637 C 255.945 1.78774 2.87911 0
M  V30 2638 C 255.118 3.08134 3.10439 0
M  V30 2639 C 254.177 3.04313 4.29278 0
M  V30 2640 O 253.203 3.78168 4.25415 0
M  V30 2641 N 254.405 2.23741 5.35649 0
M  V30 2642 H 257.17 2.69455 1.31202 0
M  V30 2643 H 254.731 1.51343 0.575065 0
M  V30 2644 H 256.723 1.73721 3.65518 0
M  V30 2645 H 255.293 0.907869 2.99126 0
M  V30 2646 H 254.513 3.26649 2.20667 0
M  V30 2647 H 255.801 3.93662 3.22347 0
M  V30 2648 H 255.199 1.63211 5.41645 0
M  V30 2649 H 253.756 2.24524 6.11909 0
M  V30 2650 N 257.189 -0.644168 1.43834 0
M  V30 2651 C 258.435 -1.40603 1.46146 0
M  V30 2652 C 258.768 -1.93997 0.0887717 0
M  V30 2653 O 258.043 -1.72854 -0.891724 0
M  V30 2654 C 258.326 -2.58086 2.51124 0
M  V30 2655 C 258.179 -2.10126 3.97702 0
M  V30 2656 C 259.498 -3.60291 2.52742 0
M  V30 2657 H 256.617 -0.509905 0.532134 0
M  V30 2658 H 259.259 -0.729502 1.75437 0
M  V30 2659 H 257.409 -3.15801 2.26278 0
M  V30 2660 H 259.081 -1.57342 4.33637 0
M  V30 2661 H 257.324 -1.41419 4.10101 0
M  V30 2662 H 257.995 -2.94649 4.66783 0
M  V30 2663 H 260.471 -3.12352 2.7491 0
M  V30 2664 H 259.347 -4.40032 3.28121 0
M  V30 2665 H 259.608 -4.1349 1.56455 0
M  V30 2666 N 258.668 -1.30515 -0.883378 0
M  V30 2667 C 259.578 -1.18959 -2.02203 0
M  V30 2668 C 260.594 -0.109172 -1.73657 0
M  V30 2669 O 261.77 -0.324413 -1.9877 0
M  V30 2670 C 258.835 -0.883871 -3.35244 0
M  V30 2671 C 257.896 -2.04982 -3.77201 0
M  V30 2672 C 257.129 -1.75859 -5.03894 0
M  V30 2673 O 257.352 -0.687276 -5.66244 0
M  V30 2674 O 256.286 -2.61146 -5.42297 0
M  V30 2675 H 260.112 -2.14616 -2.1488 0
M  V30 2676 H 257.697 -1.10124 -1.0096 0
M  V30 2677 H 259.579 -0.728644 -4.15053 0
M  V30 2678 H 258.254 0.0427798 -3.23672 0
M  V30 2679 H 257.161 -2.26038 -2.9809 0
M  V30 2680 H 258.494 -2.95825 -3.93381 0
M  V30 2681 N 260.146 1.09593 -1.13257 0
M  V30 2682 C 261.423 1.78293 -0.804432 0
M  V30 2683 C 261.803 1.99004 0.70431 0
M  V30 2684 O 261.151 1.59007 1.641 0
M  V30 2685 C 261.361 3.10707 -1.5894 0
M  V30 2686 C 262.709 3.85443 -1.78099 0
M  V30 2687 O 263.733 3.20454 -1.55525 0
M  V30 2688 O 262.592 5.02108 -2.15753 0
M  V30 2689 H 259.686 0.773156 -0.293528 0
M  V30 2690 H 262.232 1.16164 -1.23709 0
M  V30 2691 H 261.004 2.91106 -2.61482 0
M  V30 2692 H 260.627 3.80558 -1.15157 0
M  V30 2693 N 261.624 0.925811 1.2754 0
M  V30 2694 C 262.587 0.428129 2.25166 0
M  V30 2695 C 263.587 -0.452261 1.54309 0
M  V30 2696 O 264.777 -0.253608 1.72344 0
M  V30 2697 C 261.909 -0.384749 3.38722 0
M  V30 2698 H 263.102 1.29066 2.70706 0
M  V30 2699 H 260.655 0.706323 1.3943 0
M  V30 2700 H 261.39 -1.26618 2.98561 0
M  V30 2701 H 261.175 0.246454 3.91325 0
M  V30 2702 H 262.665 -0.723389 4.11287 0
M  V30 2703 N 263.102 -1.41638 0.69111 0
M  V30 2704 C 264.33 -2.05628 0.22909 0
M  V30 2705 C 264.745 -1.51992 -1.11999 0
M  V30 2706 O 264.102 -0.666322 -1.69901 0
M  V30 2707 C 264.153 -3.61084 0.173283 0
M  V30 2708 O 263.874 -4.12735 1.46907 0
M  V30 2709 C 265.375 -4.42213 -0.310266 0
M  V30 2710 H 262.595 -0.662327 0.107534 0
M  V30 2711 H 265.139 -1.81489 0.942438 0
M  V30 2712 H 263.294 -3.84278 -0.490858 0
M  V30 2713 H 263.708 -5.06743 1.35322 0
M  V30 2714 H 265.182 -5.51194 -0.298196 0
M  V30 2715 H 265.659 -4.1799 -1.34838 0
M  V30 2716 H 266.265 -4.24074 0.322716 0
M  V30 2717 N 264.58 -0.43555 -1.51462 0
M  V30 2718 C 265.991 0.0279871 -1.86679 0
M  V30 2719 C 266.342 1.42104 -1.35281 0
M  V30 2720 O 265.467 2.04667 -0.702878 0
M  V30 2721 C 266.062 0.0575626 -3.38751 0
M  V30 2722 C 264.621 0.465507 -3.7351 0
M  V30 2723 C 263.768 -0.342996 -2.75171 0
M  V30 2724 H 266.719 -0.651473 -1.44712 0
M  V30 2725 H 266.74 0.867421 -3.70481 0
M  V30 2726 H 266.252 -0.956448 -3.7613 0
M  V30 2727 H 264.353 1.48519 -3.41721 0
M  V30 2728 H 264.466 0.191546 -4.78717 0
M  V30 2729 H 262.83 0.198442 -2.53926 0
M  V30 2730 H 263.613 -1.35585 -3.15391 0
M  V30 2731 N 266.058 1.56714 -0.166846 0
M  V30 2732 C 267.304 1.97039 0.479962 0
M  V30 2733 C 267.637 1.05264 1.63197 0
M  V30 2734 O 266.912 0.0988833 1.94248 0
M  V30 2735 C 267.195 3.46867 0.967212 0
M  V30 2736 C 267.048 4.49421 -0.18466 0
M  V30 2737 C 268.367 3.9968 1.84238 0
M  V30 2738 H 265.486 0.71641 0.172992 0
M  V30 2739 H 268.128 1.8832 -0.252079 0
M  V30 2740 H 266.278 3.54428 1.59101 0
M  V30 2741 H 267.95 4.53924 -0.821621 0
M  V30 2742 H 266.193 4.25573 -0.840837 0
M  V30 2743 H 266.864 5.51644 0.198317 0
M  V30 2744 H 269.34 3.94723 1.31655 0
M  V30 2745 H 268.216 5.04941 2.15234 0
M  V30 2746 H 268.477 3.43226 2.78654 0
M  V30 2747 N 267.536 -0.106894 1.57237 0
M  V30 2748 C 268.785 -0.811163 1.8467 0
M  V30 2749 C 269.098 -1.80469 0.754342 0
M  V30 2750 O 270.304 -2.55601 0.915439 0
M  V30 2751 C 268.76 -1.49337 3.27454 0
M  V30 2752 C 268.368 -0.540217 4.44731 0
M  V30 2753 C 270.112 -2.18206 3.64124 0
M  V30 2754 C 268.019 -1.22634 5.78545 0
M  V30 2755 H 266.949 -0.306679 0.688813 0
M  V30 2756 H 269.6 -0.0639887 1.83388 0
M  V30 2757 H 267.982 -2.2876 3.23241 0
M  V30 2758 H 269.156 0.221659 4.60267 0
M  V30 2759 H 267.471 0.042146 4.16379 0
M  V30 2760 H 270.068 -2.70253 4.61376 0
M  V30 2761 H 270.411 -2.96562 2.92158 0
M  V30 2762 H 270.944 -1.45658 3.70174 0
M  V30 2763 H 267.683 -0.483832 6.53712 0
M  V30 2764 H 267.203 -1.95993 5.66874 0
M  V30 2765 H 268.882 -1.75615 6.2271 0
M  V30 2766 N 269.014 -1.53014 -0.377408 0
M  V30 2767 C 269.962 -1.7927 -1.48206 0
M  V30 2768 C 270.956 -0.661195 -1.55963 0
M  V30 2769 O 272.162 -0.843908 -1.58991 0
M  V30 2770 H 268.537 -0.567425 -0.493491 0
M  V30 2771 H 270.508 -2.71753 -1.2326 0
M  V30 2772 C 269.257 -1.98894 -2.85196 0
M  V30 2773 H 268.58 -2.85395 -2.79981 0
M  V30 2774 H 270.02 -2.21249 -3.61698 0
M  V30 2775 C 268.479 -0.764691 -3.28107 0
M  V30 2776 O 269.009 0.0523226 -4.01666 0
M  V30 2777 N 267.215 -0.591493 -2.84517 0
M  V30 2778 H 266.762 -1.25749 -2.24822 0
M  V30 2779 H 266.72 0.226253 -3.13585 0
M  V30 2780 N 270.492 0.636531 -1.44174 0
M  V30 2781 C 271.722 1.42146 -1.49927 0
M  V30 2782 C 272.13 1.88812 -0.121063 0
M  V30 2783 O 271.473 1.61126 0.882267 0
M  V30 2784 C 271.535 2.67883 -2.39748 0
M  V30 2785 C 271.199 2.43048 -3.8701 0
M  V30 2786 C 272.196 2.05216 -4.77684 0
M  V30 2787 C 269.881 2.56856 -4.3166 0
M  V30 2788 C 271.875 1.81512 -6.11009 0
M  V30 2789 C 269.562 2.32766 -5.65034 0
M  V30 2790 C 270.56 1.95152 -6.54526 0
M  V30 2791 O 270.248 1.71326 -7.85431 0
M  V30 2792 H 269.98 0.442567 -0.51099 0
M  V30 2793 H 272.534 0.786158 -1.8976 0
M  V30 2794 H 270.764 3.34032 -1.94832 0
M  V30 2795 H 272.453 3.29874 -2.36513 0
M  V30 2796 H 273.219 1.94111 -4.44462 0
M  V30 2797 H 269.098 2.85104 -3.62266 0
M  V30 2798 H 272.642 1.52077 -6.80822 0
M  V30 2799 H 268.539 2.43479 -5.97819 0
M  V30 2800 H 269.307 1.85616 -7.97176 0
M  V30 2801 N 271.97 1.30982 0.876444 0
M  V30 2802 C 273.247 1.10942 1.61094 0
M  V30 2803 C 273.627 -0.338223 2.08373 0
M  V30 2804 O 272.975 -1.33122 1.85717 0
M  V30 2805 C 273.185 2.11789 2.77392 0
M  V30 2806 C 274.533 2.43965 3.47514 0
M  V30 2807 O 275.557 2.10166 2.87591 0
M  V30 2808 O 274.416 3.01817 4.55597 0
M  V30 2809 H 271.51 0.42667 0.708436 0
M  V30 2810 H 274.056 1.42438 0.922474 0
M  V30 2811 H 272.828 3.09194 2.39823 0
M  V30 2812 H 272.451 1.81161 3.5393 0
M  V30 2813 N 273.449 -1.08991 1.13837 0
M  V30 2814 C 274.379 -2.17771 0.842507 0
M  V30 2815 C 275.36 -1.6892 -0.20001 0
M  V30 2816 O 276.545 -1.94113 -0.0579731 0
M  V30 2817 C 273.675 -3.4589 0.312644 0
M  V30 2818 C 272.629 -4.08099 1.28992 0
M  V30 2819 C 271.955 -5.31098 0.619623 0
M  V30 2820 C 273.255 -4.50077 2.65005 0
M  V30 2821 H 274.949 -2.42777 1.75213 0
M  V30 2822 H 272.495 -1.16682 0.843875 0
M  V30 2823 H 274.448 -4.21297 0.0933043 0
M  V30 2824 H 273.172 -3.20419 -0.632382 0
M  V30 2825 H 271.831 -3.34717 1.49533 0
M  V30 2826 H 271.479 -5.0191 -0.33102 0
M  V30 2827 H 271.179 -5.73674 1.27167 0
M  V30 2828 H 272.703 -6.09224 0.409669 0
M  V30 2829 H 274.117 -5.16688 2.48407 0
M  V30 2830 H 272.514 -5.03553 3.26427 0
M  V30 2831 H 273.584 -3.62257 3.22332 0
M  V30 2832 N 274.927 -0.932562 -1.27047 0
M  V30 2833 C 275.857 -0.452902 -2.29066 0
M  V30 2834 C 276.838 0.489338 -1.62909 0
M  V30 2835 O 278.023 0.393046 -1.90181 0
M  V30 2836 C 275.153 0.290698 -3.46081 0
M  V30 2837 C 274.107 -0.564168 -4.24265 0
M  V30 2838 C 273.433 0.308886 -5.33807 0
M  V30 2839 C 274.733 -1.83112 -4.89149 0
M  V30 2840 H 276.427 -1.30552 -2.69437 0
M  V30 2841 H 273.973 -0.629201 -1.29526 0
M  V30 2842 H 275.926 0.637233 -4.16554 0
M  V30 2843 H 274.65 1.17738 -3.0464 0
M  V30 2844 H 273.309 -0.893477 -3.55545 0
M  V30 2845 H 272.957 1.19467 -4.88607 0
M  V30 2846 H 272.657 -0.259633 -5.87026 0
M  V30 2847 H 274.181 0.650884 -6.07121 0
M  V30 2848 H 275.595 -1.55236 -5.51883 0
M  V30 2849 H 273.992 -2.34353 -5.52448 0
M  V30 2850 H 275.062 -2.54772 -4.12576 0
M  V30 2851 N 276.405 1.4127 -0.698611 0
M  V30 2852 C 277.635 2.05205 -0.239644 0
M  V30 2853 C 278.043 1.52684 1.11733 0
M  V30 2854 O 277.386 0.671222 1.70998 0
M  V30 2855 C 277.448 3.59289 -0.123126 0
M  V30 2856 C 277.112 4.34619 -1.41263 0
M  V30 2857 C 278.109 4.63701 -2.35111 0
M  V30 2858 C 275.794 4.73837 -1.66684 0
M  V30 2859 C 277.788 5.30966 -3.52639 0
M  V30 2860 C 275.475 5.40837 -2.84498 0
M  V30 2861 C 276.473 5.69329 -3.77298 0
M  V30 2862 O 276.161 6.34949 -4.93047 0
M  V30 2863 H 275.893 0.66723 -0.108537 0
M  V30 2864 H 278.447 1.81974 -0.952602 0
M  V30 2865 H 276.677 3.81272 0.645628 0
M  V30 2866 H 278.366 4.04797 0.299056 0
M  V30 2867 H 279.132 4.33882 -2.16729 0
M  V30 2868 H 275.011 4.51039 -0.953135 0
M  V30 2869 H 278.555 5.53121 -4.25091 0
M  V30 2870 H 274.452 5.70075 -3.02795 0
M  V30 2871 H 275.22 6.53445 -4.92902 0
M  V30 2872 N 277.883 0.443576 1.51229 0
M  V30 2873 C 278.846 -0.353132 2.26463 0
M  V30 2874 C 279.846 -0.944338 1.3015 0
M  V30 2875 O 281.036 -0.817813 1.5381 0
M  V30 2876 C 278.168 -1.50023 3.06114 0
M  V30 2877 H 279.361 0.3063 2.98332 0
M  V30 2878 H 276.914 0.196902 1.55055 0
M  V30 2879 H 277.649 -2.19553 2.38677 0
M  V30 2880 H 277.434 -1.08241 3.76864 0
M  V30 2881 H 278.924 -2.06296 3.63087 0
M  V30 2882 N 279.361 -1.56624 0.175154 0
M  V30 2883 C 280.61 -1.96173 -0.468921 0
M  V30 2884 C 280.923 -1.06401 -1.64128 0
M  V30 2885 O 282.129 -1.35648 -2.35185 0
M  V30 2886 C 280.585 -3.48833 -0.885633 0
M  V30 2887 C 280.193 -4.47237 0.261343 0
M  V30 2888 C 281.937 -3.97194 -1.49791 0
M  V30 2889 C 279.844 -5.9114 -0.175214 0
M  V30 2890 H 278.774 -0.732455 -0.178958 0
M  V30 2891 H 281.425 -1.81591 0.263997 0
M  V30 2892 H 279.807 -3.58848 -1.67464 0
M  V30 2893 H 280.981 -4.4894 1.03871 0
M  V30 2894 H 279.296 -4.08956 0.783827 0
M  V30 2895 H 281.893 -5.02167 -1.83665 0
M  V30 2896 H 282.236 -3.40351 -2.39722 0
M  V30 2897 H 282.769 -3.90212 -0.773267 0
M  V30 2898 H 279.508 -6.51865 0.689414 0
M  V30 2899 H 279.028 -5.92735 -0.91786 0
M  V30 2900 H 280.707 -6.44044 -0.617792 0
M  V30 2901 N 280.839 0.0985539 -1.57292 0
M  V30 2902 C 282.064 0.820196 -1.90493 0
M  V30 2903 C 282.489 1.71658 -0.769094 0
M  V30 2904 O 281.847 1.79133 0.279495 0
M  V30 2905 C 281.895 1.61242 -3.22542 0
M  V30 2906 O 280.999 2.72108 -3.09888 0
M  V30 2907 H 280.34 0.225547 -0.62452 0
M  V30 2908 H 282.87 0.0748159 -2.04463 0
M  V30 2909 H 282.88 1.99737 -3.55766 0
M  V30 2910 H 281.555 0.954535 -4.04798 0
M  V30 2911 H 280.132 2.36667 -2.88172 0
M  V30 2912 N 282.317 1.53212 0.369288 0
M  V30 2913 C 283.264 1.79388 1.45219 0
M  V30 2914 C 284.234 0.638059 1.53356 0
M  V30 2915 O 285.419 0.879852 1.69302 0
M  V30 2916 C 282.559 1.98623 2.82211 0
M  V30 2917 C 281.672 3.26337 2.8307 0
M  V30 2918 C 280.807 3.35779 4.11614 0
M  V30 2919 C 279.846 4.5754 4.06601 0
M  V30 2920 N 278.983 4.64155 5.26787 0
M  V30 2921 H 283.823 2.71794 1.22198 0
M  V30 2922 H 281.36 1.34642 0.592444 0
M  V30 2923 H 283.318 2.07761 3.61789 0
M  V30 2924 H 281.948 1.09558 3.03639 0
M  V30 2925 H 281 3.26171 1.95747 0
M  V30 2926 H 282.312 4.15988 2.75237 0
M  V30 2927 H 281.466 3.44208 4.99606 0
M  V30 2928 H 280.205 2.44137 4.22195 0
M  V30 2929 H 279.21 4.49215 3.16996 0
M  V30 2930 H 280.435 5.50519 3.97625 0
M  V30 2931 H 278.381 3.75413 5.3796 0
M  V30 2932 H 278.298 5.47706 5.21109 0
M  V30 2933 H 279.566 4.76863 6.16621 0
M  V30 2934 N 283.795 -0.628877 1.44509 0
M  V30 2935 C 284.725 -1.75187 1.54376 0
M  V30 2936 C 285.706 -1.65411 0.396618 0
M  V30 2937 O 286.891 -1.84137 0.617031 0
M  V30 2938 C 284.021 -3.13725 1.48976 0
M  V30 2939 C 282.975 -3.38291 2.62189 0
M  V30 2940 C 282.301 -4.76883 2.41841 0
M  V30 2941 C 283.601 -3.30632 4.04326 0
M  V30 2942 H 285.295 -1.67187 2.48373 0
M  V30 2943 H 282.841 -0.802909 1.19538 0
M  V30 2944 H 284.794 -3.92064 1.54478 0
M  V30 2945 H 283.518 -3.22515 0.514961 0
M  V30 2946 H 282.177 -2.62334 2.56079 0
M  V30 2947 H 281.825 -4.82378 1.42548 0
M  V30 2948 H 281.525 -4.94278 3.17747 0
M  V30 2949 H 283.049 -5.57449 2.49165 0
M  V30 2950 H 284.463 -3.98873 4.11793 0
M  V30 2951 H 282.86 -3.59561 4.80454 0
M  V30 2952 H 283.93 -2.28404 4.27738 0
M  V30 2953 N 285.273 -1.31445 -0.869486 0
M  V30 2954 C 286.521 -1.20918 -1.61936 0
M  V30 2955 C 286.842 0.232683 -1.93607 0
M  V30 2956 O 286.112 1.15352 -1.58338 0
M  V30 2957 H 284.692 -0.44454 -0.600328 0
M  V30 2958 H 287.354 -1.64776 -1.0409 0
M  V30 2959 H 286.45 -1.78124 -2.56278 0
M  V30 2960 N 286.751 1.08385 -1.14413 0
M  V30 2961 C 288.162 1.62258 -0.923535 0
M  V30 2962 C 288.513 1.88691 0.537595 0
M  V30 2963 O 287.638 1.64454 1.40655 0
M  V30 2964 C 288.233 2.94781 -1.67002 0
M  V30 2965 C 286.792 3.45437 -1.495 0
M  V30 2966 C 285.939 2.19668 -1.69238 0
M  V30 2967 H 288.89 0.916086 -1.2959 0
M  V30 2968 H 288.911 3.63229 -1.13334 0
M  V30 2969 H 288.423 2.7551 -2.73342 0
M  V30 2970 H 286.524 3.6981 -0.455097 0
M  V30 2971 H 286.637 4.22173 -2.2651 0
M  V30 2972 H 285.001 2.28849 -1.11804 0
M  V30 2973 H 285.784 2.02905 -2.7692 0
M  V30 2974 N 288.23 0.939286 1.26551 0
M  V30 2975 C 289.478 0.58469 1.93457 0
M  V30 2976 C 289.799 -0.878774 1.74076 0
M  V30 2977 O 289.069 -1.62421 1.09528 0
M  V30 2978 H 287.649 0.21325 0.715914 0
M  V30 2979 H 290.311 1.1942 1.54029 0
M  V30 2980 H 289.407 0.800849 3.0165 0
M  V30 2981 N 289.708 -1.40897 0.706093 0
M  V30 2982 C 290.618 -2.3455 0.0482286 0
M  V30 2983 C 291.634 -1.56796 -0.754396 0
M  V30 2984 O 292.81 -1.89228 -0.689538 0
M  V30 2985 C 289.875 -3.35625 -0.869303 0
M  V30 2986 C 288.936 -4.29261 -0.0576994 0
M  V30 2987 C 288.169 -5.25508 -0.931531 0
M  V30 2988 O 288.392 -5.27472 -2.17092 0
M  V30 2989 O 287.326 -6.00727 -0.375587 0
M  V30 2990 H 291.152 -2.92407 0.820476 0
M  V30 2991 H 288.737 -1.4193 0.4665 0
M  V30 2992 H 290.619 -3.97635 -1.39514 0
M  V30 2993 H 289.294 -2.80196 -1.62086 0
M  V30 2994 H 288.201 -3.70566 0.512988 0
M  V30 2995 H 289.534 -4.87817 0.655426 0
M  V30 2996 N 291.186 -0.45159 -1.50991 0
M  V30 2997 C 292.133 0.352625 -2.2809 0
M  V30 2998 C 293.103 1.0044 -1.32291 0
M  V30 2999 O 294.288 1.02058 -1.6121 0
M  V30 3000 C 291.428 1.43983 -3.13629 0
M  V30 3001 C 290.541 0.804772 -4.24438 0
M  V30 3002 C 289.676 1.86822 -4.97263 0
M  V30 3003 C 288.715 1.21236 -5.99973 0
M  V30 3004 N 287.852 2.2178 -6.66152 0
M  V30 3005 H 292.692 -0.311186 -2.96371 0
M  V30 3006 H 290.229 -0.165308 -1.46168 0
M  V30 3007 H 292.187 2.08161 -3.61559 0
M  V30 3008 H 290.817 2.07307 -2.47434 0
M  V30 3009 H 289.869 0.0509129 -3.80366 0
M  V30 3010 H 291.181 0.286076 -4.97979 0
M  V30 3011 H 290.335 2.58628 -5.48813 0
M  V30 3012 H 289.074 2.42068 -4.23385 0
M  V30 3013 H 288.079 0.479828 -5.47702 0
M  V30 3014 H 289.304 0.667051 -6.75816 0
M  V30 3015 H 287.25 2.76079 -5.95077 0
M  V30 3016 H 287.167 1.74841 -7.35504 0
M  V30 3017 H 288.435 2.93026 -7.22327 0
M  V30 3018 N 292.664 1.56529 -0.183458 0
M  V30 3019 C 293.894 2.01331 0.463612 0
M  V30 3020 C 294.302 1.06278 1.5653 0
M  V30 3021 O 293.645 0.0577976 1.83609 0
M  V30 3022 C 293.707 3.42547 1.09096 0
M  V30 3023 C 293.371 4.56817 0.129442 0
M  V30 3024 C 294.368 5.15734 -0.656807 0
M  V30 3025 C 292.053 5.02295 0.02174 0
M  V30 3026 C 294.047 6.1857 -1.53784 0
M  V30 3027 C 291.734 6.04978 -0.862864 0
M  V30 3028 C 292.732 6.62988 -1.64123 0
M  V30 3029 O 292.42 7.63677 -2.51103 0
M  V30 3030 H 292.152 0.664917 0.121907 0
M  V30 3031 H 294.706 2.034 -0.285954 0
M  V30 3032 H 292.936 3.37428 1.88889 0
M  V30 3033 H 294.625 3.71228 1.64148 0
M  V30 3034 H 295.391 4.81473 -0.583839 0
M  V30 3035 H 291.27 4.56847 0.617392 0
M  V30 3036 H 294.814 6.63777 -2.14583 0
M  V30 3037 H 290.711 6.38663 -0.93699 0
M  V30 3038 H 291.479 7.81049 -2.44753 0
M  V30 3039 N 294.142 -0.090211 1.57342 0
M  V30 3040 C 295.052 -1.12735 2.05738 0
M  V30 3041 C 296.068 -1.43557 0.983231 0
M  V30 3042 O 297.244 -1.54101 1.29672 0
M  V30 3043 C 294.309 -2.42659 2.47624 0
M  V30 3044 C 293.37 -2.18975 3.69254 0
M  V30 3045 C 292.603 -3.42704 4.09133 0
M  V30 3046 O 292.826 -4.51127 3.49057 0
M  V30 3047 O 291.76 -3.32003 5.02053 0
M  V30 3048 H 295.586 -0.746279 2.94388 0
M  V30 3049 H 293.171 -0.303064 1.46294 0
M  V30 3050 H 295.053 -3.19155 2.7517 0
M  V30 3051 H 293.728 -2.80182 1.62109 0
M  V30 3052 H 292.635 -1.40244 3.46818 0
M  V30 3053 H 293.968 -1.86342 4.55563 0
M  V30 3054 N 295.62 -1.53406 -0.361157 0
M  V30 3055 C 296.55 -1.83136 -1.44857 0
M  V30 3056 C 297.531 -0.685174 -1.5569 0
M  V30 3057 O 298.716 -0.93544 -1.70186 0
M  V30 3058 C 295.846 -2.02522 -2.82138 0
M  V30 3059 C 294.8 -3.18302 -2.86126 0
M  V30 3060 C 294.126 -3.22989 -4.26125 0
M  V30 3061 C 295.426 -4.56796 -2.53248 0
M  V30 3062 H 297.12 -2.74201 -1.20226 0
M  V30 3063 H 294.666 -1.31938 -0.576922 0
M  V30 3064 H 296.619 -2.21904 -3.58241 0
M  V30 3065 H 295.343 -1.08172 -3.08166 0
M  V30 3066 H 294.002 -2.98747 -2.12475 0
M  V30 3067 H 293.65 -2.26267 -4.49235 0
M  V30 3068 H 293.35 -4.00781 -4.29708 0
M  V30 3069 H 294.874 -3.44559 -5.04094 0
M  V30 3070 H 296.288 -4.7631 -3.19064 0
M  V30 3071 H 294.685 -5.36862 -2.68141 0
M  V30 3072 H 295.755 -4.61606 -1.48484 0
M  V30 3073 N 297.098 0.621204 -1.44841 0
M  V30 3074 C 298.048 1.72663 -1.48901 0
M  V30 3075 C 299.032 1.56964 -0.353702 0
M  V30 3076 O 300.224 1.66532 -0.599669 0
M  V30 3077 C 297.353 3.11381 -1.44557 0
M  V30 3078 C 296.439 3.32514 -2.6324 0
M  V30 3079 N 296.83 3.23969 -3.8843 0
M  V30 3080 C 295.128 3.63343 -2.58647 0
M  V30 3081 C 295.829 3.46062 -4.67564 0
M  V30 3082 N 294.805 3.69407 -3.98797 0
M  V30 3083 H 298.607 1.64529 -2.43531 0
M  V30 3084 H 296.121 0.82401 -1.39942 0
M  V30 3085 H 298.118 3.90667 -1.4555 0
M  V30 3086 H 296.778 3.20674 -0.509731 0
M  V30 3087 H 297.789 3.02669 -4.20252 0
M  V30 3088 H 294.466 3.79556 -1.73906 0
M  V30 3089 H 295.856 3.44963 -5.76585 0
M  V30 3090 N 298.576 1.31904 0.862503 0
M  V30 3091 C 299.539 1.20131 1.95195 0
M  V30 3092 C 300.539 0.126409 1.60302 0
M  V30 3093 O 301.729 0.376234 1.70089 0
M  V30 3094 C 298.861 0.845691 3.30244 0
M  V30 3095 H 300.054 2.16943 2.07064 0
M  V30 3096 H 297.607 1.15622 1.05172 0
M  V30 3097 H 298.342 -0.120957 3.24074 0
M  V30 3098 H 298.127 1.62276 3.56944 0
M  V30 3099 H 299.617 0.787418 4.10109 0
M  V30 3100 N 300.054 -1.07777 1.14986 0
M  V30 3101 C 301.017 -2.13041 0.845358 0
M  V30 3102 C 302.017 -1.60071 -0.152931 0
M  V30 3103 O 303.207 -1.74033 0.0761879 0
M  V30 3104 C 300.339 -3.39896 0.261383 0
M  V30 3105 H 301.532 -2.41485 1.77834 0
M  V30 3106 H 299.085 -1.23595 0.956757 0
M  V30 3107 H 299.82 -3.17091 -0.68 0
M  V30 3108 H 299.605 -3.79642 0.980514 0
M  V30 3109 H 301.095 -4.17548 0.0657687 0
M  V30 3110 N 301.532 -0.945985 -1.26051 0
M  V30 3111 C 302.76 -0.613025 -1.9761 0
M  V30 3112 C 303.175 0.813035 -1.70397 0
M  V30 3113 O 302.532 1.54274 -0.974979 0
M  V30 3114 C 302.583 -0.85159 -3.51326 0
M  V30 3115 O 302.304 -2.22157 -3.77595 0
M  V30 3116 C 303.805 -0.529831 -4.40122 0
M  V30 3117 H 301.025 -0.230593 -0.630133 0
M  V30 3118 H 303.569 -1.268 -1.60443 0
M  V30 3119 H 301.724 -0.243151 -3.86636 0
M  V30 3120 H 302.138 -2.2852 -4.721 0
M  V30 3121 H 303.612 -0.747348 -5.46917 0
M  V30 3122 H 304.089 0.535341 -4.35925 0
M  V30 3123 H 304.695 -1.11721 -4.10364 0
M  V30 3124 N 303.011 1.40521 -0.713556 0
M  V30 3125 C 304.288 1.94775 -0.17943 0
M  V30 3126 C 304.668 1.65184 1.31444 0
M  V30 3127 O 304.016 0.968429 2.06963 0
M  V30 3128 C 304.226 3.45543 -0.489986 0
M  V30 3129 C 305.574 4.22442 -0.427536 0
M  V30 3130 O 306.598 3.53644 -0.425929 0
M  V30 3131 O 305.457 5.4501 -0.403292 0
M  V30 3132 H 302.551 0.826606 -0.0255192 0
M  V30 3133 H 305.097 1.5014 -0.790949 0
M  V30 3134 H 303.869 3.60432 -1.5233 0
M  V30 3135 H 303.492 3.97311 0.151598 0
M  V30 3136 N 304.489 0.459591 1.5075 0
M  V30 3137 C 305.717 -0.0973749 2.06671 0
M  V30 3138 C 306.132 -1.34524 1.32472 0
M  V30 3139 O 305.489 -1.7827 0.390634 0
M  V30 3140 C 305.54 -0.39714 3.59312 0
M  V30 3141 O 305.261 0.801214 4.30711 0
M  V30 3142 C 306.762 -1.00234 4.31819 0
M  V30 3143 H 303.982 0.00195854 0.670997 0
M  V30 3144 H 306.526 0.645072 1.94059 0
M  V30 3145 H 304.681 -1.08951 3.71764 0
M  V30 3146 H 305.095 0.538857 5.21725 0
M  V30 3147 H 306.569 -1.16193 5.39632 0
M  V30 3148 H 307.046 -1.98939 3.91561 0
M  V30 3149 H 307.652 -0.348699 4.23868 0
M  V30 3150 N 305.967 -1.56429 0.191757 0
M  V30 3151 C 307.195 -2.01867 -0.453586 0
M  V30 3152 C 307.61 -1.07191 -1.5542 0
M  V30 3153 O 306.967 -0.0762108 -1.82341 0
M  V30 3154 C 307.018 -3.47017 -1.013 0
M  V30 3155 O 306.739 -4.38078 0.0437005 0
M  V30 3156 C 308.24 -4.07956 -1.73456 0
M  V30 3157 H 305.46 -0.661211 -0.114199 0
M  V30 3158 H 308.004 -2.02295 0.299483 0
M  V30 3159 H 306.159 -3.47298 -1.71647 0
M  V30 3160 H 306.573 -5.23178 -0.372212 0
M  V30 3161 H 308.047 -5.1138 -2.07833 0
M  V30 3162 H 308.524 -3.51222 -2.63704 0
M  V30 3163 H 309.13 -4.11437 -1.07702 0
M  V30 3164 N 307.445 0.0818655 -1.57387 0
M  V30 3165 C 308.856 0.634871 -1.75574 0
M  V30 3166 C 309.207 1.78435 -0.815809 0
M  V30 3167 O 308.332 2.164 0.0025366 0
M  V30 3168 C 308.927 1.15845 -3.18379 0
M  V30 3169 C 307.486 1.65741 -3.37945 0
M  V30 3170 C 306.633 0.572549 -2.71325 0
M  V30 3171 H 309.584 -0.144268 -1.58043 0
M  V30 3172 H 309.605 2.02751 -3.21982 0
M  V30 3173 H 309.117 0.321631 -3.86765 0
M  V30 3174 H 307.218 2.51781 -2.74658 0
M  V30 3175 H 307.331 1.74129 -4.46336 0
M  V30 3176 H 305.695 1.01518 -2.33594 0
M  V30 3177 H 306.478 -0.253918 -3.4236 0
M  V30 3178 N 308.923 1.53595 0.353017 0
M  V30 3179 C 310.148 1.7462 1.11904 0
M  V30 3180 C 310.573 0.479721 1.8188 0
M  V30 3181 O 309.931 -0.567066 1.72204 0
M  V30 3182 C 309.979 2.92029 2.11545 0
M  V30 3183 O 309.083 2.61516 3.18878 0
M  V30 3184 H 308.424 0.579531 0.324099 0
M  V30 3185 H 310.954 2.00525 0.406301 0
M  V30 3186 H 310.964 3.18551 2.5493 0
M  V30 3187 H 309.639 3.83888 1.60008 0
M  V30 3188 H 308.216 2.45852 2.80377 0
M  V30 3189 N 310.401 -0.613514 1.45168 0
M  V30 3190 C 311.647 -1.37471 1.49096 0
M  V30 3191 C 311.98 -1.93765 0.129901 0
M  V30 3192 O 311.255 -1.74707 -0.854858 0
M  V30 3193 C 311.538 -2.52701 2.56542 0
M  V30 3194 C 311.391 -2.01643 4.0207 0
M  V30 3195 C 312.71 -3.54849 2.60327 0
M  V30 3196 H 309.829 -0.498502 0.54283 0
M  V30 3197 H 312.471 -0.692125 1.76945 0
M  V30 3198 H 310.621 -3.10931 2.32926 0
M  V30 3199 H 312.293 -1.48108 4.36877 0
M  V30 3200 H 310.536 -1.32688 4.13009 0
M  V30 3201 H 311.207 -2.84681 4.72928 0
M  V30 3202 H 313.683 -3.0645 2.81474 0
M  V30 3203 H 312.559 -4.32973 3.37381 0
M  V30 3204 H 312.82 -4.10079 1.6519 0
M  V30 3205 N 311.879 -1.3236 -0.855495 0
M  V30 3206 C 313.125 -1.23054 -1.612 0
M  V30 3207 C 313.458 0.207404 -1.93089 0
M  V30 3208 O 312.733 1.14432 -1.57275 0
M  V30 3209 C 313.016 -2.08937 -2.93287 0
M  V30 3210 C 312.869 -3.61105 -2.68185 0
M  V30 3211 C 314.188 -1.94986 -3.94549 0
M  V30 3212 H 311.307 -0.448364 -0.584926 0
M  V30 3213 H 313.949 -1.62297 -0.987917 0
M  V30 3214 H 312.099 -1.75599 -3.46551 0
M  V30 3215 H 313.771 -4.04652 -2.21483 0
M  V30 3216 H 312.014 -3.83813 -2.02164 0
M  V30 3217 H 312.685 -4.16522 -3.62234 0
M  V30 3218 H 315.161 -2.24189 -3.5054 0
M  V30 3219 H 314.037 -2.57356 -4.84829 0
M  V30 3220 H 314.298 -0.917263 -4.3248 0
M  V30 3221 N 313.357 1.07166 -1.15556 0
M  V30 3222 C 314.603 1.80065 -0.932984 0
M  V30 3223 C 314.936 1.86586 0.53845 0
M  V30 3224 O 314.211 1.35098 1.39924 0
M  V30 3225 C 314.494 3.25022 -1.55025 0
M  V30 3226 C 314.347 3.26634 -3.09242 0
M  V30 3227 C 315.666 4.22341 -1.2376 0
M  V30 3228 H 312.785 0.653697 -0.340366 0
M  V30 3229 H 315.427 1.25389 -1.4275 0
M  V30 3230 H 313.577 3.71712 -1.12972 0
M  V30 3231 H 315.249 2.88173 -3.60214 0
M  V30 3232 H 313.492 2.65539 -3.43033 0
M  V30 3233 H 314.163 4.28854 -3.47546 0
M  V30 3234 H 316.639 3.8405 -1.60139 0
M  V30 3235 H 315.515 5.22053 -1.69564 0
M  V30 3236 H 315.776 4.41828 -0.154938 0
M  V30 3237 N 314.835 0.952656 1.25548 0
M  V30 3238 C 315.785 0.442033 2.23674 0
M  V30 3239 C 316.769 -0.467632 1.53955 0
M  V30 3240 O 317.961 -0.301006 1.74422 0
M  V30 3241 C 315.09 -0.280816 3.4215 0
M  V30 3242 C 314.176 0.646803 4.19139 0
M  V30 3243 N 314.567 1.77759 4.73535 0
M  V30 3244 C 312.865 0.454617 4.43677 0
M  V30 3245 C 313.566 2.35658 5.31827 0
M  V30 3246 N 312.542 1.64333 5.18166 0
M  V30 3247 H 316.344 1.30505 2.63336 0
M  V30 3248 H 313.858 0.809904 1.40763 0
M  V30 3249 H 315.855 -0.663747 4.11582 0
M  V30 3250 H 314.515 -1.14046 3.04012 0
M  V30 3251 H 315.526 2.15949 4.7073 0
M  V30 3252 H 312.203 -0.362312 4.15925 0
M  V30 3253 H 313.593 3.30998 5.84713 0
M  V30 3254 N 316.313 -1.40141 0.720998 0
M  V30 3255 C 317.559 -2.01084 0.263231 0
M  V30 3256 C 317.892 -1.57052 -1.14229 0
M  V30 3257 O 317.167 -0.793027 -1.77599 0
M  V30 3258 C 317.45 -3.58401 0.349344 0
M  V30 3259 C 317.303 -4.12491 1.79363 0
M  V30 3260 C 318.622 -4.39231 -0.276351 0
M  V30 3261 H 315.741 -0.730572 0.0971228 0
M  V30 3262 H 318.383 -1.66543 0.914518 0
M  V30 3263 H 316.533 -3.87958 -0.205165 0
M  V30 3264 H 318.205 -3.93711 2.40394 0
M  V30 3265 H 316.448 -3.66576 2.31958 0
M  V30 3266 H 317.119 -5.21646 1.80524 0
M  V30 3267 H 319.595 -4.15637 0.196184 0
M  V30 3268 H 318.471 -5.48586 -0.185681 0
M  V30 3269 H 318.732 -4.20643 -1.36059 0
M  V30 3270 N 317.792 -0.46758 -1.50504 0
M  V30 3271 C 319.032 0.0874114 -2.04213 0
M  V30 3272 C 319.396 1.37301 -1.34211 0
M  V30 3273 O 320.597 2.01015 -1.78456 0
M  V30 3274 C 318.868 0.270571 -3.56374 0
M  V30 3275 S 320.427 0.784623 -4.31728 0
M  V30 3276 H 317.245 0.0176153 -0.710782 0
M  V30 3277 H 319.847 -0.633915 -1.84937 0
M  V30 3278 H 318.551 -0.670942 -4.04878 0
M  V30 3279 H 318.082 1.01811 -3.79997 0
M  V30 3280 H 320.097 2.05849 -4.51487 0
M  V30 3281 N 319.27 1.56325 -0.20005 0
M  V30 3282 C 320.18 2.22931 0.730668 0
M  V30 3283 C 321.196 1.22997 1.23076 0
M  V30 3284 O 322.372 1.55748 1.27689 0
M  V30 3285 C 319.437 2.87948 1.93098 0
M  V30 3286 C 318.498 4.03166 1.47497 0
M  V30 3287 C 317.731 4.65073 2.61807 0
M  V30 3288 O 317.954 4.25913 3.79413 0
M  V30 3289 O 316.888 5.54452 2.34237 0
M  V30 3290 H 320.714 3.03084 0.193391 0
M  V30 3291 H 318.299 1.49371 0.0294621 0
M  V30 3292 H 320.181 3.29063 2.6324 0
M  V30 3293 H 318.856 2.10771 2.45677 0
M  V30 3294 H 317.763 3.66664 0.742201 0
M  V30 3295 H 319.096 4.82022 0.995796 0
M  V30 3296 N 320.748 -0.0735177 1.57428 0
M  V30 3297 C 321.973 -0.789787 1.91774 0
M  V30 3298 C 322.398 -1.70413 0.796306 0
M  V30 3299 O 321.756 -1.79555 -0.250961 0
M  V30 3300 C 321.804 -1.5609 3.25067 0
M  V30 3301 O 320.908 -2.67144 3.14178 0
M  V30 3302 H 320.249 -0.215582 0.628029 0
M  V30 3303 H 322.779 -0.0422781 2.04556 0
M  V30 3304 H 322.789 -1.94052 3.58898 0
M  V30 3305 H 321.464 -0.890015 4.06265 0
M  V30 3306 H 320.041 -2.32052 2.91901 0
M  V30 3307 N 322.226 -1.5378 -0.344866 0
M  V30 3308 C 323.503 -1.61589 -1.10219 0
M  V30 3309 C 323.883 -0.436316 -2.06542 0
M  V30 3310 O 323.231 0.571543 -2.21237 0
M  V30 3311 C 323.441 -2.97602 -1.82301 0
M  V30 3312 C 324.789 -3.5291 -2.36093 0
M  V30 3313 O 325.813 -2.99768 -1.924 0
M  V30 3314 O 324.672 -4.45859 -3.16026 0
M  V30 3315 H 321.766 -0.653522 -0.506792 0
M  V30 3316 H 324.312 -1.66126 -0.346465 0
M  V30 3317 H 323.084 -3.74893 -1.12121 0
M  V30 3318 H 322.707 -2.9665 -2.64735 0
M  V30 3319 N 323.704 0.605807 -1.45491 0
M  V30 3320 C 324.636 1.73031 -1.5031 0
M  V30 3321 C 325.649 1.57968 -0.393687 0
M  V30 3322 O 326.838 1.65817 -0.660839 0
M  V30 3323 C 323.938 3.11049 -1.34543 0
M  V30 3324 C 323.111 3.52334 -2.59189 0
M  V30 3325 C 322.17 4.69323 -2.37954 0
M  V30 3326 O 321.196 4.7635 -3.11575 0
M  V30 3327 N 322.398 5.62705 -1.4263 0
M  V30 3328 H 325.163 1.6936 -2.4726 0
M  V30 3329 H 322.724 0.79114 -1.41254 0
M  V30 3330 H 324.716 3.87071 -1.18144 0
M  V30 3331 H 323.286 3.09217 -0.458623 0
M  V30 3332 H 322.506 2.66256 -2.90691 0
M  V30 3333 H 323.794 3.76677 -3.42041 0
M  V30 3334 H 323.192 5.59744 -0.818758 0
M  V30 3335 H 321.749 6.38252 -1.32202 0
M  V30 3336 N 325.182 1.32811 0.848464 0
M  V30 3337 C 326.092 1.24278 1.98978 0
M  V30 3338 C 327.108 0.155176 1.73307 0
M  V30 3339 O 328.284 0.376999 1.9784 0
M  V30 3340 C 325.349 0.972444 3.32783 0
M  V30 3341 C 324.41 2.14911 3.71634 0
M  V30 3342 C 323.643 1.89157 4.99054 0
M  V30 3343 O 323.866 0.837165 5.64223 0
M  V30 3344 O 322.8 2.75433 5.35183 0
M  V30 3345 H 326.626 2.20238 2.09115 0
M  V30 3346 H 324.211 1.12762 0.980052 0
M  V30 3347 H 326.093 0.838432 4.12975 0
M  V30 3348 H 324.768 0.043051 3.23671 0
M  V30 3349 H 323.675 2.33862 2.91992 0
M  V30 3350 H 325.008 3.06151 3.85399 0
M  V30 3351 N 326.66 -1.06551 1.16123 0
M  V30 3352 C 327.607 -2.13961 0.865414 0
M  V30 3353 C 328.577 -1.65066 -0.185055 0
M  V30 3354 O 329.762 -1.90732 -0.05083 0
M  V30 3355 C 326.902 -3.43113 0.369776 0
M  V30 3356 C 326.015 -4.05756 1.48276 0
M  V30 3357 C 325.15 -5.22773 0.942414 0
M  V30 3358 C 324.189 -5.77395 2.03179 0
M  V30 3359 N 323.326 -6.85731 1.50721 0
M  V30 3360 H 328.166 -2.38605 1.78527 0
M  V30 3361 H 325.703 -1.17072 0.890646 0
M  V30 3362 H 327.661 -4.17151 0.0640643 0
M  V30 3363 H 326.291 -3.18695 -0.513143 0
M  V30 3364 H 325.343 -3.29292 1.9045 0
M  V30 3365 H 326.655 -4.42351 2.30493 0
M  V30 3366 H 325.809 -6.03827 0.589729 0
M  V30 3367 H 324.548 -4.87618 0.0895191 0
M  V30 3368 H 323.553 -4.94981 2.3932 0
M  V30 3369 H 324.778 -6.14603 2.8886 0
M  V30 3370 H 322.724 -6.52499 0.676811 0
M  V30 3371 H 322.641 -7.21254 2.26557 0
M  V30 3372 H 323.909 -7.7047 1.18303 0
M  V30 3373 N 328.138 -0.959301 -1.25041 0
M  V30 3374 C 329.048 -0.489994 -2.29426 0
M  V30 3375 C 330.064 0.444944 -1.68215 0
M  V30 3376 O 331.24 0.320046 -1.98841 0
M  V30 3377 C 328.305 0.220309 -3.45999 0
M  V30 3378 C 327.366 -0.753418 -4.22637 0
M  V30 3379 C 326.599 -0.076918 -5.33645 0
M  V30 3380 O 326.822 1.13649 -5.58963 0
M  V30 3381 O 325.756 -0.764824 -5.97021 0
M  V30 3382 H 329.582 -1.35755 -2.71669 0
M  V30 3383 H 327.167 -0.725961 -1.30576 0
M  V30 3384 H 329.049 0.619677 -4.16819 0
M  V30 3385 H 327.724 1.06296 -3.0575 0
M  V30 3386 H 326.631 -1.20308 -3.54227 0
M  V30 3387 H 327.964 -1.56423 -4.66683 0
M  V30 3388 N 329.616 1.39756 -0.72842 0
M  V30 3389 C 330.526 2.34444 -0.0855374 0
M  V30 3390 C 331.542 1.57976 0.729356 0
M  V30 3391 O 332.718 1.90301 0.659346 0
M  V30 3392 C 329.783 3.36965 0.815798 0
M  V30 3393 C 328.844 4.29299 -0.0105996 0
M  V30 3394 C 328.077 5.26923 0.84781 0
M  V30 3395 O 328.3 5.30859 2.08673 0
M  V30 3396 O 327.234 6.01249 0.279969 0
M  V30 3397 H 331.06 2.91065 -0.866892 0
M  V30 3398 H 328.645 1.4117 -0.48902 0
M  V30 3399 H 330.527 3.99804 1.33171 0
M  V30 3400 H 329.202 2.82739 1.57608 0
M  V30 3401 H 328.109 3.69703 -0.571877 0
M  V30 3402 H 329.442 4.86712 -0.73295 0
M  V30 3403 N 331.094 0.475555 1.50254 0
M  V30 3404 C 332.004 -0.321501 2.32387 0
M  V30 3405 C 333.02 -0.991755 1.42969 0
M  V30 3406 O 334.196 -0.978747 1.76018 0
M  V30 3407 C 331.261 -1.38667 3.17762 0
M  V30 3408 C 330.322 -0.732538 4.23004 0
M  V30 3409 C 329.555 -1.74695 5.04299 0
M  V30 3410 O 329.778 -2.97399 4.86734 0
M  V30 3411 O 328.712 -1.31631 5.8733 0
M  V30 3412 H 332.538 0.350071 3.01676 0
M  V30 3413 H 330.123 0.237321 1.47503 0
M  V30 3414 H 332.005 -2.00354 3.70724 0
M  V30 3415 H 330.68 -2.04163 2.51196 0
M  V30 3416 H 329.587 -0.0765902 3.74022 0
M  V30 3417 H 330.92 -0.120452 4.92053 0
M  V30 3418 N 332.573 -1.56217 0.208337 0
M  V30 3419 C 333.483 -2.23316 -0.718836 0
M  V30 3420 C 334.499 -1.23648 -1.22422 0
M  V30 3421 O 335.675 -1.56423 -1.26861 0
M  V30 3422 C 332.74 -2.88968 -1.91568 0
M  V30 3423 C 331.801 -4.03943 -1.45357 0
M  V30 3424 C 331.034 -4.66455 -2.59337 0
M  V30 3425 O 331.257 -4.27919 -3.77149 0
M  V30 3426 O 330.191 -5.55686 -2.31293 0
M  V30 3427 H 334.017 -3.03182 -0.177315 0
M  V30 3428 H 331.602 -1.49384 -0.0215402 0
M  V30 3429 H 333.484 -3.30455 -2.61491 0
M  V30 3430 H 332.159 -2.12071 -2.44556 0
M  V30 3431 H 331.066 -3.67052 -0.722746 0
M  V30 3432 H 332.399 -4.82543 -0.970219 0
M  V30 3433 N 334.051 0.0651679 -1.57465 0
M  V30 3434 C 334.961 1.09448 -2.07505 0
M  V30 3435 C 335.977 1.41974 -1.00595 0
M  V30 3436 O 337.153 1.52018 -1.32107 0
M  V30 3437 C 334.218 2.38689 -2.51453 0
M  V30 3438 C 333.279 2.13073 -3.72691 0
M  V30 3439 C 332.512 3.36152 -4.14533 0
M  V30 3440 O 332.735 4.45517 -3.56189 0
M  V30 3441 O 331.669 3.23974 -5.07272 0
M  V30 3442 H 335.495 0.69935 -2.95538 0
M  V30 3443 H 333.08 0.279752 -1.46757 0
M  V30 3444 H 334.962 3.14736 -2.80212 0
M  V30 3445 H 333.637 2.77568 -1.66546 0
M  V30 3446 H 332.544 1.34709 -3.49005 0
M  V30 3447 H 333.877 1.79071 -4.5847 0
M  V30 3448 N 335.529 1.53961 0.336706 0
M  V30 3449 C 336.462 1.77255 1.43722 0
M  V30 3450 C 337.44 0.62193 1.50236 0
M  V30 3451 O 338.624 0.857874 1.67847 0
M  V30 3452 C 335.751 1.87733 2.81912 0
M  V30 3453 C 334.797 3.09933 2.92991 0
M  V30 3454 S 335.63 4.68836 2.58753 0
M  V30 3455 C 336.786 4.82202 3.99039 0
M  V30 3456 H 337.019 2.70322 1.23748 0
M  V30 3457 H 334.552 1.44917 0.532777 0
M  V30 3458 H 336.51 1.94455 3.61521 0
M  V30 3459 H 335.171 0.956666 2.99177 0
M  V30 3460 H 334.364 3.1396 3.94265 0
M  V30 3461 H 333.966 3.01472 2.21338 0
M  V30 3462 H 336.258 4.64032 4.9364 0
M  V30 3463 H 337.201 5.84298 4.00002 0
M  V30 3464 H 337.609 4.10604 3.87382 0
M  V30 3465 N 337.007 -0.598083 1.45811 0
M  V30 3466 C 337.917 -1.73632 1.57763 0
M  V30 3467 C 338.933 -1.67763 0.461676 0
M  V30 3468 O 340.109 -1.87949 0.723685 0
M  V30 3469 C 337.174 -3.10114 1.55018 0
M  V30 3470 C 336.235 -3.27364 2.77726 0
M  V30 3471 C 335.468 -4.57334 2.75102 0
M  V30 3472 O 335.691 -5.40258 1.8297 0
M  V30 3473 O 334.625 -4.77502 3.66437 0
M  V30 3474 H 338.451 -1.66498 2.53992 0
M  V30 3475 H 336.036 -0.763308 1.28429 0
M  V30 3476 H 337.918 -3.9141 1.56129 0
M  V30 3477 H 336.593 -3.17718 0.619431 0
M  V30 3478 H 335.5 -2.45619 2.82174 0
M  V30 3479 H 336.833 -3.24641 3.69958 0
M  V30 3480 N 338.485 -1.33259 -0.841409 0
M  V30 3481 C 339.901 -1.12538 -1.13169 0
M  V30 3482 C 340.101 0.0854037 -2.01319 0
M  V30 3483 O 339.157 0.766417 -2.40587 0
M  V30 3484 C 340.47 -2.41156 -1.79623 0
M  V30 3485 C 342.018 -2.47038 -1.922 0
M  V30 3486 C 342.493 -3.7561 -2.6207 0
M  V30 3487 N 343.984 -3.76667 -2.69585 0
M  V30 3488 C 344.719 -4.72861 -3.2433 0
M  V30 3489 N 344.215 -5.79428 -3.79783 0
M  V30 3490 N 346.008 -4.6034 -3.22558 0
M  V30 3491 H 338.159 -2.10868 -0.254676 0
M  V30 3492 H 340.422 -0.931615 -0.175493 0
M  V30 3493 H 340.128 -3.29747 -1.22311 0
M  V30 3494 H 340.002 -2.53114 -2.79666 0
M  V30 3495 H 342.389 -1.58898 -2.48667 0
M  V30 3496 H 342.47 -2.39022 -0.911148 0
M  V30 3497 H 342.114 -4.64131 -2.06263 0
M  V30 3498 H 342.044 -3.80902 -3.63622 0
M  V30 3499 H 344.535 -2.99648 -2.30259 0
M  V30 3500 H 344.848 -6.48867 -4.19752 0
M  V30 3501 H 343.193 -5.83166 -3.78078 0
M  V30 3502 H 346.384 -3.76244 -2.78492 0
M  V30 3503 H 346.557 -5.35478 -3.64921 0
M  V30 3504 N 339.963 1.05934 -1.16686 0
M  V30 3505 C 340.896 2.1295 -0.820225 0
M  V30 3506 C 341.874 1.61242 0.209722 0
M  V30 3507 O 343.058 1.88271 0.0929688 0
M  V30 3508 C 340.185 3.3797 -0.22223 0
M  V30 3509 C 339.231 4.08488 -1.22637 0
M  V30 3510 S 340.064 4.58015 -2.77457 0
M  V30 3511 C 341.22 5.86292 -2.19117 0
M  V30 3512 H 341.453 2.42025 -1.72659 0
M  V30 3513 H 338.986 1.18423 -0.990722 0
M  V30 3514 H 340.944 4.10335 0.116322 0
M  V30 3515 H 339.605 3.07045 0.66196 0
M  V30 3516 H 338.798 4.98291 -0.756455 0
M  V30 3517 H 338.4 3.42154 -1.51019 0
M  V30 3518 H 340.692 6.59246 -1.56209 0
M  V30 3519 H 341.635 6.38019 -3.07144 0
M  V30 3520 H 342.043 5.40497 -1.62858 0
M  V30 3521 N 341.441 0.965919 1.2453 0
M  V30 3522 C 342.857 0.67216 1.44756 0
M  V30 3523 C 343.057 -0.766609 1.86347 0
M  V30 3524 O 342.113 -1.5407 2.00047 0
M  V30 3525 C 343.426 1.65473 2.51076 0
M  V30 3526 C 344.974 1.66716 2.64905 0
M  V30 3527 C 345.449 2.63766 3.74421 0
M  V30 3528 N 346.94 2.62198 3.81846 0
M  V30 3529 C 347.675 3.33966 4.66106 0
M  V30 3530 N 347.171 4.15245 5.54566 0
M  V30 3531 N 348.964 3.22799 4.60171 0
M  V30 3532 H 341.115 1.89553 0.958293 0
M  V30 3533 H 343.378 0.815979 0.482579 0
M  V30 3534 H 343.084 2.68296 2.27399 0
M  V30 3535 H 342.958 1.4261 3.49202 0
M  V30 3536 H 345.345 0.646057 2.87941 0
M  V30 3537 H 345.426 1.93642 1.67142 0
M  V30 3538 H 345.07 3.6601 3.52135 0
M  V30 3539 H 345 2.34121 4.71694 0
M  V30 3540 H 347.491 2.032 3.18619 0
M  V30 3541 H 347.804 4.66898 6.15814 0
M  V30 3542 H 346.149 4.1934 5.54237 0
M  V30 3543 H 349.34 2.58764 3.90075 0
M  V30 3544 H 349.513 3.78994 5.25612 0
M  V30 3545 N 342.919 -1.39368 0.735821 0
M  V30 3546 C 344.335 -1.54204 0.411492 0
M  V30 3547 C 344.535 -1.70268 -1.07755 0
M  V30 3548 O 343.591 -1.70364 -1.86366 0
M  V30 3549 C 344.904 -2.75925 1.19523 0
M  V30 3550 C 346.452 -2.89761 1.18354 0
M  V30 3551 C 346.927 -4.14421 1.94986 0
M  V30 3552 N 348.418 -4.21462 1.92156 0
M  V30 3553 C 349.153 -5.16871 2.48258 0
M  V30 3554 N 348.649 -6.18063 3.13001 0
M  V30 3555 N 350.442 -5.09093 2.38287 0
M  V30 3556 H 342.593 -1.27189 1.70108 0
M  V30 3557 H 344.856 -0.616517 0.720147 0
M  V30 3558 H 344.562 -2.70401 2.24892 0
M  V30 3559 H 344.436 -3.68614 0.800222 0
M  V30 3560 H 346.823 -2.94777 0.137975 0
M  V30 3561 H 346.904 -1.98133 1.61793 0
M  V30 3562 H 346.548 -4.10166 2.99543 0
M  V30 3563 H 346.478 -5.05095 1.48953 0
M  V30 3564 H 348.969 -3.48979 1.44991 0
M  V30 3565 H 349.282 -6.87326 3.53275 0
M  V30 3566 H 347.627 -6.18448 3.17091 0
M  V30 3567 H 350.818 -4.28973 1.8735 0
M  V30 3568 H 350.991 -5.83272 2.82308 0
M  V30 3569 N 344.397 -0.483516 -1.5 0
M  V30 3570 C 345.808 -0.0314176 -1.86674 0
M  V30 3571 C 346.159 1.37728 -1.39733 0
M  V30 3572 O 345.284 2.02327 -0.767635 0
M  V30 3573 C 345.879 -0.0502376 -3.38763 0
M  V30 3574 C 344.438 0.346442 -3.74802 0
M  V30 3575 C 343.585 -0.430366 -2.7394 0
M  V30 3576 H 346.536 -0.697182 -1.42566 0
M  V30 3577 H 346.557 0.749116 -3.73053 0
M  V30 3578 H 346.069 -1.07563 -3.72897 0
M  V30 3579 H 344.17 1.37572 -3.46273 0
M  V30 3580 H 344.283 0.0391486 -4.79084 0
M  V30 3581 H 342.647 0.117557 -2.54429 0
M  V30 3582 H 343.43 -1.4555 -3.10918 0
M  V30 3583 N 345.875 1.56104 -0.216619 0
M  V30 3584 C 346.822 2.2007 0.695531 0
M  V30 3585 C 347.792 1.15471 1.19397 0
M  V30 3586 O 348.977 1.43807 1.25396 0
M  V30 3587 C 346.117 2.88073 1.90021 0
M  V30 3588 C 345.23 4.07253 1.44113 0
M  V30 3589 C 344.365 4.63052 2.603 0
M  V30 3590 C 343.404 5.74545 2.11103 0
M  V30 3591 N 342.541 6.24656 3.20545 0
M  V30 3592 H 347.381 2.97655 0.143327 0
M  V30 3593 H 344.918 1.46982 0.0589934 0
M  V30 3594 H 346.876 3.25681 2.60745 0
M  V30 3595 H 345.506 2.13015 2.42538 0
M  V30 3596 H 344.558 3.75164 0.628999 0
M  V30 3597 H 345.87 4.8783 1.04036 0
M  V30 3598 H 345.024 5.03078 3.39113 0
M  V30 3599 H 343.763 3.81628 3.03663 0
M  V30 3600 H 342.768 5.34027 1.3075 0
M  V30 3601 H 343.993 6.57801 1.68746 0
M  V30 3602 H 341.939 5.46148 3.63399 0
M  V30 3603 H 341.856 7.00343 2.84704 0
M  V30 3604 H 343.124 6.69338 3.99508 0
M  V30 3605 N 347.353 -0.0568162 1.57498 0
M  V30 3606 C 348.764 -0.606858 1.76562 0
M  V30 3607 C 349.115 -1.77114 0.844094 0
M  V30 3608 O 348.24 -2.16376 0.0318911 0
M  V30 3609 C 348.835 -1.10766 3.20182 0
M  V30 3610 C 347.394 -1.60344 3.40539 0
M  V30 3611 C 346.541 -0.529311 2.72201 0
M  V30 3612 H 349.492 0.169393 1.57793 0
M  V30 3613 H 349.513 -1.97602 3.25167 0
M  V30 3614 H 349.025 -0.26006 3.87228 0
M  V30 3615 H 347.126 -2.47379 2.78629 0
M  V30 3616 H 347.239 -1.67006 4.4905 0
M  V30 3617 H 345.603 -0.977893 2.35179 0
M  V30 3618 H 346.386 0.308352 3.41912 0
M  V30 3619 N 348.832 -1.54138 -0.328536 0
M  V30 3620 C 349.779 -1.83176 -1.40411 0
M  V30 3621 C 350.749 -0.678494 -1.5161 0
M  V30 3622 O 351.934 -0.92443 -1.6691 0
M  V30 3623 C 349.074 -2.06035 -2.76846 0
M  V30 3624 C 348.187 -3.33727 -2.74318 0
M  V30 3625 C 347.322 -3.46574 -4.02567 0
M  V30 3626 C 346.361 -4.68159 -3.94327 0
M  V30 3627 N 345.498 -4.77959 -5.14296 0
M  V30 3628 H 350.338 -2.74938 -1.14948 0
M  V30 3629 H 347.875 -1.36166 -0.556538 0
M  V30 3630 H 349.833 -2.1728 -3.56153 0
M  V30 3631 H 348.463 -1.1757 -3.00628 0
M  V30 3632 H 347.515 -3.31246 -1.8703 0
M  V30 3633 H 348.827 -4.23139 -2.64111 0
M  V30 3634 H 347.981 -3.57333 -4.90304 0
M  V30 3635 H 346.72 -2.55245 -4.15574 0
M  V30 3636 H 345.725 -4.57461 -3.04974 0
M  V30 3637 H 346.95 -5.60868 -3.82889 0
M  V30 3638 H 344.896 -3.89544 -5.27818 0
M  V30 3639 H 344.813 -5.6133 -5.06404 0
M  V30 3640 H 346.081 -4.93044 -6.03761 0
M  V30 3641 N 350.31 0.590341 -1.46126 0
M  V30 3642 C 351.559 1.34499 -1.50309 0
M  V30 3643 C 351.872 1.94977 -0.156021 0
M  V30 3644 O 353.078 2.71395 -0.0756037 0
M  V30 3645 C 351.534 2.43723 -2.64815 0
M  V30 3646 C 351.142 1.89582 -4.0591 0
M  V30 3647 C 352.886 3.20579 -2.78262 0
M  V30 3648 C 350.793 2.9639 -5.11769 0
M  V30 3649 H 349.723 0.505593 -0.559368 0
M  V30 3650 H 352.374 0.630848 -1.72315 0
M  V30 3651 H 350.756 3.17902 -2.36124 0
M  V30 3652 H 351.93 1.21997 -4.44357 0
M  V30 3653 H 350.245 1.25418 -3.97063 0
M  V30 3654 H 352.842 4.00276 -3.54519 0
M  V30 3655 H 353.185 3.72684 -1.85505 0
M  V30 3656 H 353.718 2.53505 -3.06562 0
M  V30 3657 H 350.457 2.49181 -6.06291 0
M  V30 3658 H 349.977 3.62487 -4.77873 0
M  V30 3659 H 351.656 3.60474 -5.37278 0
M  V30 3660 N 351.788 1.33704 0.83433 0
M  V30 3661 C 353.037 1.24763 1.58484 0
M  V30 3662 C 353.35 -0.183775 1.94735 0
M  V30 3663 O 354.556 -0.395234 2.68608 0
M  V30 3664 C 353.012 2.18638 2.85876 0
M  V30 3665 C 352.62 3.66974 2.56971 0
M  V30 3666 C 354.364 2.18581 3.63899 0
M  V30 3667 C 352.271 4.5275 3.80488 0
M  V30 3668 H 351.201 0.463425 0.594772 0
M  V30 3669 H 353.852 1.58797 0.919551 0
M  V30 3670 H 352.234 1.77542 3.5397 0
M  V30 3671 H 353.408 4.16538 1.9706 0
M  V30 3672 H 351.723 3.69366 1.92244 0
M  V30 3673 H 354.32 2.79894 4.55591 0
M  V30 3674 H 354.663 1.18207 3.99165 0
M  V30 3675 H 355.196 2.58062 3.02735 0
M  V30 3676 H 351.935 5.54017 3.5035 0
M  V30 3677 H 351.455 4.07927 4.39722 0
M  V30 3678 H 353.134 4.66784 4.4802 0
M  V30 3679 N 353.266 -1.05314 1.17247 0
M  V30 3680 C 354.198 -2.13023 0.845812 0
M  V30 3681 C 355.211 -1.62096 -0.151246 0
M  V30 3682 O 356.4 -1.78343 0.0748818 0
M  V30 3683 C 353.5 -3.38047 0.240292 0
M  V30 3684 C 352.673 -4.18255 1.27991 0
M  V30 3685 C 351.732 -5.21625 0.692375 0
M  V30 3686 O 350.758 -5.52619 1.36385 0
M  V30 3687 N 351.96 -5.78201 -0.516178 0
M  V30 3688 H 354.725 -2.41642 1.77283 0
M  V30 3689 H 352.286 -1.21401 1.07115 0
M  V30 3690 H 354.278 -4.04359 -0.16603 0
M  V30 3691 H 352.848 -3.06972 -0.590487 0
M  V30 3692 H 352.068 -3.47451 1.86203 0
M  V30 3693 H 353.356 -4.68643 1.98119 0
M  V30 3694 H 352.754 -5.55301 -1.07969 0
M  V30 3695 H 351.311 -6.4604 -0.86458 0
M  V30 3696 N 354.744 -0.972509 -1.24016 0
M  V30 3697 C 355.972 -0.654803 -1.96265 0
M  V30 3698 C 356.387 0.776708 -1.72083 0
M  V30 3699 O 355.744 1.52171 -1.00748 0
M  V30 3700 C 355.795 -0.92592 -3.49441 0
M  V30 3701 O 355.516 -2.30116 -3.72798 0
M  V30 3702 C 357.017 -0.623068 -4.38899 0
M  V30 3703 H 354.237 -0.243907 -0.6251 0
M  V30 3704 H 356.781 -1.30175 -1.57717 0
M  V30 3705 H 354.936 -0.325108 -3.86033 0
M  V30 3706 H 355.35 -2.38483 -4.67147 0
M  V30 3707 H 356.824 -0.863189 -5.45209 0
M  V30 3708 H 357.301 0.442754 -4.36963 0
M  V30 3709 H 357.907 -1.204 -4.07902 0
M  V30 3710 N 356.222 1.38976 -0.743202 0
M  V30 3711 C 357.638 1.53984 -0.419664 0
M  V30 3712 C 357.838 1.70837 1.0685 0
M  V30 3713 O 356.894 1.7135 1.8546 0
M  V30 3714 C 358.207 2.75287 -1.20985 0
M  V30 3715 C 359.755 2.89129 -1.19889 0
M  V30 3716 C 360.23 4.13381 -1.97181 0
M  V30 3717 N 361.721 4.20437 -1.94389 0
M  V30 3718 C 362.456 5.15547 -2.50996 0
M  V30 3719 N 361.952 6.16395 -3.16274 0
M  V30 3720 N 363.745 5.07822 -2.40984 0
M  V30 3721 H 355.896 1.26285 -1.7078 0
M  V30 3722 H 358.159 0.612689 -0.723406 0
M  V30 3723 H 357.865 2.69204 -2.26323 0
M  V30 3724 H 357.739 3.68184 -0.819759 0
M  V30 3725 H 360.126 2.947 -0.153606 0
M  V30 3726 H 360.207 1.97272 -1.62841 0
M  V30 3727 H 359.851 4.08572 -3.01714 0
M  V30 3728 H 359.781 5.04298 -1.51629 0
M  V30 3729 H 362.272 3.48205 -1.46839 0
M  V30 3730 H 362.585 6.85443 -3.56915 0
M  V30 3731 H 360.93 6.16758 -3.20367 0
M  V30 3732 H 364.121 4.27973 -1.89622 0
M  V30 3733 H 364.294 5.81767 -2.85397 0
M  V30 3734 N 357.7 0.491464 1.49741 0
M  V30 3735 C 359.116 0.146835 1.58923 0
M  V30 3736 C 359.316 -1.34804 1.49767 0
M  V30 3737 O 358.372 -2.12317 1.36667 0
M  V30 3738 C 359.685 0.715157 2.92072 0
M  V30 3739 C 361.233 0.680407 3.05515 0
M  V30 3740 C 361.708 1.22663 4.41269 0
M  V30 3741 N 363.199 1.18691 4.47735 0
M  V30 3742 C 363.934 1.57984 5.51207 0
M  V30 3743 N 363.43 2.04824 6.6183 0
M  V30 3744 N 365.223 1.49459 5.41866 0
M  V30 3745 H 357.374 1.46347 1.53936 0
M  V30 3746 H 359.637 0.606453 0.728642 0
M  V30 3747 H 359.343 1.76317 3.04311 0
M  V30 3748 H 359.217 0.17018 3.76816 0
M  V30 3749 H 361.604 -0.358743 2.92911 0
M  V30 3750 H 361.685 1.26242 2.22478 0
M  V30 3751 H 361.329 2.26451 4.54623 0
M  V30 3752 H 361.259 0.620637 5.2293 0
M  V30 3753 H 363.75 0.843605 3.68364 0
M  V30 3754 H 364.063 2.32901 7.3687 0
M  V30 3755 H 362.408 2.08791 6.62896 0
M  V30 3756 H 365.599 1.12692 4.54333 0
M  V30 3757 H 365.772 1.80406 6.22381 0
M  V30 3758 N 359.178 -1.55987 0.224894 0
M  V30 3759 C 360.589 -1.84553 -0.282345 0
M  V30 3760 C 360.94 -1.14634 -1.59227 0
M  V30 3761 O 360.065 -0.417155 -2.12341 0
M  V30 3762 C 360.66 -3.348 -0.519062 0
M  V30 3763 C 359.219 -3.63671 -0.970604 0
M  V30 3764 C 358.366 -2.77277 -0.0355261 0
M  V30 3765 H 361.317 -1.52245 0.448006 0
M  V30 3766 H 361.338 -3.55187 -1.36463 0
M  V30 3767 H 360.85 -3.8566 0.43449 0
M  V30 3768 H 358.951 -3.1827 -1.9374 0
M  V30 3769 H 359.064 -4.71631 -0.842698 0
M  V30 3770 H 357.428 -2.48846 -0.542927 0
M  V30 3771 H 358.211 -3.30937 0.913003 0
M  V30 3772 N 360.656 0.0484629 -1.57525 0
M  V30 3773 C 361.566 1.07241 -2.08654 0
M  V30 3774 C 362.582 1.409 -1.02095 0
M  V30 3775 O 363.758 1.50609 -1.33712 0
M  V30 3776 C 360.823 2.36008 -2.5397 0
M  V30 3777 C 359.884 2.09108 -3.7493 0
M  V30 3778 C 359.117 3.31736 -4.18075 0
M  V30 3779 O 359.34 4.41714 -3.60895 0
M  V30 3780 O 358.274 3.18576 -5.10679 0
M  V30 3781 H 362.1 0.667965 -2.96263 0
M  V30 3782 H 359.685 0.26417 -1.47046 0
M  V30 3783 H 361.567 3.11747 -2.83535 0
M  V30 3784 H 360.242 2.75786 -1.69481 0
M  V30 3785 H 359.149 1.31 -3.50414 0
M  V30 3786 H 360.482 1.74198 -4.60343 0
M  V30 3787 N 362.134 1.5431 0.320358 0
M  V30 3788 C 363.364 1.7638 1.07582 0
M  V30 3789 C 363.772 0.513944 1.82086 0
M  V30 3790 O 363.115 -0.525123 1.76035 0
M  V30 3791 C 363.177 2.9055 2.1171 0
M  V30 3792 C 362.841 4.2934 1.56575 0
M  V30 3793 C 363.838 5.10077 1.00586 0
M  V30 3794 C 361.523 4.75893 1.60722 0
M  V30 3795 C 363.517 6.35477 0.494756 0
M  V30 3796 C 361.204 6.0126 1.09224 0
M  V30 3797 C 362.202 6.80886 0.53696 0
M  V30 3798 O 361.89 8.03894 0.0297371 0
M  V30 3799 H 361.622 0.592369 0.325692 0
M  V30 3800 H 364.176 2.02019 0.37116 0
M  V30 3801 H 362.406 2.60489 2.85801 0
M  V30 3802 H 364.095 3.00373 2.73003 0
M  V30 3803 H 364.861 4.75265 0.966869 0
M  V30 3804 H 360.74 4.13957 2.02882 0
M  V30 3805 H 364.284 6.97574 0.0606842 0
M  V30 3806 H 360.181 6.35562 1.12831 0
M  V30 3807 H 360.949 8.18372 0.14486 0
M  V30 3808 N 363.613 -0.582584 1.46437 0
M  V30 3809 C 364.841 -1.36682 1.55324 0
M  V30 3810 C 365.256 -1.87796 0.194409 0
M  V30 3811 O 364.613 -1.63623 -0.808318 0
M  V30 3812 C 364.664 -2.55426 2.55812 0
M  V30 3813 O 364.385 -2.0643 3.86417 0
M  V30 3814 C 365.886 -3.47976 2.74641 0
M  V30 3815 H 363.106 -0.417545 0.525259 0
M  V30 3816 H 365.65 -0.708219 1.91845 0
M  V30 3817 H 363.805 -3.17275 2.22295 0
M  V30 3818 H 364.219 -2.83762 4.41111 0
M  V30 3819 H 365.693 -4.27775 3.48874 0
M  V30 3820 H 366.17 -3.99919 1.81553 0
M  V30 3821 H 366.776 -2.91962 3.09255 0
M  V30 3822 N 365.091 -1.34144 -0.827227 0
M  V30 3823 C 366.502 -1.23557 -1.39966 0
M  V30 3824 C 366.853 0.140731 -1.95695 0
M  V30 3825 O 365.978 1.04087 -1.89723 0
M  V30 3826 C 366.573 -2.23708 -2.54441 0
M  V30 3827 C 365.132 -2.16924 -3.07605 0
M  V30 3828 C 364.279 -2.10549 -1.80456 0
M  V30 3829 H 367.23 -1.45573 -0.631991 0
M  V30 3830 H 367.251 -1.85157 -3.32411 0
M  V30 3831 H 366.763 -3.23866 -2.13851 0
M  V30 3832 H 364.864 -1.20107 -3.52711 0
M  V30 3833 H 364.977 -3.07988 -3.66988 0
M  V30 3834 H 363.341 -1.56203 -2.01178 0
M  V30 3835 H 364.124 -3.12535 -1.42046 0
M  V30 3836 N 366.569 1.04691 -1.17803 0
M  V30 3837 C 367.818 1.77176 -0.963931 0
M  V30 3838 C 368.131 1.88888 0.508015 0
M  V30 3839 O 369.337 2.58164 0.840465 0
M  V30 3840 C 367.793 3.18518 -1.67555 0
M  V30 3841 C 367.401 3.14919 -3.18637 0
M  V30 3842 C 369.145 3.95424 -1.54402 0
M  V30 3843 C 367.052 4.51081 -3.82466 0
M  V30 3844 H 365.982 0.664116 -0.357023 0
M  V30 3845 H 368.633 1.17303 -1.4111 0
M  V30 3846 H 367.015 3.78748 -1.15613 0
M  V30 3847 H 368.189 2.64178 -3.77554 0
M  V30 3848 H 366.504 2.51512 -3.31859 0
M  V30 3849 H 369.101 4.96106 -1.99456 0
M  V30 3850 H 369.444 4.13343 -0.495329 0
M  V30 3851 H 369.977 3.41754 -2.0359 0
M  V30 3852 H 366.716 4.38368 -4.87354 0
M  V30 3853 H 366.236 5.01951 -3.28337 0
M  V30 3854 H 367.915 5.2001 -3.84965 0
M  V30 3855 N 368.047 0.979072 1.23499 0
M  V30 3856 C 368.997 0.489378 2.22686 0
M  V30 3857 C 369.981 -0.434871 1.54912 0
M  V30 3858 O 371.173 -0.263941 1.75021 0
M  V30 3859 C 368.302 -0.208178 3.42668 0
M  V30 3860 C 367.388 0.735563 4.17672 0
M  V30 3861 N 367.779 1.87763 4.69658 0
M  V30 3862 C 366.077 0.548625 4.42613 0
M  V30 3863 C 366.778 2.46886 5.26709 0
M  V30 3864 N 365.754 1.75287 5.14563 0
M  V30 3865 H 369.556 1.36062 2.60508 0
M  V30 3866 H 367.07 0.83958 1.39014 0
M  V30 3867 H 369.067 -0.576295 4.12898 0
M  V30 3868 H 367.727 -1.07572 3.06363 0
M  V30 3869 H 368.738 2.25885 4.66043 0
M  V30 3870 H 365.415 -0.274006 4.166 0
M  V30 3871 H 366.805 3.43326 5.77561 0
M  V30 3872 N 369.525 -1.3858 0.750561 0
M  V30 3873 C 370.455 -2.33102 0.136237 0
M  V30 3874 C 371.436 -1.54713 -0.706965 0
M  V30 3875 O 372.621 -1.83043 -0.648769 0
M  V30 3876 C 369.751 -3.38882 -0.760017 0
M  V30 3877 C 368.705 -4.27995 -0.0197785 0
M  V30 3878 C 368.031 -5.24605 -1.03408 0
M  V30 3879 C 369.331 -5.09554 1.14684 0
M  V30 3880 H 371.025 -2.84726 0.925822 0
M  V30 3881 H 368.571 -1.36898 0.446654 0
M  V30 3882 H 370.524 -4.0397 -1.19943 0
M  V30 3883 H 369.248 -2.85734 -1.58189 0
M  V30 3884 H 367.907 -3.64409 0.400184 0
M  V30 3885 H 367.555 -4.67746 -1.84994 0
M  V30 3886 H 367.255 -5.85081 -0.543464 0
M  V30 3887 H 368.779 -5.9257 -1.47288 0
M  V30 3888 H 370.193 -5.67899 0.785118 0
M  V30 3889 H 368.59 -5.7925 1.56812 0
M  V30 3890 H 369.66 -4.4347 1.96118 0
M  V30 3891 N 371.003 -0.499398 -1.49478 0
M  V30 3892 C 372.228 0.044722 -2.07352 0
M  V30 3893 C 372.653 1.30207 -1.35749 0
M  V30 3894 O 372.011 1.76516 -0.413732 0
M  V30 3895 C 372.059 0.283013 -3.59488 0
M  V30 3896 O 371.163 1.35804 -3.89398 0
M  V30 3897 H 370.504 -0.0255147 -0.66351 0
M  V30 3898 H 373.034 -0.698561 -1.92305 0
M  V30 3899 H 373.044 0.515007 -4.04737 0
M  V30 3900 H 371.719 -0.635636 -4.11014 0
M  V30 3901 H 370.296 1.11113 -3.55961 0
M  V30 3902 O 372.52 1.5709 -0.374834 0
M  V30 3903 H 373.211 1.9292 0.173648 0
M  V30 END ATOM
M  V30 BEGIN BOND
M  V30 END BOND
M  V30 END CTAB
M  END
$$$$
