643976
  -OEChem-10051720123D

 52 54  0     1  0  0  0  0  0999 V2000
    5.6846   -0.1430    1.6343 P   0  0  0  0  0  0  0  0  0  0  0  0
    0.5625    1.9804    0.1159 O   0  0  0  0  0  0  0  0  0  0  0  0
    2.4334    0.4902   -2.6661 O   0  0  0  0  0  0  0  0  0  0  0  0
    4.3943    2.2246   -1.7277 O   0  0  0  0  0  0  0  0  0  0  0  0
    4.9750    0.9714    0.7044 O   0  0  0  0  0  0  0  0  0  0  0  0
   -5.3104    0.8895    1.9591 O   0  0  0  0  0  0  0  0  0  0  0  0
   -3.2026    4.4357   -0.0664 O   0  0  0  0  0  0  0  0  0  0  0  0
    5.9762   -1.3657    0.6168 O   0  0  0  0  0  0  0  0  0  0  0  0
    4.4563   -0.6909    2.5320 O   0  0  0  0  0  0  0  0  0  0  0  0
    6.8728    0.3406    2.4134 O   0  0  0  0  0  0  0  0  0  0  0  0
   -1.4166    0.1960   -0.8204 N   0  0  0  0  0  0  0  0  0  0  0  0
   -3.4972   -0.7673    0.8439 N   0  0  0  0  0  0  0  0  0  0  0  0
   -2.3263    2.3685   -0.4385 N   0  0  0  0  0  0  0  0  0  0  0  0
   -4.2576    2.6991    0.9424 N   0  0  0  0  0  0  0  0  0  0  0  0
    0.9095    0.9783   -0.8409 C   0  0  2  0  0  0  0  0  0  0  0  0
    2.0935    1.4770   -1.6930 C   0  0  1  0  0  0  0  0  0  0  0  0
   -0.3307    0.6578   -1.6836 C   0  0  0  0  0  0  0  0  0  0  0  0
    3.3468    1.7955   -0.8557 C   0  0  1  0  0  0  0  0  0  0  0  0
   -1.5176   -1.1884   -0.5599 C   0  0  0  0  0  0  0  0  0  0  0  0
   -2.3323    1.0801   -0.2621 C   0  0  0  0  0  0  0  0  0  0  0  0
   -2.5616   -1.6433    0.2711 C   0  0  0  0  0  0  0  0  0  0  0  0
    3.8404    0.5849   -0.0647 C   0  0  0  0  0  0  0  0  0  0  0  0
   -0.6303   -2.1461   -1.0859 C   0  0  0  0  0  0  0  0  0  0  0  0
   -3.4118    0.5022    0.6113 C   0  0  0  0  0  0  0  0  0  0  0  0
   -0.7733   -3.5061   -0.7984 C   0  0  0  0  0  0  0  0  0  0  0  0
   -2.6965   -3.0113    0.5535 C   0  0  0  0  0  0  0  0  0  0  0  0
   -1.8067   -3.9393    0.0213 C   0  0  0  0  0  0  0  0  0  0  0  0
   -4.4415    1.3728    1.2539 C   0  0  0  0  0  0  0  0  0  0  0  0
    0.1991   -4.4767   -1.3852 C   0  0  0  0  0  0  0  0  0  0  0  0
   -1.9815   -5.3859    0.3458 C   0  0  0  0  0  0  0  0  0  0  0  0
   -3.2500    3.2193    0.1295 C   0  0  0  0  0  0  0  0  0  0  0  0
    1.1939    0.0718   -0.2976 H   0  0  0  0  0  0  0  0  0  0  0  0
    1.8021    2.3825   -2.2397 H   0  0  0  0  0  0  0  0  0  0  0  0
   -0.6527    1.5811   -2.1847 H   0  0  0  0  0  0  0  0  0  0  0  0
   -0.1197   -0.0262   -2.5114 H   0  0  0  0  0  0  0  0  0  0  0  0
    3.1437    2.6282   -0.1724 H   0  0  0  0  0  0  0  0  0  0  0  0
    3.0767    0.2168    0.6226 H   0  0  0  0  0  0  0  0  0  0  0  0
    4.1412   -0.2201   -0.7424 H   0  0  0  0  0  0  0  0  0  0  0  0
    0.2046   -1.8560   -1.7163 H   0  0  0  0  0  0  0  0  0  0  0  0
   -0.0205    1.5658    0.7739 H   0  0  0  0  0  0  0  0  0  0  0  0
   -3.5094   -3.3417    1.1974 H   0  0  0  0  0  0  0  0  0  0  0  0
    3.1811    0.8356   -3.1832 H   0  0  0  0  0  0  0  0  0  0  0  0
    5.1747    2.4081   -1.1770 H   0  0  0  0  0  0  0  0  0  0  0  0
    0.9498   -3.9776   -2.0078 H   0  0  0  0  0  0  0  0  0  0  0  0
    0.7388   -5.0073   -0.5939 H   0  0  0  0  0  0  0  0  0  0  0  0
   -0.3172   -5.2016   -2.0230 H   0  0  0  0  0  0  0  0  0  0  0  0
   -2.8426   -5.5539    1.0020 H   0  0  0  0  0  0  0  0  0  0  0  0
   -2.1526   -5.9680   -0.5656 H   0  0  0  0  0  0  0  0  0  0  0  0
   -1.0995   -5.7741    0.8656 H   0  0  0  0  0  0  0  0  0  0  0  0
   -4.9158    3.3635    1.3395 H   0  0  0  0  0  0  0  0  0  0  0  0
    6.4661   -2.1496    0.9450 H   0  0  0  0  0  0  0  0  0  0  0  0
    4.6438   -1.3256    3.2559 H   0  0  0  0  0  0  0  0  0  0  0  0
  1  5  1  0  0  0  0
  1  8  1  0  0  0  0
  1  9  1  0  0  0  0
  1 10  2  0  0  0  0
  2 15  1  0  0  0  0
  2 40  1  0  0  0  0
  3 16  1  0  0  0  0
  3 42  1  0  0  0  0
  4 18  1  0  0  0  0
  4 43  1  0  0  0  0
  5 22  1  0  0  0  0
  6 28  2  0  0  0  0
  7 31  2  0  0  0  0
  8 51  1  0  0  0  0
  9 52  1  0  0  0  0
 11 17  1  0  0  0  0
 11 19  1  0  0  0  0
 11 20  1  0  0  0  0
 12 21  1  0  0  0  0
 12 24  2  0  0  0  0
 13 20  2  0  0  0  0
 13 31  1  0  0  0  0
 14 28  1  0  0  0  0
 14 31  1  0  0  0  0
 14 50  1  0  0  0  0
 15 16  1  0  0  0  0
 15 17  1  0  0  0  0
 15 32  1  0  0  0  0
 16 18  1  0  0  0  0
 16 33  1  0  0  0  0
 17 34  1  0  0  0  0
 17 35  1  0  0  0  0
 18 22  1  0  0  0  0
 18 36  1  0  0  0  0
 19 21  2  0  0  0  0
 19 23  1  0  0  0  0
 20 24  1  0  0  0  0
 21 26  1  0  0  0  0
 22 37  1  0  0  0  0
 22 38  1  0  0  0  0
 23 25  2  0  0  0  0
 23 39  1  0  0  0  0
 24 28  1  0  0  0  0
 25 27  1  0  0  0  0
 25 29  1  0  0  0  0
 26 27  2  0  0  0  0
 26 41  1  0  0  0  0
 27 30  1  0  0  0  0
 29 44  1  0  0  0  0
 29 45  1  0  0  0  0
 29 46  1  0  0  0  0
 30 47  1  0  0  0  0
 30 48  1  0  0  0  0
 30 49  1  0  0  0  0
M  END
> <DATABASE_ID>
DB03247

> <DATABASE_NAME>
drugbank

> <ORIGINAL_SOURCE>
PUBCHEM

> <ORIGINAL_SOURCE_URL>
https://pubchem.ncbi.nlm.nih.gov/rest/pug/compound/inchikey/FVTCRASFADXXNN-SCRDCRAPSA-N/SDF?record_type=3d

> <SMILES>
CC1=CC2=C(C=C1C)N(C[C@H](O)[C@H](O)[C@H](O)COP(O)(O)=O)C1=NC(=O)NC(=O)C1=N2

> <INCHI_IDENTIFIER>
InChI=1S/C17H21N4O9P/c1-7-3-9-10(4-8(7)2)21(15-13(18-9)16(25)20-17(26)19-15)5-11(22)14(24)12(23)6-30-31(27,28)29/h3-4,11-12,14,22-24H,5-6H2,1-2H3,(H,20,25,26)(H2,27,28,29)/t11-,12+,14-/m0/s1

> <INCHI_KEY>
FVTCRASFADXXNN-SCRDCRAPSA-N

> <FORMULA>
C17H21N4O9P

> <MOLECULAR_WEIGHT>
456.3438

> <EXACT_MASS>
456.104614802

> <JCHEM_ACCEPTOR_COUNT>
11

> <JCHEM_AVERAGE_POLARIZABILITY>
42.1886375315084

> <JCHEM_BIOAVAILABILITY>
0

> <JCHEM_DONOR_COUNT>
6

> <JCHEM_FORMAL_CHARGE>
0

> <JCHEM_GHOSE_FILTER>
0

> <JCHEM_IUPAC>
{[(2R,3S,4S)-5-{7,8-dimethyl-2,4-dioxo-2H,3H,4H,10H-benzo[g]pteridin-10-yl}-2,3,4-trihydroxypentyl]oxy}phosphonic acid

> <ALOGPS_LOGP>
-0.78

> <JCHEM_LOGP>
-1.0401062913333337

> <ALOGPS_LOGS>
-2.83

> <JCHEM_MDDR_LIKE_RULE>
1

> <JCHEM_NUMBER_OF_RINGS>
3

> <JCHEM_PHYSIOLOGICAL_CHARGE>
-3

> <JCHEM_PKA>
6.386549723024499

> <JCHEM_PKA_STRONGEST_ACIDIC>
1.5655322373257148

> <JCHEM_PKA_STRONGEST_BASIC>
0.6840941658354175

> <JCHEM_POLAR_SURFACE_AREA>
201.57999999999998

> <JCHEM_REFRACTIVITY>
107.14129999999999

> <JCHEM_ROTATABLE_BOND_COUNT>
7

> <JCHEM_RULE_OF_FIVE>
0

> <ALOGPS_SOLUBILITY>
6.68e-01 g/l

> <JCHEM_TRADITIONAL_IUPAC>
riboflavin 5'-phosphate

> <JCHEM_VEBER_RULE>
0

> <DRUGBANK_ID>
DB03247

> <SECONDARY_ACCESSION_NUMBERS>
EXPT01458

> <DRUG_GROUPS>
approved; investigational

> <GENERIC_NAME>
Flavin mononucleotide

> <SYNONYMS>
FMN; riboflavin 5'-(dihydrogen phosphate); riboflavin 5'-monophosphate; riboflavin 5'-phosphate; Riboflavin monophosphate; Riboflavin phosphate; Riboflavin-5-phosphate; riboflavine dihydrogen phosphate; Vitamin B2 (riboflavin-5-phosphate); Vitamin B2 phosphate

> <PRODUCTS>
Adult Infuvite Multiple Vitamins; Alsimine W Vitamins A D; B Complex W C and B12 Inj; B Virol; B-plex 100; Beminal Fortis Elx; Beminal With C Fortis Pws; BumP DHA; Dynam Ampoule Et Tablet; Floriva Plus; Fortaplex Inj; Gtf Support Caplet; Hemarexin Amp; Hemarexin Liquid and Drinkable Ampoules; Infa Drops Multivitamins; Infuvite Adult Multiple Vitamins; Kanga Sport Vitamins B & C Plus Minerals; Kanga-B Vitamin B Group + C; Kanga-kid Multi-vitamin & Mineral; Kenwood Liquid Supplement; M.V.I. 12; M.V.I. Adult; M.V.I. Paediatric; M.V.I. Pediatric; M.V.I.-12; Maxi 6 Liq; Multi Vitamin Drops with Fluoride; Multi Vitamin Drops with Fluoride and Iron; Multi Vitamin Drops with Fluoride with Iron; Multi Vitamin and Fluoride; Multi Vitamin, Iron and Fluoride; Multi-Vit with Fluoride; Multi-Vit with Fluoride and Iron; Multi-Vitamin Drops with Fluoride and Iron; Multi-Vitamin Fluoride; Multi-Vitamin with Fluoride; MultiVitamin Drops with Fluoride and Iron; MultiVitamin with Fluoride Drops; MultiVitamin, Iron and Fluoride Drops; Multisol; Multivit Et Fer Ampoules Et Comprimes; Multivitamin Drops with Fluoride; Mvc 9 Plus 3 Inj; Mvc 9+4 Inj; Neo Bex Elixir; Neo-bex Injectable; Nrg Plus Liq; Paramettes Syrup; Pediatric Infuvite Multiple Vitamins; Pediatric Infuvite Multiple Vitamins for Infusion; Photrexa; Photrexa Cross-linking Kit; Photrexa Viscous; Revitex Ampoules Et Comprimes; Riboflavin Inj 50mg/ml; Somarexin and C 1000; Super Vitalex Ampoule Buvable; Supravite 10ml Ampoule; Supravite C 1000; Tini-cal Ampoules; Toni Com Liq; Tonicol Et A-D-C Ampoules/comprimes; Ultra Enerforce; Vitamin B Complex; Vitamin B Complex 100; Vitamin B-Complex; Vitamin and Mineral Supplement - Liq; Vitamine 110 Liq

> <SALTS>
Riboflavin 5'-phosphate sodium; Riboflavin 5'-phosphate sodium anhydrous

$$$$