drugbank_target|O07529 FMN-dependent NADPH-azoreductase (DB03247)
 OpenBabel12092120273D

  0  0  0     0  0            999 V3000
M  V30 BEGIN CTAB
M  V30 COUNTS 2697 2717 0 0 0
M  V30 BEGIN ATOM
M  V30 1 H -0.908 1.98254 -0.117106 0
M  V30 2 N 0 1.576 0 0
M  V30 3 C 0.933 2.03868 1.02534 0
M  V30 4 C 1.911 0.928543 1.3348 0
M  V30 5 O 3.095 1.19667 1.45644 0
M  V30 6 C 0.222 2.43627 2.35294 0
M  V30 7 C -0.732 3.65373 2.2001 0
M  V30 8 S 0.101 5.13292 1.52614 0
M  V30 9 C 1.257 5.56322 2.86805 0
M  V30 10 H 1.49 2.90518 0.631377 0
M  V30 11 H -0.977 1.52953 0.210867 0
M  V30 12 H 0.981 2.67203 3.11629 0
M  V30 13 H -0.358 1.57376 2.7183 0
M  V30 14 H -1.165 3.90944 3.18086 0
M  V30 15 H -1.563 3.418 1.51819 0
M  V30 16 H 0.729 5.58782 3.83104 0
M  V30 17 H 1.672 6.56266 2.65933 0
M  V30 18 H 2.08 4.83886 2.90714 0
M  V30 19 N 1.4781 -0.272755 1.55222 0
M  V30 20 C 2.4261 -1.35705 1.88909 0
M  V30 21 C 3.4201 -1.5112 0.765456 0
M  V30 22 O 4.6261 -1.52901 0.949802 0
M  V30 23 H 1.0011 -0.453868 0.59959 0
M  V30 24 H 2.9721 -1.04544 2.79487 0
M  V30 25 C 1.7211 -2.71049 2.17779 0
M  V30 26 H 1.0441 -2.59979 3.03728 0
M  V30 27 H 2.4841 -3.45858 2.45272 0
M  V30 28 C 0.9431 -3.22165 0.985473 0
M  V30 29 O 1.4731 -4.01096 0.220233 0
M  V30 30 N -0.3209 -2.7985 0.783108 0
M  V30 31 H -0.7739 -2.15775 1.40708 0
M  V30 32 H -0.8159 -3.14397 -0.0130392 0
M  V30 33 N 2.9562 -1.48159 -0.537278 0
M  V30 34 C 3.8892 -1.567 -1.65893 0
M  V30 35 C 4.8672 -0.41787 -1.57139 0
M  V30 36 O 6.0512 -0.628461 -1.77715 0
M  V30 37 C 3.1782 -1.48818 -3.04255 0
M  V30 38 C 2.2242 -2.68482 -3.31391 0
M  V30 39 S 3.0572 -4.30516 -3.1846 0
M  V30 40 C 4.2132 -4.2522 -4.59281 0
M  V30 41 H 4.4462 -2.5159 -1.58397 0
M  V30 42 H 1.9792 -1.36602 -0.719672 0
M  V30 43 H 3.9372 -1.44958 -3.84054 0
M  V30 44 H 2.5982 -0.552777 -3.09198 0
M  V30 45 H 1.7912 -2.59085 -4.32309 0
M  V30 46 H 1.3932 -2.69567 -2.59248 0
M  V30 47 H 3.6852 -3.94703 -5.5065 0
M  V30 48 H 4.6282 -5.26292 -4.73732 0
M  V30 49 H 5.0362 -3.55791 -4.38261 0
M  V30 50 N 4.4343 0.785586 -1.36625 0
M  V30 51 C 5.3643 1.91259 -1.33949 0
M  V30 52 C 6.3453 1.68795 -0.210325 0
M  V30 53 O 7.5303 1.89854 -0.408561 0
M  V30 54 C 4.6603 3.28339 -1.13186 0
M  V30 55 C 3.6143 3.65335 -2.22967 0
M  V30 56 C 2.9403 5.00806 -1.87342 0
M  V30 57 C 4.2403 3.7352 -3.65075 0
M  V30 58 H 5.9343 1.93755 -2.28253 0
M  V30 59 H 3.4803 0.930788 -1.09874 0
M  V30 60 H 5.4333 4.06804 -1.09948 0
M  V30 61 H 4.1573 3.2624 -0.153332 0
M  V30 62 H 2.8163 2.89169 -2.25337 0
M  V30 63 H 2.4643 4.95233 -0.880545 0
M  V30 64 H 2.1643 5.26529 -2.60846 0
M  V30 65 H 3.6883 5.81687 -1.85667 0
M  V30 66 H 5.1023 4.42168 -3.64911 0
M  V30 67 H 3.4993 4.10731 -4.37516 0
M  V30 68 H 4.5693 2.74527 -3.99703 0
M  V30 69 N 5.9124 1.20967 1.01018 0
M  V30 70 C 7.1584 1.02526 1.74975 0
M  V30 71 C 7.4914 -0.4408 1.89131 0
M  V30 72 O 6.7664 -1.32718 1.42184 0
M  V30 73 C 7.0494 1.71699 3.1653 0
M  V30 74 C 6.9024 3.25791 3.10129 0
M  V30 75 C 8.2214 1.45531 4.15342 0
M  V30 76 H 5.3404 0.373863 0.635134 0
M  V30 77 H 7.9824 1.49071 1.17805 0
M  V30 78 H 6.1324 1.32128 3.65341 0
M  V30 79 H 7.8044 3.74697 2.69072 0
M  V30 80 H 6.0474 3.56363 2.47362 0
M  V30 81 H 6.7184 3.69353 4.10222 0
M  V30 82 H 9.1944 1.79872 3.75213 0
M  V30 83 H 8.0704 1.96453 5.1254 0
M  V30 84 H 8.3314 0.384237 4.40427 0
M  V30 85 N 7.3905 -1.2043 1.01659 0
M  V30 86 C 8.6395 -1.89118 0.701237 0
M  V30 87 C 8.9525 -1.79705 -0.772358 0
M  V30 88 O 10.1585 -2.43528 -1.20026 0
M  V30 89 C 8.6145 -3.39168 1.20388 0
M  V30 90 C 8.2225 -3.57166 2.70438 0
M  V30 91 C 9.9665 -4.1341 0.963953 0
M  V30 92 C 7.8735 -5.01042 3.14183 0
M  V30 93 H 6.8035 -0.708267 0.2586 0
M  V30 94 H 9.4545 -1.36239 1.22927 0
M  V30 95 H 7.8365 -3.91369 0.603824 0
M  V30 96 H 9.0105 -3.15351 3.35992 0
M  V30 97 H 7.3255 -2.96294 2.92572 0
M  V30 98 H 9.9225 -5.19491 1.26621 0
M  V30 99 H 10.2655 -4.16181 -0.099578 0
M  V30 100 H 10.7985 -3.67309 1.52738 0
M  V30 101 H 7.5375 -5.03426 4.19812 0
M  V30 102 H 7.0575 -5.43668 2.53348 0
M  V30 103 H 8.7365 -5.69623 3.0682 0
M  V30 104 N 8.8686 -0.792821 -1.36206 0
M  V30 105 C 9.8166 -0.181555 -2.3189 0
M  V30 106 C 10.8106 0.661025 -1.55971 0
M  V30 107 O 12.0166 0.555728 -1.71206 0
M  V30 108 H 8.3916 -0.0399382 -0.750939 0
M  V30 109 H 10.3626 -1.00394 -2.81005 0
M  V30 110 C 9.1116 0.666444 -3.41253 0
M  V30 111 H 8.4346 0.0274489 -3.99791 0
M  V30 112 H 9.8746 1.06076 -4.10517 0
M  V30 113 C 8.3336 1.82614 -2.83114 0
M  V30 114 O 8.8636 2.9229 -2.75553 0
M  V30 115 N 7.0696 1.63333 -2.40356 0
M  V30 116 H 6.6166 0.741217 -2.46706 0
M  V30 117 H 6.5746 2.41087 -2.01803 0
M  V30 118 N 10.3467 1.47872 -0.545128 0
M  V30 119 C 11.5947 2.02093 -0.016553 0
M  V30 120 C 11.9157 1.42305 1.3332 0
M  V30 121 O 11.1857 0.593853 1.86682 0
M  V30 122 H 9.7657 0.746993 -0.00313038 0
M  V30 123 H 12.4277 1.81414 -0.712397 0
M  V30 124 H 11.5237 3.11996 0.0805422 0
M  V30 125 N 11.8248 0.280983 1.55075 0
M  V30 126 C 13.0528 -0.337293 2.04132 0
M  V30 127 C 13.4678 -1.4903 1.15912 0
M  V30 128 O 12.8248 -1.81606 0.180459 0
M  V30 129 C 12.8758 -0.812706 3.52246 0
M  V30 130 O 12.5968 0.294387 4.3711 0
M  V30 131 C 14.0978 -1.4982 4.17216 0
M  V30 132 H 11.3178 -0.0761638 0.666663 0
M  V30 133 H 13.8618 0.414787 2.00249 0
M  V30 134 H 12.0168 -1.51486 3.56554 0
M  V30 135 H 12.4308 -0.0721325 5.2445 0
M  V30 136 H 13.9048 -1.7822 5.22438 0
M  V30 137 H 14.3818 -2.43168 3.65741 0
M  V30 138 H 14.9878 -0.839742 4.16927 0
M  V30 139 N 13.3029 -1.57598 0.00835791 0
M  V30 140 C 14.7139 -1.7892 -0.53333 0
M  V30 141 C 15.0649 -0.916609 -1.73473 0
M  V30 142 O 14.1899 -0.121336 -2.1606 0
M  V30 143 C 14.7849 -3.24488 -0.974313 0
M  V30 144 C 13.3439 -3.46878 -1.46125 0
M  V30 145 C 12.4909 -2.74157 -0.416302 0
M  V30 146 H 15.4419 -1.56958 0.234495 0
M  V30 147 H 15.4629 -3.3306 -1.83988 0
M  V30 148 H 14.9749 -3.87972 -0.099718 0
M  V30 149 H 13.0759 -2.8862 -2.35646 0
M  V30 150 H 13.1889 -4.55572 -1.48295 0
M  V30 151 H 11.5529 -2.39022 -0.87981 0
M  V30 152 H 12.3359 -3.40345 0.44947 0
M  V30 153 N 14.781 0.264519 -1.55364 0
M  V30 154 C 16.197 0.61215 -1.47394 0
M  V30 155 C 16.397 1.89134 -0.695018 0
M  V30 156 O 15.453 2.51563 -0.217275 0
M  V30 157 C 16.766 0.731235 -2.91674 0
M  V30 158 C 18.314 0.82473 -3.01939 0
M  V30 159 C 18.789 0.975522 -4.4749 0
M  V30 160 N 20.28 1.04083 -4.51354 0
M  V30 161 C 21.015 1.17646 -5.61201 0
M  V30 162 N 20.511 1.27874 -6.80896 0
M  V30 163 N 22.304 1.20823 -5.48961 0
M  V30 164 H 14.455 -0.575456 -2.04456 0
M  V30 165 H 16.718 -0.196099 -0.927496 0
M  V30 166 H 16.424 -0.138392 -3.51428 0
M  V30 167 H 16.298 1.60883 -3.41169 0
M  V30 168 H 18.685 1.68482 -2.42276 0
M  V30 169 H 18.766 -0.0776479 -2.55682 0
M  V30 170 H 18.41 0.120058 -5.07758 0
M  V30 171 H 18.34 1.89268 -4.91412 0
M  V30 172 H 20.831 0.973846 -3.65136 0
M  V30 173 H 21.144 1.38081 -7.60364 0
M  V30 174 H 19.489 1.24863 -6.83692 0
M  V30 175 H 22.68 1.12469 -4.54388 0
M  V30 176 H 22.853 1.31049 -6.3461 0
M  V30 177 N 16.2591 1.48442 0.529413 0
M  V30 178 C 17.2061 1.63007 1.63394 0
M  V30 179 C 18.1761 0.47212 1.59249 0
M  V30 180 O 19.3611 0.695673 1.77666 0
M  V30 181 C 16.5011 1.6763 3.01653 0
M  V30 182 C 15.6141 2.94535 3.16027 0
M  V30 183 C 14.7491 2.90316 4.44849 0
M  V30 184 C 13.7881 4.11923 4.52754 0
M  V30 185 N 12.9251 4.05777 5.72965 0
M  V30 186 H 17.7651 2.5733 1.50285 0
M  V30 187 H 15.3021 1.27613 0.731656 0
M  V30 188 H 17.2601 1.68292 3.81751 0
M  V30 189 H 15.8901 0.76797 3.13532 0
M  V30 190 H 14.9421 3.03615 2.29177 0
M  V30 191 H 16.2541 3.84512 3.17729 0
M  V30 192 H 15.4081 2.89382 5.33238 0
M  V30 193 H 14.1471 1.98068 4.45668 0
M  V30 194 H 13.1521 4.13131 3.62771 0
M  V30 195 H 14.3771 5.0533 4.53672 0
M  V30 196 H 12.3231 3.16351 5.74681 0
M  V30 197 H 12.2401 4.8946 5.76164 0
M  V30 198 H 13.5081 4.08904 6.6364 0
M  V30 199 N 17.7372 -0.778329 1.37039 0
M  V30 200 C 18.6872 -1.88142 1.28789 0
M  V30 201 C 19.6712 -1.59923 0.177063 0
M  V30 202 O 20.8632 -1.72165 0.410873 0
M  V30 203 C 17.9922 -3.25518 1.09055 0
M  V30 204 C 17.0782 -3.5971 2.24654 0
M  V30 205 N 17.4692 -3.65131 3.50018 0
M  V30 206 C 15.7672 -3.89837 2.16663 0
M  V30 207 C 16.4682 -3.95882 4.26207 0
M  V30 208 N 15.4442 -4.11441 3.55271 0
M  V30 209 H 19.2462 -1.90575 2.23737 0
M  V30 210 H 16.7602 -0.974435 1.29917 0
M  V30 211 H 18.7572 -4.04423 1.0123 0
M  V30 212 H 17.4172 -3.24353 0.15018 0
M  V30 213 H 18.4282 -3.475 3.84011 0
M  V30 214 H 15.1052 -3.96533 1.30645 0
M  V30 215 H 16.4952 -4.06907 5.34674 0
M  V30 216 N 19.2153 -1.21501 -1.00376 0
M  V30 217 C 20.4633 -1.03095 -1.73827 0
M  V30 218 C 20.7843 0.436341 -1.90055 0
M  V30 219 O 20.0543 1.31466 -1.45236 0
M  V30 220 H 18.6343 -0.378487 -0.644016 0
M  V30 221 H 21.2963 -1.52831 -1.20949 0
M  V30 222 H 20.3923 -1.49991 -2.73695 0
M  V30 223 N 20.6934 1.19889 -1.02296 0
M  V30 224 C 22.1094 1.41462 -0.738954 0
M  V30 225 C 22.3094 1.89721 0.678846 0
M  V30 226 O 21.3654 2.07016 1.4457 0
M  V30 227 C 22.6784 2.43083 -1.77005 0
M  V30 228 C 24.2264 2.5684 -1.78892 0
M  V30 229 C 24.7014 3.61709 -2.80945 0
M  V30 230 N 26.1924 3.69199 -2.79725 0
M  V30 231 C 26.9274 4.50019 -3.55345 0
M  V30 232 N 26.4234 5.34592 -4.40662 0
M  V30 233 N 28.2164 4.44612 -3.43914 0
M  V30 234 H 20.3674 0.868827 -1.93817 0
M  V30 235 H 22.6304 0.44399 -0.837602 0
M  V30 236 H 22.3364 2.14636 -2.78612 0
M  V30 237 H 22.2104 3.4217 -1.58744 0
M  V30 238 H 24.5974 2.84614 -0.779674 0
M  V30 239 H 24.6784 1.57927 -2.01228 0
M  V30 240 H 24.3224 3.34678 -3.82038 0
M  V30 241 H 24.2524 4.60259 -2.5587 0
M  V30 242 H 26.7434 3.08794 -2.17842 0
M  V30 243 H 27.0564 5.93363 -4.95116 0
M  V30 244 H 25.4014 5.34073 -4.44737 0
M  V30 245 H 28.5924 3.7758 -2.76679 0
M  V30 246 H 28.7654 5.0736 -4.031 0
M  V30 247 N 22.1715 0.800033 1.35784 0
M  V30 248 C 23.3995 0.389606 2.03199 0
M  V30 249 C 23.8145 -0.997375 1.60306 0
M  V30 250 O 23.1715 -1.64154 0.797481 0
M  V30 251 C 23.2225 0.455855 3.58614 0
M  V30 252 O 22.9435 1.78815 3.99946 0
M  V30 253 C 24.4445 0.0374032 4.43284 0
M  V30 254 H 21.6645 0.159132 0.651857 0
M  V30 255 H 24.2085 1.08183 1.73541 0
M  V30 256 H 22.3635 -0.188057 3.86943 0
M  V30 257 H 22.7775 1.74636 4.94573 0
M  V30 258 H 24.2515 0.134882 5.51835 0
M  V30 259 H 24.7285 -1.01651 4.27275 0
M  V30 260 H 25.3345 0.654215 4.20238 0
M  V30 261 N 23.6496 -1.47581 0.552962 0
M  V30 262 C 25.0656 -1.5818 0.212424 0
M  V30 263 C 25.2656 -1.55213 -1.28496 0
M  V30 264 O 24.3216 -1.45329 -2.06484 0
M  V30 265 C 25.6346 -2.88865 0.835318 0
M  V30 266 C 27.1826 -3.0244 0.806156 0
M  V30 267 C 27.6576 -4.35819 1.40804 0
M  V30 268 N 29.1486 -4.42444 1.37103 0
M  V30 269 C 29.8836 -5.44202 1.80641 0
M  V30 270 N 29.3796 -6.52795 2.32015 0
M  V30 271 N 31.1726 -5.35222 1.71738 0
M  V30 272 H 23.3236 -1.47753 1.52587 0
M  V30 273 H 25.5866 -0.702941 0.636064 0
M  V30 274 H 25.2926 -2.9676 1.88749 0
M  V30 275 H 25.1666 -3.7579 0.325848 0
M  V30 276 H 27.5536 -2.94144 -0.237317 0
M  V30 277 H 27.6346 -2.17068 1.35334 0
M  V30 278 H 27.2786 -4.44871 2.45056 0
M  V30 279 H 27.2086 -5.19916 0.836338 0
M  V30 280 H 29.6996 -3.6456 0.995202 0
M  V30 281 H 30.0126 -7.26609 2.63171 0
M  V30 282 H 28.3576 -6.53696 2.36023 0
M  V30 283 H 31.5486 -4.49284 1.31382 0
M  V30 284 H 31.7216 -6.14389 2.05987 0
M  V30 285 N 25.1277 -0.289203 -1.54924 0
M  V30 286 C 26.3767 0.324231 -1.99077 0
M  V30 287 C 26.6897 1.5591 -1.18117 0
M  V30 288 O 27.8957 2.24637 -1.52481 0
M  V30 289 C 26.3517 0.628209 -3.54375 0
M  V30 290 C 25.9597 -0.587647 -4.44129 0
M  V30 291 C 27.7037 1.20349 -4.07083 0
M  V30 292 C 25.6107 -0.257475 -5.90839 0
M  V30 293 H 24.5407 0.124924 -0.743579 0
M  V30 294 H 27.1917 -0.396063 -1.79175 0
M  V30 295 H 25.5737 1.40778 -3.70132 0
M  V30 296 H 26.7477 -1.36418 -4.40144 0
M  V30 297 H 25.0627 -1.08074 -4.0213 0
M  V30 298 H 27.6597 1.46456 -5.14252 0
M  V30 299 H 28.0027 2.14195 -3.56968 0
M  V30 300 H 28.5357 0.485889 -3.94821 0
M  V30 301 H 25.2747 -1.16419 -6.45079 0
M  V30 302 H 24.7947 0.482018 -5.9786 0
M  V30 303 H 26.4737 0.145238 -6.46837 0
M  V30 304 N 26.6058 1.57591 -0.0167156 0
M  V30 305 C 27.5688 2.08393 0.954204 0
M  V30 306 C 28.5688 0.996531 1.26198 0
M  V30 307 O 29.7588 1.25858 1.20438 0
M  V30 308 C 26.8908 2.5394 2.27436 0
M  V30 309 H 28.0838 2.95455 0.514451 0
M  V30 310 H 25.6368 1.54582 0.231089 0
M  V30 311 H 26.3718 1.70171 2.76066 0
M  V30 312 H 26.1568 3.33371 2.06412 0
M  V30 313 H 27.6468 2.93512 2.97053 0
M  V30 314 N 28.0839 -0.256276 1.55502 0
M  V30 315 C 29.0469 -1.30047 1.88734 0
M  V30 316 C 30.0469 -1.4154 0.763086 0
M  V30 317 O 31.2369 -1.40403 1.03115 0
M  V30 318 C 28.3689 -2.67953 2.10747 0
M  V30 319 H 29.5619 -1.01802 2.82093 0
M  V30 320 H 27.1149 -0.495134 1.4825 0
M  V30 321 H 27.8499 -3.01351 1.19825 0
M  V30 322 H 27.6349 -2.60993 2.92617 0
M  V30 323 H 29.1249 -3.43368 2.37673 0
M  V30 324 N 29.562 -1.4872 -0.521534 0
M  V30 325 C 30.787 -1.61101 -1.30618 0
M  V30 326 C 31.212 -0.274611 -1.86085 0
M  V30 327 O 30.57 0.754937 -1.64834 0
M  V30 328 C 30.618 -2.66709 -2.4269 0
M  V30 329 O 29.722 -2.24456 -3.45967 0
M  V30 330 H 29.063 -0.539921 -0.386499 0
M  V30 331 H 31.593 -1.94767 -0.626645 0
M  V30 332 H 31.603 -2.88245 -2.88754 0
M  V30 333 H 30.278 -3.63727 -2.01682 0
M  V30 334 H 28.855 -2.13168 -3.05964 0
M  V30 335 N 31.0401 0.771051 -1.3745 0
M  V30 336 C 32.2701 1.55789 -1.35696 0
M  V30 337 C 32.6781 1.89107 0.0594523 0
M  V30 338 O 32.0211 1.51984 1.03183 0
M  V30 339 C 32.0831 2.89515 -2.13123 0
M  V30 340 C 31.7471 2.78829 -3.62082 0
M  V30 341 C 32.7441 2.49812 -4.5595 0
M  V30 342 C 30.4291 2.9683 -4.05213 0
M  V30 343 C 32.4231 2.38923 -5.90927 0
M  V30 344 C 30.1101 2.85562 -5.40276 0
M  V30 345 C 31.1081 2.56649 -6.32946 0
M  V30 346 O 30.7961 2.45408 -7.65526 0
M  V30 347 H 30.5281 0.489257 -0.466481 0
M  V30 348 H 33.0821 0.963446 -1.81403 0
M  V30 349 H 31.3121 3.51081 -1.62107 0
M  V30 350 H 33.0011 3.50915 -2.03994 0
M  V30 351 H 33.7671 2.3559 -4.23937 0
M  V30 352 H 29.6461 3.18335 -3.33442 0
M  V30 353 H 33.1901 2.16277 -6.63227 0
M  V30 354 H 29.0871 2.99351 -5.71891 0
M  V30 355 H 29.8551 2.60753 -7.75855 0
M  V30 356 N 32.5182 1.22032 0.997298 0
M  V30 357 C 33.7672 1.03637 1.73038 0
M  V30 358 C 34.0802 -0.429475 1.90827 0
M  V30 359 O 35.2862 -0.732995 2.61418 0
M  V30 360 C 33.7422 1.80582 3.11317 0
M  V30 361 C 33.3502 3.31387 3.01474 0
M  V30 362 C 35.0942 1.70621 3.88701 0
M  V30 363 C 33.0012 4.00791 4.3488 0
M  V30 364 H 31.9312 0.384179 0.648785 0
M  V30 365 H 34.5822 1.4584 1.11368 0
M  V30 366 H 32.9642 1.31175 3.73643 0
M  V30 367 H 34.1382 3.88155 2.4834 0
M  V30 368 H 32.4532 3.41976 2.37575 0
M  V30 369 H 35.0502 2.19799 4.87434 0
M  V30 370 H 35.3932 0.665823 4.10941 0
M  V30 371 H 35.9262 2.17547 3.33044 0
M  V30 372 H 32.6652 5.05064 4.1784 0
M  V30 373 H 32.1852 3.48811 4.87945 0
M  V30 374 H 33.8642 4.06139 5.03647 0
M  V30 375 N 33.9963 -1.19345 1.0293 0
M  V30 376 C 34.9593 -2.20793 0.615069 0
M  V30 377 C 35.9593 -1.57553 -0.321533 0
M  V30 378 O 37.1493 -1.73862 -0.108483 0
M  V30 379 C 34.2813 -3.40754 -0.0999222 0
M  V30 380 H 35.4743 -2.58955 1.51269 0
M  V30 381 H 33.0273 -1.3303 0.820534 0
M  V30 382 H 33.7623 -3.0811 -1.01187 0
M  V30 383 H 33.5473 -3.87889 0.57309 0
M  V30 384 H 35.0373 -4.15898 -0.376645 0
M  V30 385 N 35.4744 -0.807222 -1.35358 0
M  V30 386 C 36.4374 -0.223665 -2.28106 0
M  V30 387 C 37.4374 0.589354 -1.4961 0
M  V30 388 O 38.6274 0.407745 -1.69361 0
M  V30 389 C 35.7594 0.688149 -3.33882 0
M  V30 390 H 36.9524 -1.04169 -2.81227 0
M  V30 391 H 34.5054 -0.577921 -1.45223 0
M  V30 392 H 35.2404 1.52984 -2.85948 0
M  V30 393 H 35.0254 0.10687 -3.91954 0
M  V30 394 H 36.5154 1.09075 -4.03104 0
M  V30 395 N 36.9525 1.47285 -0.560781 0
M  V30 396 C 37.8825 2.32857 0.173105 0
M  V30 397 C 38.8635 1.44009 0.905281 0
M  V30 398 O 40.0485 1.7286 0.885046 0
M  V30 399 C 37.1785 3.25861 1.20133 0
M  V30 400 C 36.1325 4.23978 0.585388 0
M  V30 401 C 35.4585 5.06332 1.7185 0
M  V30 402 C 36.7585 5.20242 -0.463178 0
M  V30 403 H 38.4525 2.94466 -0.541307 0
M  V30 404 H 35.9985 1.41601 -0.261764 0
M  V30 405 H 37.9515 3.84569 1.72293 0
M  V30 406 H 36.6755 2.62315 1.94573 0
M  V30 407 H 35.3345 3.66501 0.085054 0
M  V30 408 H 34.9825 4.39186 2.45203 0
M  V30 409 H 34.6825 5.72762 1.31213 0
M  V30 410 H 36.2065 5.67899 2.24329 0
M  V30 411 H 37.6205 5.73293 -0.027502 0
M  V30 412 H 36.0175 5.94896 -0.788627 0
M  V30 413 H 37.0875 4.65504 -1.35773 0
M  V30 414 N 38.4306 0.297415 1.54768 0
M  V30 415 C 39.6606 -0.315165 2.04182 0
M  V30 416 C 40.0686 -1.4834 1.17439 0
M  V30 417 O 39.4116 -1.82695 0.191891 0
M  V30 418 C 39.4736 -0.837583 3.49607 0
M  V30 419 C 39.1376 0.204912 4.5654 0
M  V30 420 C 40.1346 1.03214 5.09552 0
M  V30 421 C 37.8196 0.345578 5.0111 0
M  V30 422 C 39.8136 1.986 6.05671 0
M  V30 423 C 37.5006 1.30289 5.97049 0
M  V30 424 C 38.4986 2.12159 6.49213 0
M  V30 425 O 38.1866 3.06268 7.43273 0
M  V30 426 H 37.9186 -0.0729646 0.672051 0
M  V30 427 H 40.4726 0.433907 2.00765 0
M  V30 428 H 38.7026 -1.63712 3.50336 0
M  V30 429 H 40.3916 -1.36566 3.82236 0
M  V30 430 H 41.1576 0.934312 4.75916 0
M  V30 431 H 37.0366 -0.28171 4.60138 0
M  V30 432 H 40.5806 2.62542 6.46311 0
M  V30 433 H 36.4776 1.40145 6.30103 0
M  V30 434 H 37.2456 3.01205 7.61064 0
M  V30 435 N 39.9087 -1.5758 0.0250728 0
M  V30 436 C 40.8587 -2.06468 -0.967201 0
M  V30 437 C 41.8427 -0.964376 -1.28797 0
M  V30 438 O 43.0347 -1.22797 -1.27475 0
M  V30 439 C 40.1637 -2.59203 -2.25097 0
M  V30 440 C 39.2497 -3.76157 -1.95874 0
M  V30 441 N 39.6407 -4.86919 -1.36905 0
M  V30 442 C 37.9387 -3.84566 -2.25887 0
M  V30 443 C 38.6397 -5.68172 -1.24724 0
M  V30 444 N 37.6157 -5.14953 -1.74138 0
M  V30 445 H 41.4177 -2.89508 -0.506176 0
M  V30 446 H 38.9317 -1.61399 -0.18004 0
M  V30 447 H 40.9287 -2.92517 -2.97052 0
M  V30 448 H 39.5887 -1.77592 -2.71829 0
M  V30 449 H 40.5997 -5.07256 -1.04459 0
M  V30 450 H 37.2767 -3.13854 -2.75321 0
M  V30 451 H 38.6667 -6.67221 -0.791605 0
M  V30 452 N 41.3868 0.248026 -1.55636 0
M  V30 453 C 42.6148 0.993808 -1.81469 0
M  V30 454 C 43.0298 1.78991 -0.60064 0
M  V30 455 O 42.3868 1.77345 0.430682 0
M  V30 456 C 42.4378 1.93258 -3.05506 0
M  V30 457 O 42.1588 1.16869 -4.22224 0
M  V30 458 C 43.6598 2.79444 -3.4413 0
M  V30 459 H 40.8798 0.292486 -0.603898 0
M  V30 460 H 43.4238 0.271253 -2.02693 0
M  V30 461 H 41.5788 2.60943 -2.86335 0
M  V30 462 H 41.9928 1.80359 -4.92515 0
M  V30 463 H 43.4668 3.41066 -4.34026 0
M  V30 464 H 43.9438 3.50499 -2.64665 0
M  V30 465 H 44.5498 2.17214 -3.65648 0
M  V30 466 N 42.8649 1.48995 0.513639 0
M  V30 467 C 44.1419 1.48338 1.27495 0
M  V30 468 C 44.5219 0.204065 2.10111 0
M  V30 469 O 43.8699 -0.813881 2.13514 0
M  V30 470 C 44.0799 2.75498 2.14247 0
M  V30 471 C 45.4279 3.24484 2.73852 0
M  V30 472 O 46.4519 2.76528 2.24523 0
M  V30 473 O 45.3109 4.07974 3.6362 0
M  V30 474 H 42.4049 0.593149 0.576284 0
M  V30 475 H 44.9509 1.61246 0.528948 0
M  V30 476 H 43.7229 3.60109 1.53092 0
M  V30 477 H 43.3459 2.6539 2.96064 0
M  V30 478 N 44.343 -0.763751 1.37857 0
M  V30 479 C 45.273 -1.89103 1.36975 0
M  V30 480 C 46.254 -1.68439 0.237152 0
M  V30 481 O 47.439 -1.8918 0.438713 0
M  V30 482 C 44.569 -3.26496 1.18395 0
M  V30 483 C 43.523 -3.61741 2.28751 0
M  V30 484 C 42.849 -4.97762 1.95286 0
M  V30 485 C 44.149 -3.67665 3.70972 0
M  V30 486 H 45.843 -1.90099 2.31307 0
M  V30 487 H 43.389 -0.91319 1.11341 0
M  V30 488 H 45.342 -4.05003 1.16406 0
M  V30 489 H 44.066 -3.25955 0.205215 0
M  V30 490 H 42.725 -2.85547 2.29909 0
M  V30 491 H 42.373 -4.93769 0.959221 0
M  V30 492 H 42.073 -5.22313 2.69189 0
M  V30 493 H 43.597 -5.7866 1.94898 0
M  V30 494 H 45.011 -4.36307 3.719 0
M  V30 495 H 43.408 -4.03718 4.43995 0
M  V30 496 H 44.478 -2.68134 4.0402 0
M  V30 497 N 45.8211 -1.22559 -0.990812 0
M  V30 498 C 47.0701 -1.04553 -1.72486 0
M  V30 499 C 47.3831 0.419349 -1.91052 0
M  V30 500 O 48.5891 0.719121 -2.61803 0
M  V30 501 C 47.0451 -1.82231 -3.10355 0
M  V30 502 C 46.6531 -3.32981 -2.99713 0
M  V30 503 C 48.3971 -1.7268 -3.87791 0
M  V30 504 C 46.3041 -4.03091 -4.32748 0
M  V30 505 H 45.2341 -0.387614 -0.646739 0
M  V30 506 H 47.8851 -1.46429 -1.10593 0
M  V30 507 H 46.2671 -1.33155 -3.72942 0
M  V30 508 H 47.4411 -3.89466 -2.46278 0
M  V30 509 H 45.7561 -3.43231 -2.35758 0
M  V30 510 H 48.3531 -2.22381 -4.86262 0
M  V30 511 H 48.6961 -0.687607 -4.10582 0
M  V30 512 H 49.2291 -2.1931 -3.31885 0
M  V30 513 H 45.9681 -5.07273 -4.15156 0
M  V30 514 H 45.4881 -3.51394 -4.86089 0
M  V30 515 H 47.1671 -4.08804 -5.01486 0
M  V30 516 N 47.2992 1.18797 -1.03562 0
M  V30 517 C 48.5762 1.84469 -0.650434 0
M  V30 518 C 48.9562 1.92319 0.870433 0
M  V30 519 O 48.3042 1.44528 1.76986 0
M  V30 520 C 48.5142 3.2306 -1.32036 0
M  V30 521 C 49.8622 3.9915 -1.44792 0
M  V30 522 O 50.8862 3.32481 -1.27806 0
M  V30 523 O 49.7452 5.18587 -1.72423 0
M  V30 524 H 46.8392 0.795251 -0.226946 0
M  V30 525 H 49.3852 1.26231 -1.13419 0
M  V30 526 H 48.1572 3.1222 -2.3587 0
M  V30 527 H 47.7802 3.88949 -0.8249 0
M  V30 528 N 48.7773 0.814389 1.34928 0
M  V30 529 C 49.7073 0.244827 2.32213 0
M  V30 530 C 50.6883 -0.634024 1.57842 0
M  V30 531 O 51.8733 -0.562676 1.8587 0
M  V30 532 C 49.0033 -0.601106 3.42058 0
M  V30 533 C 47.9573 0.179896 4.27622 0
M  V30 534 C 47.2833 -0.788237 5.28858 0
M  V30 535 C 48.5833 1.38329 5.03649 0
M  V30 536 H 50.2773 1.05763 2.80097 0
M  V30 537 H 47.8233 0.510029 1.34665 0
M  V30 538 H 49.7763 -1.00968 4.09125 0
M  V30 539 H 48.5003 -1.44688 2.92802 0
M  V30 540 H 47.1593 0.569739 3.62146 0
M  V30 541 H 46.8073 -1.62973 4.75866 0
M  V30 542 H 46.5073 -0.269942 5.8698 0
M  V30 543 H 48.0313 -1.19485 5.98795 0
M  V30 544 H 49.4453 1.04918 5.63618 0
M  V30 545 H 47.8423 1.83662 5.71304 0
M  V30 546 H 48.9123 2.16592 4.33839 0
M  V30 547 N 50.2554 -1.46986 0.568584 0
M  V30 548 C 51.4804 -2.07335 0.0520528 0
M  V30 549 C 51.9054 -1.41675 -1.23733 0
M  V30 550 O 51.2634 -0.495623 -1.74394 0
M  V30 551 C 51.3114 -3.60417 -0.11501 0
M  V30 552 O 50.4154 -3.95309 -1.17492 0
M  V30 553 H 49.7564 -0.661597 0.0564385 0
M  V30 554 H 52.2864 -1.88837 0.787507 0
M  V30 555 H 52.2964 -4.06698 -0.325644 0
M  V30 556 H 50.9714 -4.07601 0.826675 0
M  V30 557 H 49.5484 -3.60757 -0.943869 0
M  V30 558 N 51.7335 -0.305618 -1.54608 0
M  V30 559 C 52.6435 0.57778 -2.27374 0
M  V30 560 C 53.6595 1.14451 -1.31061 0
M  V30 561 O 54.8355 1.16831 -1.6405 0
M  V30 562 C 51.9005 1.73123 -3.00382 0
M  V30 563 C 50.9615 1.19812 -4.12242 0
M  V30 564 C 50.1945 2.2966 -4.81759 0
M  V30 565 O 50.4175 3.49651 -4.50666 0
M  V30 566 O 49.3515 1.96091 -5.69062 0
M  V30 567 H 53.1775 -0.012624 -3.03697 0
M  V30 568 H 50.7625 -0.0719184 -1.49227 0
M  V30 569 H 52.6445 2.40315 -3.4616 0
M  V30 570 H 51.3195 2.30815 -2.26949 0
M  V30 571 H 50.2265 0.491798 -3.70853 0
M  V30 572 H 51.5595 0.666566 -4.87666 0
M  V30 573 N 53.2116 1.57565 -0.0334293 0
M  V30 574 C 54.4586 1.91978 0.644272 0
M  V30 575 C 54.7866 0.910231 1.71887 0
M  V30 576 O 54.0416 -0.0801961 1.95536 0
M  V30 577 C 54.3406 3.33112 1.29504 0
M  V30 578 C 54.0066 4.49537 0.350388 0
M  V30 579 C 52.6686 4.81115 0.0903974 0
M  V30 580 C 55.0206 5.20347 -0.298032 0
M  V30 581 C 52.3486 5.8086 -0.825746 0
M  V30 582 C 54.7006 6.2107 -1.20226 0
M  V30 583 C 53.3646 6.51088 -1.4711 0
M  V30 584 H 52.6346 0.702496 0.235756 0
M  V30 585 H 55.2816 1.91259 -0.0961176 0
M  V30 586 H 53.5866 3.30113 2.11028 0
M  V30 587 H 55.2836 3.57011 1.82603 0
M  V30 588 H 51.8736 4.24883 0.563205 0
M  V30 589 H 56.0576 4.96178 -0.110234 0
M  V30 590 H 51.3136 6.02461 -1.04169 0
M  V30 591 H 55.4876 6.75057 -1.71086 0
M  V30 592 H 53.1146 7.28193 -2.18264 0
M  V30 593 N 54.6897 -0.239769 1.55765 0
M  V30 594 C 55.9357 -0.968234 1.78194 0
M  V30 595 C 56.2687 -1.84701 0.599938 0
M  V30 596 O 55.5437 -1.9031 -0.401524 0
M  V30 597 C 55.8267 -1.8227 3.10564 0
M  V30 598 C 55.6797 -0.971633 4.3918 0
M  V30 599 C 56.9987 -2.80388 3.39221 0
M  V30 600 H 54.1177 -0.350572 0.648281 0
M  V30 601 H 56.7597 -0.238259 1.885 0
M  V30 602 H 54.9097 -2.44507 3.01908 0
M  V30 603 H 56.5817 -0.367408 4.59835 0
M  V30 604 H 54.8247 -0.276276 4.32919 0
M  V30 605 H 55.4957 -1.60346 5.28198 0
M  V30 606 H 57.9717 -2.28287 3.47885 0
M  V30 607 H 56.8477 -3.3729 4.33044 0
M  V30 608 H 57.1087 -3.57212 2.60484 0
M  V30 609 N 56.1678 -1.49265 -0.50573 0
M  V30 610 C 57.0978 -1.68495 -1.61653 0
M  V30 611 C 58.0788 -0.53366 -1.61512 0
M  V30 612 O 59.2638 -0.76897 -1.78327 0
M  V30 613 C 56.3938 -1.74709 -3.00157 0
M  V30 614 C 55.3478 -2.89581 -3.15162 0
M  V30 615 C 54.6738 -2.80903 -4.5497 0
M  V30 616 C 55.9738 -4.30578 -2.95634 0
M  V30 617 H 57.6678 -2.61493 -1.45814 0
M  V30 618 H 55.2138 -1.25838 -0.70005 0
M  V30 619 H 57.1668 -1.86748 -3.77761 0
M  V30 620 H 55.8908 -0.783067 -3.17074 0
M  V30 621 H 54.5498 -2.77136 -2.39982 0
M  V30 622 H 54.1978 -1.82419 -4.68756 0
M  V30 623 H 53.8978 -3.57999 -4.65951 0
M  V30 624 H 55.4218 -2.94944 -5.34641 0
M  V30 625 H 56.8358 -4.4373 -3.63011 0
M  V30 626 H 55.2328 -5.0886 -3.18091 0
M  V30 627 H 56.3028 -4.45352 -1.91806 0
M  V30 628 N 57.6459 0.756429 -1.3826 0
M  V30 629 C 59.0569 1.33359 -1.30661 0
M  V30 630 C 59.4079 1.96161 0.0388875 0
M  V30 631 O 58.5329 1.94874 0.940918 0
M  V30 632 C 59.1279 2.42477 -2.36622 0
M  V30 633 C 57.6869 2.95922 -2.3261 0
M  V30 634 C 56.8339 1.69275 -2.19639 0
M  V30 635 H 59.7849 0.55552 -1.4866 0
M  V30 636 H 59.8059 3.22345 -2.02174 0
M  V30 637 H 59.3179 1.96739 -3.34538 0
M  V30 638 H 57.4189 3.45996 -1.38267 0
M  V30 639 H 57.5319 3.50494 -3.26636 0
M  V30 640 H 55.8959 1.92793 -1.66442 0
M  V30 641 H 56.6789 1.25619 -3.19491 0
M  V30 642 N 59.124 1.23083 0.984299 0
M  V30 643 C 60.37 1.06214 1.72761 0
M  V30 644 C 60.703 -0.400584 1.90024 0
M  V30 645 O 59.978 -1.29672 1.44967 0
M  V30 646 C 60.261 1.78375 3.12817 0
M  V30 647 C 60.114 3.32296 3.03149 0
M  V30 648 C 61.433 1.54309 4.12161 0
M  V30 649 H 58.552 0.387251 0.627061 0
M  V30 650 H 61.194 1.51536 1.14616 0
M  V30 651 H 59.344 1.39848 3.62457 0
M  V30 652 H 61.016 3.8032 2.61064 0
M  V30 653 H 59.259 3.6153 2.39747 0
M  V30 654 H 59.93 3.77972 4.02295 0
M  V30 655 H 62.406 1.87791 3.71314 0
M  V30 656 H 61.282 2.07281 5.08258 0
M  V30 657 H 61.543 0.477572 4.39513 0
M  V30 658 N 60.6021 -1.18246 1.0419 0
M  V30 659 C 61.8491 -1.88257 0.746017 0
M  V30 660 C 62.1771 -1.80429 -0.726331 0
M  V30 661 O 61.4321 -1.2 -1.54591 0
M  V30 662 C 61.7311 -3.38082 1.15911 0
M  V30 663 C 61.3971 -3.66114 2.63195 0
M  V30 664 C 60.0591 -3.73474 3.03432 0
M  V30 665 C 62.4111 -3.78398 3.5842 0
M  V30 666 C 59.7391 -3.90599 4.37778 0
M  V30 667 C 62.0911 -3.97039 4.92487 0
M  V30 668 C 60.7551 -4.02635 5.32392 0
M  V30 669 H 60.0251 -0.688883 0.272987 0
M  V30 670 H 62.6721 -1.3995 1.30715 0
M  V30 671 H 60.9771 -3.88377 0.516806 0
M  V30 672 H 62.6741 -3.90596 0.907516 0
M  V30 673 H 59.2641 -3.61003 2.3103 0
M  V30 674 H 63.4481 -3.72042 3.28479 0
M  V30 675 H 58.7041 -3.93175 4.68213 0
M  V30 676 H 62.8781 -4.05486 5.66175 0
M  V30 677 H 60.5051 -4.15657 6.36501 0
M  V30 678 N 62.0802 -0.821533 -1.34494 0
M  V30 679 C 63.0282 -0.230702 -2.31453 0
M  V30 680 C 64.0222 0.627793 -1.57338 0
M  V30 681 O 65.2282 0.519288 -1.72347 0
M  V30 682 H 61.6032 -0.0558577 -0.749923 0
M  V30 683 H 63.5742 -1.06332 -2.78812 0
M  V30 684 C 62.3232 0.59391 -3.4259 0
M  V30 685 H 61.6462 -0.0573588 -3.99759 0
M  V30 686 H 63.0862 0.973446 -4.12674 0
M  V30 687 C 61.5452 1.76568 -2.86924 0
M  V30 688 O 62.0752 2.8638 -2.81691 0
M  V30 689 N 60.2812 1.58198 -2.43766 0
M  V30 690 H 59.8282 0.68872 -2.48222 0
M  V30 691 H 59.7862 2.36752 -2.06871 0
M  V30 692 N 63.5583 1.46682 -0.576371 0
M  V30 693 C 64.8063 2.02013 -0.0594163 0
M  V30 694 C 65.1273 1.45101 1.30271 0
M  V30 695 O 64.3973 0.633317 1.8538 0
M  V30 696 H 62.9773 0.746759 -0.0189745 0
M  V30 697 H 65.6393 1.79862 -0.750717 0
M  V30 698 H 64.7353 3.12097 0.014345 0
M  V30 699 N 65.0364 0.313813 1.54444 0
M  V30 700 C 65.9464 -0.565714 2.27677 0
M  V30 701 C 66.9624 -1.13754 1.31666 0
M  V30 702 O 68.1384 -1.15959 1.64668 0
M  V30 703 C 65.2034 -1.71528 3.01296 0
M  V30 704 C 64.2644 -1.17624 4.12872 0
M  V30 705 C 63.4974 -2.27102 4.8297 0
M  V30 706 O 63.7204 -3.47256 4.52514 0
M  V30 707 O 62.6544 -1.9307 5.70094 0
M  V30 708 H 66.4804 0.0287296 3.03686 0
M  V30 709 H 64.0654 0.0798312 1.49187 0
M  V30 710 H 65.9474 -2.38476 3.4743 0
M  V30 711 H 64.6224 -2.29608 2.2817 0
M  V30 712 H 63.5294 -0.472124 3.71109 0
M  V30 713 H 64.8624 -0.640695 4.88012 0
M  V30 714 N 66.5145 -1.57545 0.0417849 0
M  V30 715 C 67.4775 -2.09885 -0.92093 0
M  V30 716 C 68.4775 -1.01648 -1.24596 0
M  V30 717 O 69.6675 -1.27759 -1.1842 0
M  V30 718 C 66.7995 -2.57527 -2.23367 0
M  V30 719 H 67.9925 -2.96236 -0.467382 0
M  V30 720 H 65.5455 -1.5493 -0.206467 0
M  V30 721 H 66.2805 -1.74542 -2.73323 0
M  V30 722 H 66.0655 -3.36613 -2.01083 0
M  V30 723 H 67.5555 -2.98201 -2.92346 0
M  V30 724 N 67.9926 0.231505 -1.5589 0
M  V30 725 C 68.9026 1.308 -1.94752 0
M  V30 726 C 69.9186 1.51826 -0.849989 0
M  V30 727 O 71.0946 1.6515 -1.15271 0
M  V30 728 C 68.1596 2.63968 -2.24771 0
M  V30 729 C 67.2206 2.51331 -3.48039 0
M  V30 730 C 66.4536 3.78148 -3.76616 0
M  V30 731 O 66.6766 4.80722 -3.07022 0
M  V30 732 O 65.6106 3.75857 -4.70123 0
M  V30 733 H 69.4366 1.0083 -2.86474 0
M  V30 734 H 67.0216 0.433547 -1.42971 0
M  V30 735 H 68.9036 3.42633 -2.45318 0
M  V30 736 H 67.5786 2.9364 -1.36225 0
M  V30 737 H 66.4856 1.709 -3.32782 0
M  V30 738 H 67.8186 2.26601 -4.36936 0
M  V30 739 N 69.4707 1.49531 0.497807 0
M  V30 740 C 70.4027 1.62559 1.61578 0
M  V30 741 C 71.4157 0.508134 1.54667 0
M  V30 742 O 72.6047 0.780309 1.60541 0
M  V30 743 C 69.7047 1.56925 3.00379 0
M  V30 744 C 68.8777 2.84257 3.3244 0
M  V30 745 C 67.9367 2.71632 4.50669 0
M  V30 746 O 66.9627 3.4557 4.52294 0
M  V30 747 N 68.1647 1.83391 5.5077 0
M  V30 748 H 70.9297 2.58981 1.50828 0
M  V30 749 H 68.4907 1.4666 0.685743 0
M  V30 750 H 70.4827 1.46129 3.77397 0
M  V30 751 H 69.0527 0.683483 3.05037 0
M  V30 752 H 68.2727 3.09381 2.44289 0
M  V30 753 H 69.5607 3.68666 3.5066 0
M  V30 754 H 68.9587 1.22583 5.52259 0
M  V30 755 H 67.5157 1.78515 6.26878 0
M  V30 756 N 70.9488 -0.749086 1.3866 0
M  V30 757 C 72.1738 -1.54344 1.38538 0
M  V30 758 C 72.5988 -1.88088 -0.0216655 0
M  V30 759 O 71.9568 -1.50899 -1.00494 0
M  V30 760 C 72.0048 -2.8164 2.25192 0
M  V30 761 O 71.1088 -3.7698 1.67212 0
M  V30 762 H 70.4498 -0.466654 0.472367 0
M  V30 763 H 72.9798 -0.925355 1.82478 0
M  V30 764 H 72.9898 -3.30519 2.3921 0
M  V30 765 H 71.6648 -2.56411 3.27454 0
M  V30 766 H 70.2418 -3.35699 1.6236 0
M  V30 767 N 72.4269 -1.23603 -0.977757 0
M  V30 768 C 73.3369 -1.03632 -2.1047 0
M  V30 769 C 74.3529 0.0199435 -1.73989 0
M  V30 770 O 75.5289 -0.176076 -2.00629 0
M  V30 771 C 72.5939 -0.63276 -3.40877 0
M  V30 772 C 71.6549 -1.76437 -3.91367 0
M  V30 773 C 70.8879 -1.37997 -5.15551 0
M  V30 774 O 71.1109 -0.265357 -5.69782 0
M  V30 775 O 70.0449 -2.20201 -5.60174 0
M  V30 776 H 73.8709 -1.98086 -2.30208 0
M  V30 777 H 71.4559 -1.02332 -1.08851 0
M  V30 778 H 73.3379 -0.418761 -4.19314 0
M  V30 779 H 72.0129 0.282754 -3.22463 0
M  V30 780 H 70.9199 -2.03304 -3.14036 0
M  V30 781 H 72.2529 -2.6583 -4.14241 0
M  V30 782 N 73.905 1.17692 -1.04816 0
M  V30 783 C 74.835 2.23777 -0.666791 0
M  V30 784 C 75.816 1.66796 0.33361 0
M  V30 785 O 77.001 1.93039 0.212042 0
M  V30 786 C 74.131 3.47281 -0.0367933 0
M  V30 787 C 73.085 4.17059 -0.961546 0
M  V30 788 C 72.411 5.34342 -0.195626 0
M  V30 789 C 73.711 4.69713 -2.28402 0
M  V30 790 H 75.405 2.55933 -1.55367 0
M  V30 791 H 72.951 1.23019 -0.748484 0
M  V30 792 H 74.904 4.20706 0.241775 0
M  V30 793 H 73.628 3.14381 0.885004 0
M  V30 794 H 72.287 3.45541 -1.22462 0
M  V30 795 H 71.935 4.97692 0.728816 0
M  V30 796 H 71.635 5.81966 -0.811775 0
M  V30 797 H 73.159 6.10553 0.0757473 0
M  V30 798 H 74.573 5.34794 -2.06563 0
M  V30 799 H 72.97 5.279 -2.8538 0
M  V30 800 H 74.04 3.86726 -2.92525 0
M  V30 801 N 75.3831 0.828654 1.34056 0
M  V30 802 C 76.3131 0.269443 2.3194 0
M  V30 803 C 77.2941 -0.617247 1.58506 0
M  V30 804 O 78.4791 -0.542931 1.86456 0
M  V30 805 C 75.6091 -0.564793 3.42677 0
M  V30 806 C 74.5631 0.225241 4.27407 0
M  V30 807 C 73.8891 -0.7321 5.29664 0
M  V30 808 C 75.1891 1.43663 5.02154 0
M  V30 809 H 76.8831 1.08728 2.7896 0
M  V30 810 H 74.4291 0.524283 1.34117 0
M  V30 811 H 76.3821 -0.966233 4.10173 0
M  V30 812 H 75.1061 -1.41574 2.9432 0
M  V30 813 H 73.7651 0.608117 3.61521 0
M  V30 814 H 73.4131 -1.57916 4.77568 0
M  V30 815 H 73.1131 -0.20767 5.87233 0
M  V30 816 H 74.6371 -1.13128 6.00029 0
M  V30 817 H 76.0511 1.1089 5.62473 0
M  V30 818 H 74.4481 1.89711 5.69324 0
M  V30 819 H 75.5181 2.21181 4.31517 0
M  V30 820 N 76.8612 -1.46375 0.584142 0
M  V30 821 C 77.8082 -2.30323 -0.148286 0
M  V30 822 C 78.7782 -1.40703 -0.882713 0
M  V30 823 O 79.9632 -1.69651 -0.873099 0
M  V30 824 C 77.1032 -3.25196 -1.15507 0
M  V30 825 C 76.2162 -4.29915 -0.423943 0
M  V30 826 C 75.3512 -5.11914 -1.41838 0
M  V30 827 C 74.3902 -6.08381 -0.673736 0
M  V30 828 N 73.5272 -6.83242 -1.6163 0
M  V30 829 H 78.3672 -2.92427 0.573644 0
M  V30 830 H 75.9042 -1.44118 0.294703 0
M  V30 831 H 77.8622 -3.78646 -1.75166 0
M  V30 832 H 76.4922 -2.64898 -1.8447 0
M  V30 833 H 75.5442 -3.7931 0.287714 0
M  V30 834 H 76.8562 -4.98549 0.158128 0
M  V30 835 H 76.0102 -5.69648 -2.08773 0
M  V30 836 H 74.7492 -4.43243 -2.03438 0
M  V30 837 H 73.7542 -5.49799 0.00938483 0
M  V30 838 H 74.9792 -6.79071 -0.0631082 0
M  V30 839 H 72.9252 -6.1728 -2.22038 0
M  V30 840 H 72.8422 -7.48144 -1.08707 0
M  V30 841 H 74.1102 -7.45534 -2.27596 0
M  V30 842 N 78.3393 -0.321999 -1.54275 0
M  V30 843 C 79.5853 0.281461 -2.00837 0
M  V30 844 C 79.9183 1.51909 -1.20985 0
M  V30 845 O 79.1933 1.923 -0.291733 0
M  V30 846 C 79.4763 0.617162 -3.54772 0
M  V30 847 C 79.3293 -0.631064 -4.45351 0
M  V30 848 C 80.6483 1.43542 -4.16033 0
M  V30 849 H 77.7673 0.100826 -0.730071 0
M  V30 850 H 80.4093 -0.438268 -1.84876 0
M  V30 851 H 78.5593 1.23034 -3.68504 0
M  V30 852 H 80.2313 -1.26934 -4.43492 0
M  V30 853 H 78.4743 -1.26025 -4.15091 0
M  V30 854 H 79.1453 -0.351735 -5.50878 0
M  V30 855 H 81.6213 0.917134 -4.05867 0
M  V30 856 H 80.4973 1.63907 -5.23856 0
M  V30 857 H 80.7583 2.43108 -3.69257 0
M  V30 858 N 79.8174 1.5752 -0.0501392 0
M  V30 859 C 80.7494 2.08413 0.95376 0
M  V30 860 C 81.7624 1.01175 1.27544 0
M  V30 861 O 82.9514 1.28744 1.23641 0
M  V30 862 C 80.0514 2.51138 2.27559 0
M  V30 863 C 79.2244 3.817 2.13598 0
M  V30 864 C 78.2834 4.10749 3.28895 0
M  V30 865 O 77.3094 4.80685 3.04845 0
M  V30 866 N 78.5114 3.62579 4.5334 0
M  V30 867 H 81.2764 2.95165 0.519383 0
M  V30 868 H 78.8374 1.61327 0.136127 0
M  V30 869 H 80.8294 2.67648 3.03557 0
M  V30 870 H 79.3994 1.6964 2.62567 0
M  V30 871 H 78.6194 3.74782 1.22197 0
M  V30 872 H 79.9074 4.67201 2.01496 0
M  V30 873 H 79.3054 3.06039 4.75769 0
M  V30 874 H 77.8624 3.84329 5.26436 0
M  V30 875 N 81.2955 -0.223234 1.56011 0
M  V30 876 C 82.2055 -1.29766 1.95443 0
M  V30 877 C 83.2215 -1.51373 0.858028 0
M  V30 878 O 84.3975 -1.64536 1.16146 0
M  V30 879 C 81.4625 -2.62772 2.26167 0
M  V30 880 C 80.5235 -2.49482 3.49367 0
M  V30 881 C 79.7565 -3.76145 3.78616 0
M  V30 882 O 79.9795 -4.79087 3.09568 0
M  V30 883 O 78.9135 -3.73358 4.72109 0
M  V30 884 H 82.7395 -0.99309 2.87004 0
M  V30 885 H 80.3245 -0.425958 1.43199 0
M  V30 886 H 82.2065 -3.41327 2.47131 0
M  V30 887 H 80.8815 -2.92913 1.37781 0
M  V30 888 H 79.7885 -1.69133 3.33684 0
M  V30 889 H 81.1215 -2.2428 4.38131 0
M  V30 890 N 82.7736 -1.49793 -0.48987 0
M  V30 891 C 83.7036 -1.70201 -1.59856 0
M  V30 892 C 84.6846 -0.55076 -1.60937 0
M  V30 893 O 85.8696 -0.787841 -1.77501 0
M  V30 894 C 82.9996 -1.77882 -2.98287 0
M  V30 895 C 81.9536 -2.92907 -3.12073 0
M  V30 896 C 81.2796 -2.85712 -4.51965 0
M  V30 897 C 82.5796 -4.3369 -2.91051 0
M  V30 898 H 84.2736 -2.63025 -1.43032 0
M  V30 899 H 81.8196 -1.26574 -0.686664 0
M  V30 900 H 83.7726 -1.90744 -3.75759 0
M  V30 901 H 82.4966 -0.816653 -3.16225 0
M  V30 902 H 81.1556 -2.79665 -2.37029 0
M  V30 903 H 80.8036 -1.8738 -4.66795 0
M  V30 904 H 80.5036 -3.62921 -4.62128 0
M  V30 905 H 82.0276 -3.00598 -5.31482 0
M  V30 906 H 83.4416 -4.47555 -3.58284 0
M  V30 907 H 81.8386 -5.12205 -3.12675 0
M  V30 908 H 82.9086 -4.47362 -1.87071 0
M  V30 909 N 84.2517 0.741722 -1.39055 0
M  V30 910 C 85.1987 1.85566 -1.37237 0
M  V30 911 C 86.1687 1.64457 -0.233072 0
M  V30 912 O 87.3537 1.85957 -0.427147 0
M  V30 913 C 84.4937 3.23004 -1.215 0
M  V30 914 C 83.6067 3.55864 -2.44918 0
M  V30 915 C 82.7417 4.82669 -2.21821 0
M  V30 916 C 81.7807 5.08351 -3.40948 0
M  V30 917 N 80.9177 6.26356 -3.17211 0
M  V30 918 H 85.7577 1.86455 -2.32462 0
M  V30 919 H 83.2947 0.911176 -1.15482 0
M  V30 920 H 85.2527 4.02331 -1.10389 0
M  V30 921 H 83.8827 3.21411 -0.29908 0
M  V30 922 H 82.9347 2.7129 -2.66657 0
M  V30 923 H 84.2467 3.70765 -3.33668 0
M  V30 924 H 83.4007 5.69962 -2.07914 0
M  V30 925 H 82.1397 4.69929 -1.30454 0
M  V30 926 H 81.1447 4.19522 -3.55361 0
M  V30 927 H 82.3697 5.22981 -4.33207 0
M  V30 928 H 80.3157 6.14917 -2.28502 0
M  V30 929 H 80.2327 6.41813 -3.99515 0
M  V30 930 H 81.5007 7.16506 -3.06984 0
M  V30 931 N 85.7298 1.2412 0.971189 0
M  V30 932 C 86.6618 0.988349 2.06795 0
M  V30 933 C 87.6748 -0.0409541 1.62748 0
M  V30 934 O 88.8638 0.195673 1.77424 0
M  V30 935 C 85.9638 0.469023 3.35639 0
M  V30 936 C 85.1368 1.56065 4.08611 0
M  V30 937 C 84.1958 1.04458 5.15728 0
M  V30 938 O 83.2218 1.73553 5.42096 0
M  V30 939 N 84.4238 -0.122817 5.8037 0
M  V30 940 H 87.1888 1.93265 2.29061 0
M  V30 941 H 84.7498 1.15102 1.13856 0
M  V30 942 H 86.7418 0.108613 4.04554 0
M  V30 943 H 85.3118 -0.380919 3.1027 0
M  V30 944 H 84.5318 2.09341 3.34021 0
M  V30 945 H 85.8198 2.29449 4.54126 0
M  V30 946 H 85.2178 -0.700563 5.61345 0
M  V30 947 H 83.7748 -0.424404 6.50417 0
M  V30 948 N 87.2079 -1.17134 1.05439 0
M  V30 949 C 88.6239 -1.39454 0.776201 0
M  V30 950 C 88.8239 -1.91454 -0.628307 0
M  V30 951 O 87.8799 -2.10777 -1.39031 0
M  V30 952 C 89.1929 -2.38305 1.83388 0
M  V30 953 C 90.7409 -2.52006 1.85639 0
M  V30 954 C 91.2159 -3.54133 2.90437 0
M  V30 955 N 92.7069 -3.61653 2.89415 0
M  V30 956 C 93.4419 -4.4044 3.67152 0
M  V30 957 N 92.9379 -5.22721 4.54681 0
M  V30 958 N 94.7309 -4.35337 3.55581 0
M  V30 959 H 86.8819 -0.817134 1.96053 0
M  V30 960 H 89.1449 -0.421626 0.849079 0
M  V30 961 H 88.8509 -2.07173 2.84204 0
M  V30 962 H 88.7249 -3.37841 1.67761 0
M  V30 963 H 91.1119 -2.82447 0.85486 0
M  V30 964 H 91.1929 -1.52537 2.05344 0
M  V30 965 H 90.8369 -3.24431 3.90777 0
M  V30 966 H 90.7669 -4.53313 2.67983 0
M  V30 967 H 93.2579 -3.02909 2.25952 0
M  V30 968 H 93.5709 -5.80027 5.10674 0
M  V30 969 H 91.9159 -5.22093 4.58741 0
M  V30 970 H 95.1069 -3.70112 2.86592 0
M  V30 971 H 95.2799 -4.96494 4.1641 0
M  V30 972 N 88.686 -0.835752 -1.33615 0
M  V30 973 C 89.932 -0.430596 -1.98176 0
M  V30 974 C 90.265 1.00684 -1.66061 0
M  V30 975 O 89.54 1.70339 -0.938877 0
M  V30 976 C 89.823 -0.648065 -3.5422 0
M  V30 977 C 89.676 -2.13255 -3.96033 0
M  V30 978 C 90.995 -0.0922113 -4.40003 0
M  V30 979 H 88.114 -0.157924 -0.719881 0
M  V30 980 H 90.756 -1.05069 -1.58305 0
M  V30 981 H 88.906 -0.120237 -3.88314 0
M  V30 982 H 90.578 -2.725 -3.72211 0
M  V30 983 H 88.821 -2.61823 -3.45878 0
M  V30 984 H 89.492 -2.23547 -5.04708 0
M  V30 985 H 91.968 -0.543343 -4.12537 0
M  V30 986 H 90.844 -0.274083 -5.48215 0
M  V30 987 H 91.105 1.00378 -4.30554 0
M  V30 988 N 90.1641 1.46063 -0.591896 0
M  V30 989 C 91.3921 2.06717 -0.0868936 0
M  V30 990 C 91.8071 1.43916 1.22203 0
M  V30 991 O 91.1641 0.547698 1.74088 0
M  V30 992 C 91.2151 3.6142 0.0758725 0
M  V30 993 O 90.9361 4.21874 -1.18126 0
M  V30 994 C 92.4371 4.39025 0.61416 0
M  V30 995 H 89.6571 0.668162 -0.0616518 0
M  V30 996 H 92.2011 1.8755 -0.815175 0
M  V30 997 H 90.3561 3.79983 0.754413 0
M  V30 998 H 90.7701 5.14861 -1.00092 0
M  V30 999 H 92.2441 5.4783 0.677193 0
M  V30 1000 H 92.7211 4.07708 1.63312 0
M  V30 1001 H 93.3271 4.2529 -0.0298142 0
M  V30 1002 N 91.6422 0.330177 1.54103 0
M  V30 1003 C 92.5892 -0.532762 2.24567 0
M  V30 1004 C 93.5592 -1.10635 1.23892 0
M  V30 1005 O 94.7442 -1.14546 1.5259 0
M  V30 1006 C 91.8842 -1.6845 3.01195 0
M  V30 1007 C 90.9972 -1.13951 4.167 0
M  V30 1008 C 90.1322 -2.25746 4.80845 0
M  V30 1009 C 89.1712 -1.6853 5.88442 0
M  V30 1010 N 88.3082 -2.74014 6.46421 0
M  V30 1011 H 93.1482 0.0746905 2.97906 0
M  V30 1012 H 90.6852 0.048632 1.4702 0
M  V30 1013 H 92.6432 -2.36234 3.43874 0
M  V30 1014 H 91.2732 -2.26314 2.30178 0
M  V30 1015 H 90.3252 -0.35301 3.78758 0
M  V30 1016 H 91.6372 -0.680892 4.94131 0
M  V30 1017 H 90.7912 -3.01422 5.26526 0
M  V30 1018 H 89.5302 -2.74947 4.0281 0
M  V30 1019 H 88.5352 -0.913543 5.42157 0
M  V30 1020 H 89.7602 -1.20198 6.68378 0
M  V30 1021 H 87.7062 -3.22494 5.71256 0
M  V30 1022 H 87.6232 -2.32735 7.19285 0
M  V30 1023 H 88.8912 -3.49499 6.96757 0
M  V30 1024 N 93.1203 -1.57491 0.0584922 0
M  V30 1025 C 94.0833 -2.1085 -0.898617 0
M  V30 1026 C 95.0833 -1.02964 -1.23511 0
M  V30 1027 O 96.2733 -1.29007 -1.17059 0
M  V30 1028 C 93.4053 -2.59881 -2.20623 0
M  V30 1029 H 94.5983 -2.96715 -0.435936 0
M  V30 1030 H 92.1513 -1.55141 -0.190023 0
M  V30 1031 H 92.8863 -1.77431 -2.71457 0
M  V30 1032 H 92.6713 -3.38727 -1.97501 0
M  V30 1033 H 94.1613 -3.01285 -2.89166 0
M  V30 1034 N 94.5984 0.214957 -1.56127 0
M  V30 1035 C 95.8754 0.963093 -1.70247 0
M  V30 1036 C 96.2554 2.02166 -0.60764 0
M  V30 1037 O 95.6034 2.25244 0.384385 0
M  V30 1038 C 95.8134 1.56756 -3.11815 0
M  V30 1039 C 97.1614 2.0573 -3.7143 0
M  V30 1040 O 98.1854 1.66637 -3.14818 0
M  V30 1041 O 97.0444 2.77603 -4.70743 0
M  V30 1042 H 94.1384 0.450321 -0.693643 0
M  V30 1043 H 96.6844 0.206219 -1.68442 0
M  V30 1044 H 95.4564 0.803533 -3.82961 0
M  V30 1045 H 95.0794 2.3898 -3.17765 0
M  V30 1046 N 96.0765 1.50051 0.48192 0
M  V30 1047 C 97.0395 1.67584 1.5636 0
M  V30 1048 C 98.0395 0.546894 1.51214 0
M  V30 1049 O 99.2295 0.813725 1.54026 0
M  V30 1050 C 96.3615 1.691 2.96003 0
M  V30 1051 H 97.5545 2.64078 1.42136 0
M  V30 1052 H 95.1075 1.39369 0.707533 0
M  V30 1053 H 95.8425 0.742589 3.15684 0
M  V30 1054 H 95.6275 2.51105 3.01146 0
M  V30 1055 H 97.1175 1.84656 3.74556 0
M  V30 1056 N 97.5546 -0.734337 1.39446 0
M  V30 1057 C 98.8036 -1.48937 1.36017 0
M  V30 1058 C 99.1166 -1.95557 -0.0409005 0
M  V30 1059 O 100.323 -2.70779 -0.19778 0
M  V30 1060 C 98.7786 -2.69125 2.38955 0
M  V30 1061 C 98.3866 -2.29452 3.8478 0
M  V30 1062 C 100.131 -3.46944 2.44603 0
M  V30 1063 C 98.0376 -3.46366 4.79358 0
M  V30 1064 H 96.9676 -0.559296 0.505672 0
M  V30 1065 H 99.6186 -0.800983 1.65095 0
M  V30 1066 H 98.0006 -3.40041 2.02948 0
M  V30 1067 H 99.1746 -1.66077 4.29831 0
M  V30 1068 H 97.4896 -1.64723 3.82433 0
M  V30 1069 H 100.087 -4.33907 3.12456 0
M  V30 1070 H 100.43 -3.89454 1.47076 0
M  V30 1071 H 100.963 -2.83056 2.79507 0
M  V30 1072 H 97.7016 -3.08905 5.78151 0
M  V30 1073 H 97.2216 -4.08719 4.38986 0
M  V30 1074 H 98.9006 -4.12691 4.98292 0
M  V30 1075 N 99.0327 -1.24633 -0.964593 0
M  V30 1076 C 100.279 -1.08949 -1.71049 0
M  V30 1077 C 100.612 0.370302 -1.90637 0
M  V30 1078 O 99.8867 1.27349 -1.47011 0
M  V30 1079 C 100.17 -1.83329 -3.0994 0
M  V30 1080 C 100.023 -3.37077 -2.97824 0
M  V30 1081 C 101.342 -1.60846 -4.09654 0
M  V30 1082 H 98.4607 -0.397178 -0.620821 0
M  V30 1083 H 101.103 -1.5334 -1.12191 0
M  V30 1084 H 99.2527 -1.45597 -3.60186 0
M  V30 1085 H 100.925 -3.84425 -2.5498 0
M  V30 1086 H 99.1677 -3.65298 -2.33965 0
M  V30 1087 H 99.8387 -3.84324 -3.96231 0
M  V30 1088 H 102.315 -1.93674 -3.68279 0
M  V30 1089 H 101.191 -2.1534 -5.04896 0
M  V30 1090 H 101.452 -0.547434 -4.38698 0
M  V30 1091 N 100.511 1.16574 -1.06058 0
M  V30 1092 C 101.441 2.23057 -0.690488 0
M  V30 1093 C 102.422 1.67141 0.315901 0
M  V30 1094 O 103.607 1.93253 0.191556 0
M  V30 1095 C 100.737 3.47222 -0.073625 0
M  V30 1096 C 99.6908 4.16016 -1.00573 0
M  V30 1097 C 99.0168 5.34104 -0.252289 0
M  V30 1098 C 100.317 4.67264 -2.33371 0
M  V30 1099 H 102.011 2.54271 -1.58072 0
M  V30 1100 H 99.5568 1.22218 -0.76149 0
M  V30 1101 H 101.51 4.20939 0.19714 0
M  V30 1102 H 100.234 3.15302 0.85161 0
M  V30 1103 H 98.8928 3.44223 -1.2612 0
M  V30 1104 H 98.5408 4.98437 0.675988 0
M  V30 1105 H 98.2408 5.81072 -0.873455 0
M  V30 1106 H 99.7648 6.10599 0.0109857 0
M  V30 1107 H 101.179 5.32573 -2.12223 0
M  V30 1108 H 99.5758 5.24843 -2.90963 0
M  V30 1109 H 100.646 3.83602 -2.96611 0
M  V30 1110 N 101.989 0.842826 1.3317 0
M  V30 1111 C 102.919 0.294028 2.31641 0
M  V30 1112 C 103.9 -0.600401 1.59151 0
M  V30 1113 O 105.085 -0.523124 1.87022 0
M  V30 1114 C 102.215 -0.528416 3.43257 0
M  V30 1115 C 101.169 0.27056 4.27144 0
M  V30 1116 C 100.495 -0.675881 5.30411 0
M  V30 1117 C 101.795 1.48981 5.00602 0
M  V30 1118 H 103.489 1.11681 2.77791 0
M  V30 1119 H 101.035 0.538478 1.33553 0
M  V30 1120 H 102.988 -0.922674 4.11175 0
M  V30 1121 H 101.712 -1.38445 2.95805 0
M  V30 1122 H 100.371 0.646427 3.60856 0
M  V30 1123 H 100.019 -1.52842 4.79216 0
M  V30 1124 H 99.7189 -0.145374 5.8742 0
M  V30 1125 H 101.243 -1.06757 6.01195 0
M  V30 1126 H 102.657 1.16849 5.61266 0
M  V30 1127 H 101.054 1.95739 5.6728 0
M  V30 1128 H 102.124 2.25746 4.29147 0
M  V30 1129 N 103.467 -1.45747 0.599634 0
M  V30 1130 C 104.692 -2.07178 0.0960198 0
M  V30 1131 C 105.117 -1.44268 -1.207 0
M  V30 1132 O 104.475 -0.532503 -1.73303 0
M  V30 1133 C 104.523 -3.60579 -0.0385348 0
M  V30 1134 O 103.627 -3.97713 -1.0908 0
M  V30 1135 H 102.968 -0.660251 0.0704593 0
M  V30 1136 H 105.498 -1.87124 0.827385 0
M  V30 1137 H 105.508 -4.07298 -0.239304 0
M  V30 1138 H 104.183 -4.05756 0.912947 0
M  V30 1139 H 102.76 -3.62678 -0.867135 0
M  V30 1140 N 104.945 -0.338344 -1.53925 0
M  V30 1141 C 106.356 0.146651 -1.86123 0
M  V30 1142 C 106.707 1.5042 -1.2597 0
M  V30 1143 O 105.832 2.08723 -0.571294 0
M  V30 1144 C 106.427 0.272879 -3.37699 0
M  V30 1145 C 104.986 0.702103 -3.69794 0
M  V30 1146 C 104.133 -0.167304 -2.76795 0
M  V30 1147 H 107.084 -0.558123 -1.48562 0
M  V30 1148 H 107.105 1.10128 -3.64214 0
M  V30 1149 H 106.617 -0.715307 -3.81451 0
M  V30 1150 H 104.718 1.6995 -3.31584 0
M  V30 1151 H 104.831 0.495604 -4.7653 0
M  V30 1152 H 103.195 0.359527 -2.5215 0
M  V30 1153 H 103.978 -1.15253 -3.23375 0
M  V30 1154 N 106.423 1.57458 -0.0668435 0
M  V30 1155 C 107.333 2.15937 0.916975 0
M  V30 1156 C 108.349 1.12123 1.33058 0
M  V30 1157 O 109.525 1.44366 1.40429 0
M  V30 1158 C 106.59 2.70547 2.16807 0
M  V30 1159 C 105.651 3.89215 1.81135 0
M  V30 1160 C 104.884 4.41211 3.0028 0
M  V30 1161 O 105.107 3.92225 4.14144 0
M  V30 1162 O 104.041 5.32605 2.80384 0
M  V30 1163 H 107.867 3.00354 0.449561 0
M  V30 1164 H 105.452 1.48584 0.155949 0
M  V30 1165 H 107.334 3.0557 2.90181 0
M  V30 1166 H 106.009 1.89192 2.62656 0
M  V30 1167 H 104.916 3.59054 1.05028 0
M  V30 1168 H 106.249 4.71848 1.40073 0
M  V30 1169 N 107.901 -0.206675 1.56239 0
M  V30 1170 C 109.131 -0.943975 1.83773 0
M  V30 1171 C 109.539 -1.77841 0.645703 0
M  V30 1172 O 108.882 -1.79403 -0.395008 0
M  V30 1173 C 108.944 -1.899 3.05251 0
M  V30 1174 C 108.608 -1.24764 4.39639 0
M  V30 1175 C 109.605 -0.630216 5.16066 0
M  V30 1176 C 107.29 -1.25496 4.8637 0
M  V30 1177 C 109.284 -0.0287946 6.37393 0
M  V30 1178 C 106.971 -0.649698 6.07637 0
M  V30 1179 C 107.969 -0.0376845 6.8299 0
M  V30 1180 O 107.657 0.55812 8.0196 0
M  V30 1181 H 107.389 -0.281508 0.614597 0
M  V30 1182 H 109.943 -0.222458 2.04192 0
M  V30 1183 H 108.173 -2.6599 2.80689 0
M  V30 1184 H 109.862 -2.5031 3.1953 0
M  V30 1185 H 110.628 -0.616785 4.81062 0
M  V30 1186 H 106.507 -1.72072 4.27683 0
M  V30 1187 H 110.051 0.449518 6.9615 0
M  V30 1188 H 105.948 -0.660592 6.42111 0
M  V30 1189 H 106.716 0.453891 8.17241 0
M  V30 1190 N 109.379 -1.50304 -0.473955 0
M  V30 1191 C 110.329 -1.65347 -1.56985 0
M  V30 1192 C 111.313 -0.508176 -1.52664 0
M  V30 1193 O 112.505 -0.762446 -1.59737 0
M  V30 1194 C 109.634 -1.74832 -2.95447 0
M  V30 1195 C 108.72 -2.95028 -3.04662 0
M  V30 1196 N 109.111 -4.18747 -2.83698 0
M  V30 1197 C 107.409 -2.93527 -3.35795 0
M  V30 1198 C 108.11 -4.99687 -2.97805 0
M  V30 1199 N 107.086 -4.33585 -3.2788 0
M  V30 1200 H 110.888 -2.58698 -1.39472 0
M  V30 1201 H 108.402 -1.47449 -0.680629 0
M  V30 1202 H 110.399 -1.83712 -3.7424 0
M  V30 1203 H 109.059 -0.826376 -3.14008 0
M  V30 1204 H 110.07 -4.48291 -2.59337 0
M  V30 1205 H 106.747 -2.10821 -3.60362 0
M  V30 1206 H 108.137 -6.08057 -2.85861 0
M  V30 1207 N 110.857 0.726932 -1.39834 0
M  V30 1208 C 112.082 1.52121 -1.40976 0
M  V30 1209 C 112.507 1.88098 -0.00826029 0
M  V30 1210 O 111.865 1.52479 0.980807 0
M  V30 1211 C 111.913 2.78021 -2.29644 0
M  V30 1212 O 111.017 3.74272 -1.73188 0
M  V30 1213 H 110.358 0.45908 -0.479731 0
M  V30 1214 H 112.888 0.896207 -1.83927 0
M  V30 1215 H 112.898 3.26671 -2.44438 0
M  V30 1216 H 111.573 2.51169 -3.31492 0
M  V30 1217 H 110.15 3.33073 -1.6768 0
M  V30 1218 N 112.336 1.25143 0.95797 0
M  V30 1219 C 113.584 1.09476 1.69881 0
M  V30 1220 C 113.905 -0.365502 1.91544 0
M  V30 1221 O 113.175 -1.25985 1.50015 0
M  V30 1222 H 111.755 0.402128 0.629525 0
M  V30 1223 H 114.417 1.57214 1.15194 0
M  V30 1224 H 113.513 1.60046 2.6794 0
M  V30 1225 N 113.814 -1.1601 1.06675 0
M  V30 1226 C 114.747 -2.1947 0.625168 0
M  V30 1227 C 115.725 -1.58699 -0.354041 0
M  V30 1228 O 116.909 -1.86669 -0.262098 0
M  V30 1229 C 114.036 -3.38598 -0.0829593 0
M  V30 1230 C 113.082 -4.1787 0.853611 0
M  V30 1231 S 113.915 -4.81135 2.35094 0
M  V30 1232 C 115.071 -6.03639 1.65441 0
M  V30 1233 H 115.304 -2.56587 1.50168 0
M  V30 1234 H 112.837 -1.26862 0.880078 0
M  V30 1235 H 114.795 -4.07621 -0.485288 0
M  V30 1236 H 113.456 -2.99839 -0.935716 0
M  V30 1237 H 112.649 -5.03078 0.304755 0
M  V30 1238 H 112.251 -3.54361 1.196 0
M  V30 1239 H 114.543 -6.70632 0.962201 0
M  V30 1240 H 115.486 -6.63081 2.48454 0
M  V30 1241 H 115.894 -5.52965 1.13534 0
M  V30 1242 N 115.292 -0.849877 -1.32721 0
M  V30 1243 C 116.517 -0.463856 -2.02146 0
M  V30 1244 C 116.942 0.930449 -1.63476 0
M  V30 1245 O 116.3 1.61033 -0.832952 0
M  V30 1246 C 116.348 -0.604955 -3.55489 0
M  V30 1247 O 115.452 0.36425 -4.10788 0
M  V30 1248 H 114.793 -0.187046 -0.637111 0
M  V30 1249 H 117.323 -1.14775 -1.69375 0
M  V30 1250 H 117.333 -0.490696 -4.05038 0
M  V30 1251 H 116.008 -1.62174 -3.82978 0
M  V30 1252 H 114.585 0.206628 -3.72327 0
M  V30 1253 N 116.77 1.45427 -0.607355 0
M  V30 1254 C 118.018 2.01841 -0.102253 0
M  V30 1255 C 118.339 1.47832 1.27164 0
M  V30 1256 O 117.609 0.672497 1.83995 0
M  V30 1257 H 116.189 0.746188 -0.0348101 0
M  V30 1258 H 118.851 1.78229 -0.7887 0
M  V30 1259 H 117.947 3.12057 -0.0518585 0
M  V30 1260 N 118.248 0.346503 1.53744 0
M  V30 1261 C 119.211 -0.496439 2.23759 0
M  V30 1262 C 120.211 -1.0252 1.2388 0
M  V30 1263 O 121.401 -0.913974 1.48297 0
M  V30 1264 C 118.533 -1.69187 2.95954 0
M  V30 1265 H 119.726 0.115952 2.99676 0
M  V30 1266 H 117.279 0.0978939 1.55993 0
M  V30 1267 H 118.014 -2.34288 2.24231 0
M  V30 1268 H 117.799 -1.31989 3.69217 0
M  V30 1269 H 119.289 -2.28969 3.49232 0
M  V30 1270 N 119.726 -1.57421 0.075193 0
M  V30 1271 C 120.656 -2.15942 -0.888324 0
M  V30 1272 C 121.637 -1.08737 -1.30806 0
M  V30 1273 O 122.822 -1.36787 -1.37851 0
M  V30 1274 C 119.952 -2.72379 -2.1547 0
M  V30 1275 C 118.906 -3.8478 -1.87425 0
M  V30 1276 C 118.232 -4.27834 -3.20721 0
M  V30 1277 C 119.532 -5.08869 -1.17684 0
M  V30 1278 H 121.226 -2.96705 -0.400799 0
M  V30 1279 H 118.772 -1.42723 -0.191342 0
M  V30 1280 H 120.725 -3.11965 -2.83295 0
M  V30 1281 H 119.449 -1.88841 -2.6647 0
M  V30 1282 H 118.108 -3.45703 -1.22004 0
M  V30 1283 H 117.756 -3.41214 -3.6957 0
M  V30 1284 H 117.456 -5.03605 -3.02746 0
M  V30 1285 H 118.98 -4.70039 -3.89738 0
M  V30 1286 H 120.394 -5.4575 -1.75584 0
M  V30 1287 H 118.791 -5.8994 -1.09956 0
M  V30 1288 H 119.861 -4.84648 -0.156453 0
M  V30 1289 N 121.204 0.198386 -1.56346 0
M  V30 1290 C 122.151 1.24589 -1.94284 0
M  V30 1291 C 123.121 1.454 -0.802997 0
M  V30 1292 O 124.306 1.58588 -1.06087 0
M  V30 1293 C 121.446 2.58631 -2.28482 0
M  V30 1294 C 120.559 2.45426 -3.55514 0
M  V30 1295 C 119.694 3.7215 -3.79049 0
M  V30 1296 C 118.733 3.53763 -4.99518 0
M  V30 1297 N 117.87 4.72491 -5.19323 0
M  V30 1298 H 122.71 0.915356 -2.83593 0
M  V30 1299 H 120.247 0.440629 -1.40346 0
M  V30 1300 H 122.205 3.3672 -2.46324 0
M  V30 1301 H 120.835 2.89734 -1.42317 0
M  V30 1302 H 119.887 1.58652 -3.45737 0
M  V30 1303 H 121.199 2.27772 -4.43758 0
M  V30 1304 H 120.353 4.58679 -3.97113 0
M  V30 1305 H 119.092 3.92754 -2.89129 0
M  V30 1306 H 118.097 2.65619 -4.8138 0
M  V30 1307 H 119.322 3.34607 -5.90944 0
M  V30 1308 H 117.268 4.93365 -4.3235 0
M  V30 1309 H 117.185 4.5765 -6.01741 0
M  V30 1310 H 118.453 5.6038 -5.41843 0
M  V30 1311 N 122.682 1.50554 0.465978 0
M  V30 1312 C 123.63 1.70324 1.58406 0
M  V30 1313 C 124.624 0.569139 1.59553 0
M  V30 1314 O 125.83 0.749776 1.63641 0
M  V30 1315 H 122.205 0.537688 0.525734 0
M  V30 1316 H 124.176 2.64104 1.38894 0
M  V30 1317 C 122.925 1.81928 2.96307 0
M  V30 1318 H 122.248 2.68586 2.96144 0
M  V30 1319 H 123.688 1.99784 3.73982 0
M  V30 1320 C 122.147 0.572095 3.32007 0
M  V30 1321 O 122.677 -0.286416 4.00678 0
M  V30 1322 N 120.883 0.424606 2.87481 0
M  V30 1323 H 120.43 1.12427 2.31771 0
M  V30 1324 H 120.388 -0.408697 3.11732 0
M  V30 1325 N 124.16 -0.719506 1.40217 0
M  V30 1326 C 125.123 -1.8153 1.39927 0
M  V30 1327 C 126.123 -1.58095 0.293723 0
M  V30 1328 O 127.313 -1.65209 0.552429 0
M  V30 1329 C 124.445 -3.19561 1.18716 0
M  V30 1330 H 125.638 -1.83186 2.37451 0
M  V30 1331 H 123.191 -0.924746 1.26008 0
M  V30 1332 H 123.926 -3.23557 0.219366 0
M  V30 1333 H 123.711 -3.3797 1.98793 0
M  V30 1334 H 125.201 -3.99598 1.21291 0
M  V30 1335 N 125.638 -1.25649 -0.95132 0
M  V30 1336 C 126.568 -1.08808 -2.06599 0
M  V30 1337 C 127.549 0.00382547 -1.701 0
M  V30 1338 O 128.734 -0.166325 -1.93486 0
M  V30 1339 C 125.864 -0.709542 -3.39975 0
M  V30 1340 C 124.818 -1.75206 -3.90496 0
M  V30 1341 C 124.144 -1.22811 -5.20405 0
M  V30 1342 C 125.444 -3.15153 -4.16504 0
M  V30 1343 H 127.138 -2.02048 -2.20946 0
M  V30 1344 H 124.684 -0.972835 -1.06169 0
M  V30 1345 H 126.637 -0.578649 -4.17408 0
M  V30 1346 H 125.361 0.258556 -3.25575 0
M  V30 1347 H 124.02 -1.87145 -3.15234 0
M  V30 1348 H 123.668 -0.250145 -5.02378 0
M  V30 1349 H 123.368 -1.92492 -5.55176 0
M  V30 1350 H 124.892 -1.10968 -6.00432 0
M  V30 1351 H 126.306 -3.06349 -4.84586 0
M  V30 1352 H 124.703 -3.82333 -4.62538 0
M  V30 1353 H 125.773 -3.61966 -3.22658 0
M  V30 1354 N 127.117 1.15442 -1.07289 0
M  V30 1355 C 128.394 1.82306 -0.708792 0
M  V30 1356 C 128.774 1.94991 0.808807 0
M  V30 1357 O 128.122 1.50085 1.72298 0
M  V30 1358 C 128.332 3.18695 -1.42247 0
M  V30 1359 C 129.68 3.94341 -1.57417 0
M  V30 1360 O 130.704 3.28247 -1.38319 0
M  V30 1361 O 129.563 5.12839 -1.88834 0
M  V30 1362 H 126.657 0.787628 -0.252132 0
M  V30 1363 H 129.203 1.22559 -1.17377 0
M  V30 1364 H 127.975 3.04557 -2.45684 0
M  V30 1365 H 127.598 3.86128 -0.948223 0
M  V30 1366 N 128.595 0.856903 1.32268 0
M  V30 1367 C 129.842 0.461386 1.97174 0
M  V30 1368 C 130.17 -0.983491 1.67803 0
M  V30 1369 O 129.425 -1.70541 0.959903 0
M  V30 1370 C 129.724 0.649919 3.51441 0
M  V30 1371 C 129.39 2.0656 4.00804 0
M  V30 1372 C 128.052 2.45279 4.13995 0
M  V30 1373 C 130.404 2.98947 4.26943 0
M  V30 1374 C 127.732 3.75653 4.50668 0
M  V30 1375 C 130.084 4.28822 4.65075 0
M  V30 1376 C 128.748 4.67472 4.76472 0
M  V30 1377 H 128.018 0.168833 0.72151 0
M  V30 1378 H 130.665 1.08739 1.57633 0
M  V30 1379 H 128.97 -0.0593018 3.91755 0
M  V30 1380 H 130.667 0.32391 3.9969 0
M  V30 1381 H 127.257 1.75495 3.91024 0
M  V30 1382 H 131.441 2.70265 4.16258 0
M  V30 1383 H 126.697 4.05379 4.57688 0
M  V30 1384 H 130.871 5.0047 4.84255 0
M  V30 1385 H 128.498 5.68539 5.04646 0
M  V30 1386 N 130.073 -1.45103 0.615059 0
M  V30 1387 C 131.003 -2.33339 -0.0865619 0
M  V30 1388 C 131.984 -1.4727 -0.851209 0
M  V30 1389 O 133.169 -1.76026 -0.820281 0
M  V30 1390 C 130.299 -3.30095 -1.07956 0
M  V30 1391 C 129.253 -4.25858 -0.427628 0
M  V30 1392 C 128.579 -5.12361 -1.5294 0
M  V30 1393 C 129.879 -5.18165 0.655944 0
M  V30 1394 H 131.573 -2.92254 0.650224 0
M  V30 1395 H 129.119 -1.40532 0.314138 0
M  V30 1396 H 131.072 -3.90698 -1.57901 0
M  V30 1397 H 129.796 -2.69355 -1.84703 0
M  V30 1398 H 128.455 -3.66564 0.0510292 0
M  V30 1399 H 128.103 -4.47984 -2.28734 0
M  V30 1400 H 127.803 -5.77238 -1.09865 0
M  V30 1401 H 129.327 -5.75833 -2.03098 0
M  V30 1402 H 130.741 -5.72796 0.240257 0
M  V30 1403 H 129.138 -5.91559 1.00888 0
M  V30 1404 H 130.208 -4.60144 1.52957 0
M  V30 1405 N 131.551 -0.354651 -1.53558 0
M  V30 1406 C 132.776 0.242153 -2.05981 0
M  V30 1407 C 133.201 1.42553 -1.2272 0
M  V30 1408 O 132.559 1.79656 -0.243604 0
M  V30 1409 C 132.607 0.624367 -3.55154 0
M  V30 1410 O 131.711 1.72301 -3.74681 0
M  V30 1411 H 131.052 0.0378432 -0.662921 0
M  V30 1412 H 133.582 -0.512087 -1.98088 0
M  V30 1413 H 133.592 0.898433 -3.97985 0
M  V30 1414 H 132.267 -0.240989 -4.15201 0
M  V30 1415 H 130.844 1.44535 -3.4375 0
M  V30 1416 N 133.029 1.57378 -0.0835403 0
M  V30 1417 C 134.254 1.98682 0.594987 0
M  V30 1418 C 134.679 0.961969 1.61641 0
M  V30 1419 O 134.037 -0.0709989 1.81161 0
M  V30 1420 C 134.085 3.38988 1.2296 0
M  V30 1421 O 133.189 3.39208 2.34546 0
M  V30 1422 H 132.53 0.646368 0.152002 0
M  V30 1423 H 135.06 2.03961 -0.161533 0
M  V30 1424 H 135.07 3.76431 1.57366 0
M  V30 1425 H 133.745 4.13107 0.481228 0
M  V30 1426 H 132.322 3.13548 2.01846 0
M  V30 1427 N 134.507 -0.190092 1.56449 0
M  V30 1428 C 135.417 -1.25591 1.98152 0
M  V30 1429 C 136.433 -1.49519 0.889944 0
M  V30 1430 O 137.609 -1.62036 1.19609 0
M  V30 1431 C 134.674 -2.57916 2.3169 0
M  V30 1432 C 133.735 -2.42015 3.5458 0
M  V30 1433 C 132.968 -3.6803 3.8651 0
M  V30 1434 O 133.191 -4.72413 3.1966 0
M  V30 1435 O 132.125 -3.6326 4.79923 0
M  V30 1436 H 135.951 -0.931988 2.89046 0
M  V30 1437 H 133.536 -0.395488 1.4407 0
M  V30 1438 H 135.418 -3.36008 2.54316 0
M  V30 1439 H 134.093 -2.89925 1.43963 0
M  V30 1440 H 133 -1.62017 3.37196 0
M  V30 1441 H 134.333 -2.14937 4.4279 0
M  V30 1442 N 135.985 -1.50799 -0.457987 0
M  V30 1443 C 136.917 -1.66786 -1.57211 0
M  V30 1444 C 137.93 -0.548962 -1.53265 0
M  V30 1445 O 139.119 -0.8226 -1.58416 0
M  V30 1446 C 136.219 -1.64834 -2.96113 0
M  V30 1447 C 135.392 -2.92971 -3.24787 0
M  V30 1448 C 134.451 -2.83485 -4.43309 0
M  V30 1449 O 133.477 -3.5744 -4.42973 0
M  V30 1450 N 134.679 -1.97929 -5.45714 0
M  V30 1451 H 137.444 -2.62889 -1.43909 0
M  V30 1452 H 135.005 -1.48427 -0.646617 0
M  V30 1453 H 136.997 -1.56084 -3.7339 0
M  V30 1454 H 135.567 -0.764118 -3.03117 0
M  V30 1455 H 134.787 -3.15749 -2.36 0
M  V30 1456 H 136.075 -3.77834 -3.40762 0
M  V30 1457 H 135.473 -1.37182 -5.48815 0
M  V30 1458 H 134.03 -1.95073 -6.21924 0
M  V30 1459 N 137.463 0.71206 -1.40597 0
M  V30 1460 C 138.71 1.47197 -1.39065 0
M  V30 1461 C 139.038 1.94499 0.00583891 0
M  V30 1462 O 138.293 1.68752 0.99102 0
M  V30 1463 C 138.592 2.71039 -2.32965 0
M  V30 1464 C 138.258 2.42484 -3.80148 0
M  V30 1465 C 136.92 2.34406 -4.20247 0
M  V30 1466 C 139.272 2.18598 -4.73143 0
M  V30 1467 C 136.6 2.00516 -5.51371 0
M  V30 1468 C 138.952 1.8622 -6.0457 0
M  V30 1469 C 137.616 1.76626 -6.43708 0
M  V30 1470 H 136.886 0.538634 -0.508876 0
M  V30 1471 H 139.533 0.815325 -1.73276 0
M  V30 1472 H 137.838 3.41558 -1.91951 0
M  V30 1473 H 139.535 3.29138 -2.29061 0
M  V30 1474 H 136.125 2.49659 -3.4838 0
M  V30 1475 H 140.309 2.23793 -4.42979 0
M  V30 1476 H 135.565 1.91628 -5.80593 0
M  V30 1477 H 139.739 1.66752 -6.76141 0
M  V30 1478 H 137.366 1.50133 -7.45228 0
M  V30 1479 N 138.941 1.26152 0.944643 0
M  V30 1480 C 139.888 1.07408 2.04285 0
M  V30 1481 C 140.858 -0.0198413 1.66088 0
M  V30 1482 O 142.043 0.139264 1.90291 0
M  V30 1483 C 139.183 0.70945 3.37729 0
M  V30 1484 C 138.296 1.87926 3.88983 0
M  V30 1485 C 137.431 1.45807 5.10797 0
M  V30 1486 C 136.47 2.5964 5.54305 0
M  V30 1487 N 135.607 2.18226 6.67324 0
M  V30 1488 H 140.447 2.01389 2.1965 0
M  V30 1489 H 137.984 1.00275 1.07626 0
M  V30 1490 H 139.942 0.478948 4.14442 0
M  V30 1491 H 138.572 -0.193389 3.2222 0
M  V30 1492 H 137.624 2.22279 3.08701 0
M  V30 1493 H 138.936 2.73377 4.17213 0
M  V30 1494 H 138.09 1.18781 5.94959 0
M  V30 1495 H 136.829 0.574414 4.84305 0
M  V30 1496 H 135.834 2.87399 4.68702 0
M  V30 1497 H 137.059 3.48599 5.828 0
M  V30 1498 H 135.005 1.3229 6.42523 0
M  V30 1499 H 134.922 2.97221 6.95123 0
M  V30 1500 H 136.19 1.94403 7.54869 0
M  V30 1501 N 140.419 -1.14872 1.07899 0
M  V30 1502 C 141.649 -1.89386 0.825631 0
M  V30 1503 C 142.057 -1.78565 -0.625406 0
M  V30 1504 O 141.4 -1.13918 -1.44113 0
M  V30 1505 C 141.462 -3.40206 1.16191 0
M  V30 1506 C 141.126 -3.74812 2.61467 0
M  V30 1507 C 142.123 -3.75367 3.59716 0
M  V30 1508 C 139.808 -4.0495 2.97189 0
M  V30 1509 C 141.802 -4.05574 4.9172 0
M  V30 1510 C 139.489 -4.34821 4.29388 0
M  V30 1511 C 140.487 -4.35116 5.26463 0
M  V30 1512 O 140.175 -4.64267 6.56286 0
M  V30 1513 H 139.907 -0.606894 0.297751 0
M  V30 1514 H 142.461 -1.46438 1.44031 0
M  V30 1515 H 140.691 -3.8358 0.490214 0
M  V30 1516 H 142.38 -3.96018 0.890193 0
M  V30 1517 H 143.146 -3.52176 3.33462 0
M  V30 1518 H 139.025 -4.03876 2.22273 0
M  V30 1519 H 142.569 -4.05719 5.67484 0
M  V30 1520 H 138.466 -4.5748 4.55392 0
M  V30 1521 H 139.234 -4.82007 6.61522 0
M  V30 1522 N 141.898 -0.863906 -1.31812 0
M  V30 1523 C 142.845 -0.313303 -2.28664 0
M  V30 1524 C 143.815 0.584868 -1.55462 0
M  V30 1525 O 145 0.517805 -1.83639 0
M  V30 1526 C 142.14 0.48441 -3.41683 0
M  V30 1527 C 141.253 -0.440594 -4.29747 0
M  V30 1528 C 140.388 0.370652 -5.29905 0
M  V30 1529 C 139.427 -0.551164 -6.09613 0
M  V30 1530 N 138.564 0.223462 -7.01744 0
M  V30 1531 H 143.404 -1.14444 -2.75148 0
M  V30 1532 H 140.941 -0.575769 -1.35364 0
M  V30 1533 H 142.899 0.962627 -4.05943 0
M  V30 1534 H 141.529 1.28029 -2.96325 0
M  V30 1535 H 140.581 -1.03724 -3.65986 0
M  V30 1536 H 141.893 -1.14767 -4.85417 0
M  V30 1537 H 141.047 0.911638 -5.99812 0
M  V30 1538 H 139.786 1.11105 -4.74876 0
M  V30 1539 H 138.791 -1.10396 -5.38603 0
M  V30 1540 H 140.016 -1.29032 -6.66729 0
M  V30 1541 H 137.962 0.946787 -6.49132 0
M  V30 1542 H 137.879 -0.424399 -7.54808 0
M  V30 1543 H 139.147 0.745876 -7.75923 0
M  V30 1544 N 143.376 1.44774 -0.622745 0
M  V30 1545 C 144.787 1.85546 -0.207226 0
M  V30 1546 C 145.138 1.52093 1.23944 0
M  V30 1547 O 144.263 0.95492 1.94191 0
M  V30 1548 C 144.858 3.36781 -0.369313 0
M  V30 1549 C 143.417 3.76399 -0.00836847 0
M  V30 1550 C 142.564 2.68664 -0.686651 0
M  V30 1551 H 145.515 1.3536 -0.828454 0
M  V30 1552 H 145.536 3.78453 0.394162 0
M  V30 1553 H 145.048 3.61098 -1.42231 0
M  V30 1554 H 143.149 3.57698 1.04322 0
M  V30 1555 H 143.262 4.7732 -0.412584 0
M  V30 1556 H 141.626 2.54404 -0.122777 0
M  V30 1557 H 142.409 2.95815 -1.74208 0
M  V30 1558 N 144.854 0.36279 1.53368 0
M  V30 1559 C 146.1 -0.228113 2.01513 0
M  V30 1560 C 146.433 -1.48648 1.2497 0
M  V30 1561 O 145.708 -1.91459 0.342616 0
M  V30 1562 C 145.991 -0.522884 3.56284 0
M  V30 1563 C 145.844 0.74892 4.43521 0
M  V30 1564 C 147.163 -1.32461 4.19693 0
M  V30 1565 H 144.282 -0.0814343 0.732487 0
M  V30 1566 H 146.924 0.48713 1.83649 0
M  V30 1567 H 145.074 -1.1322 3.71636 0
M  V30 1568 H 146.746 1.38648 4.39971 0
M  V30 1569 H 144.989 1.36986 4.11603 0
M  V30 1570 H 145.66 0.497667 5.49752 0
M  V30 1571 H 148.136 -0.809203 4.08156 0
M  V30 1572 H 147.012 -1.49961 5.28018 0
M  V30 1573 H 147.273 -2.33232 3.75573 0
M  V30 1574 N 146.332 -1.57332 0.0918853 0
M  V30 1575 C 147.295 -2.12708 -0.85369 0
M  V30 1576 C 148.295 -1.05561 -1.213 0
M  V30 1577 O 149.485 -1.31461 -1.14296 0
M  V30 1578 C 146.617 -2.64503 -2.15061 0
M  V30 1579 H 147.81 -2.97573 -0.3729 0
M  V30 1580 H 145.363 -1.55509 -0.157072 0
M  V30 1581 H 146.098 -1.83149 -2.67632 0
M  V30 1582 H 145.883 -3.4284 -1.90272 0
M  V30 1583 H 147.373 -3.07351 -2.82711 0
M  V30 1584 N 147.81 0.181792 -1.56548 0
M  V30 1585 C 148.74 1.22765 -1.98623 0
M  V30 1586 C 149.721 1.46747 -0.860189 0
M  V30 1587 O 150.906 1.58259 -1.12551 0
M  V30 1588 C 148.036 2.56894 -2.33715 0
M  V30 1589 C 146.99 2.475 -3.49182 0
M  V30 1590 C 146.316 3.86023 -3.69986 0
M  V30 1591 C 147.616 1.98866 -4.82959 0
M  V30 1592 H 149.31 0.877942 -2.86239 0
M  V30 1593 H 146.856 0.42088 -1.37712 0
M  V30 1594 H 148.809 3.30253 -2.61746 0
M  V30 1595 H 147.533 2.93632 -1.42997 0
M  V30 1596 H 146.192 1.76596 -3.21262 0
M  V30 1597 H 145.84 4.20136 -2.76576 0
M  V30 1598 H 145.54 3.80609 -4.47672 0
M  V30 1599 H 147.064 4.60984 -4.00407 0
M  V30 1600 H 148.478 2.61992 -5.09934 0
M  V30 1601 H 146.875 2.04424 -5.64208 0
M  V30 1602 H 147.945 0.942465 -4.75653 0
M  V30 1603 N 149.288 1.51039 0.449983 0
M  V30 1604 C 150.218 1.74379 1.55288 0
M  V30 1605 C 151.199 0.593236 1.5942 0
M  V30 1606 O 152.384 0.834625 1.7535 0
M  V30 1607 C 149.514 1.85728 2.93466 0
M  V30 1608 C 148.468 3.01078 3.04197 0
M  V30 1609 C 147.794 2.97595 4.44231 0
M  V30 1610 C 149.094 4.41254 2.7945 0
M  V30 1611 H 150.788 2.66725 1.36008 0
M  V30 1612 H 148.334 1.2835 0.652864 0
M  V30 1613 H 150.287 2.0064 3.70569 0
M  V30 1614 H 149.011 0.900207 3.13949 0
M  V30 1615 H 147.67 2.85851 2.29531 0
M  V30 1616 H 147.318 1.99691 4.61663 0
M  V30 1617 H 147.018 3.75046 4.52343 0
M  V30 1618 H 148.542 3.14583 5.23326 0
M  V30 1619 H 149.956 4.56897 3.46292 0
M  V30 1620 H 148.353 5.20315 2.98985 0
M  V30 1621 H 149.423 4.52164 1.75144 0
M  V30 1622 N 150.766 -0.704594 1.40972 0
M  V30 1623 C 151.729 -1.80035 1.41845 0
M  V30 1624 C 152.729 -1.57774 0.310474 0
M  V30 1625 O 153.919 -1.64613 0.56992 0
M  V30 1626 C 151.051 -3.18284 1.22098 0
M  V30 1627 H 152.244 -1.80658 2.3938 0
M  V30 1628 H 149.797 -0.911329 1.26982 0
M  V30 1629 H 150.532 -3.23306 0.253672 0
M  V30 1630 H 150.317 -3.35843 2.02366 0
M  V30 1631 H 151.807 -3.98289 1.25522 0
M  V30 1632 N 152.244 -1.26651 -0.937939 0
M  V30 1633 C 153.49 -1.12553 -1.687 0
M  V30 1634 C 153.823 0.329782 -1.91379 0
M  V30 1635 O 153.098 1.24202 -1.4968 0
M  V30 1636 C 153.381 -1.89862 -3.05981 0
M  V30 1637 C 153.234 -3.43318 -2.90607 0
M  V30 1638 C 154.553 -1.69499 -4.0615 0
M  V30 1639 H 151.672 -0.410257 -0.612257 0
M  V30 1640 H 154.314 -1.55685 -1.08913 0
M  V30 1641 H 152.464 -1.53204 -3.57017 0
M  V30 1642 H 154.136 -3.89747 -2.46769 0
M  V30 1643 H 152.379 -3.70179 -2.26164 0
M  V30 1644 H 153.05 -3.92642 -3.8799 0
M  V30 1645 H 155.526 -2.01442 -3.64088 0
M  V30 1646 H 154.402 -2.26002 -5.00214 0
M  V30 1647 H 154.663 -0.640365 -4.37438 0
M  V30 1648 N 153.722 1.14298 -1.08507 0
M  V30 1649 C 154.685 2.17607 -0.719711 0
M  V30 1650 C 155.685 1.58907 0.245997 0
M  V30 1651 O 156.875 1.74181 0.0254081 0
M  V30 1652 C 154.007 3.40842 -0.0627695 0
M  V30 1653 H 155.2 2.51443 -1.63452 0
M  V30 1654 H 152.753 1.28963 -0.88307 0
M  V30 1655 H 153.488 3.12587 0.863716 0
M  V30 1656 H 153.273 3.84713 -0.757504 0
M  V30 1657 H 154.763 4.17221 0.177786 0
M  V30 1658 N 155.201 0.870884 1.31352 0
M  V30 1659 C 156.449 0.48132 1.96285 0
M  V30 1660 C 156.77 -0.969813 1.69173 0
M  V30 1661 O 156.04 -1.67998 1.00764 0
M  V30 1662 H 154.62 0.175002 0.726212 0
M  V30 1663 H 157.282 1.11087 1.60143 0
M  V30 1664 H 156.378 0.639825 3.05471 0
M  V30 1665 N 156.679 -1.44442 0.630414 0
M  V30 1666 C 157.927 -2.01653 0.134351 0
M  V30 1667 C 158.248 -1.49836 -1.24796 0
M  V30 1668 O 157.518 -0.701684 -1.82902 0
M  V30 1669 H 156.098 -0.74554 0.0466769 0
M  V30 1670 H 158.76 -1.76952 0.816955 0
M  V30 1671 H 157.856 -3.11935 0.101498 0
M  V30 1672 N 158.157 -0.370918 -1.53173 0
M  V30 1673 C 159.405 0.216673 -2.00935 0
M  V30 1674 C 159.726 1.48845 -1.25977 0
M  V30 1675 O 158.996 1.92286 -0.374551 0
M  V30 1676 H 157.576 0.0830565 -0.742368 0
M  V30 1677 H 160.238 -0.49838 -1.8842 0
M  V30 1678 H 159.334 0.439893 -3.08984 0
M  V30 1679 N 159.635 1.57281 -0.100228 0
M  V30 1680 C 160.582 2.14305 0.856858 0
M  V30 1681 C 161.552 1.06296 1.27634 0
M  V30 1682 O 162.737 1.34109 1.35718 0
M  V30 1683 C 159.877 2.73184 2.10866 0
M  V30 1684 C 158.99 3.95442 1.73925 0
M  V30 1685 C 158.125 4.42468 2.93931 0
M  V30 1686 C 157.164 5.57303 2.5314 0
M  V30 1687 N 156.301 5.99158 3.65997 0
M  V30 1688 H 161.141 2.95772 0.363726 0
M  V30 1689 H 158.678 1.46139 0.167858 0
M  V30 1690 H 160.636 3.05442 2.84185 0
M  V30 1691 H 159.266 1.94437 2.57671 0
M  V30 1692 H 158.318 3.69464 0.905554 0
M  V30 1693 H 159.63 4.78769 1.39935 0
M  V30 1694 H 158.784 4.76537 3.75496 0
M  V30 1695 H 157.523 3.58052 3.31134 0
M  V30 1696 H 156.528 5.22857 1.70003 0
M  V30 1697 H 157.753 6.43471 2.17075 0
M  V30 1698 H 155.699 5.17687 4.02909 0
M  V30 1699 H 155.616 6.77295 3.35869 0
M  V30 1700 H 156.884 6.3786 4.48057 0
M  V30 1701 N 161.113 -0.173488 1.56642 0
M  V30 1702 C 162.361 -0.888706 1.81512 0
M  V30 1703 C 162.682 -1.82875 0.676872 0
M  V30 1704 O 161.952 -1.93536 -0.303414 0
M  V30 1705 H 160.532 -0.331164 0.669582 0
M  V30 1706 H 163.194 -0.173823 1.94123 0
M  V30 1707 H 162.29 -1.46691 2.75478 0
M  V30 1708 N 162.591 -1.51276 -0.441967 0
M  V30 1709 C 163.839 -1.63392 -1.18943 0
M  V30 1710 C 164.16 -0.350159 -1.9183 0
M  V30 1711 O 163.43 0.633784 -1.85364 0
M  V30 1712 H 162.01 -0.602164 -0.442049 0
M  V30 1713 H 164.672 -1.88186 -0.507165 0
M  V30 1714 H 163.768 -2.45934 -1.92154 0
M  V30 1715 N 164.069 0.697108 -1.41344 0
M  V30 1716 C 165.318 1.45279 -1.39918 0
M  V30 1717 C 165.631 1.95597 -0.0109624 0
M  V30 1718 O 166.837 2.71208 0.125919 0
M  V30 1719 C 165.293 2.62695 -2.46007 0
M  V30 1720 C 164.901 2.19169 -3.90729 0
M  V30 1721 C 166.645 3.40336 -2.53715 0
M  V30 1722 C 164.552 3.33535 -4.88373 0
M  V30 1723 H 163.482 0.545692 -0.520323 0
M  V30 1724 H 166.133 0.756929 -1.67161 0
M  V30 1725 H 164.515 3.34541 -2.11892 0
M  V30 1726 H 165.689 1.54623 -4.34083 0
M  V30 1727 H 164.004 1.54525 -3.86666 0
M  V30 1728 H 166.601 4.2547 -3.2385 0
M  V30 1729 H 166.944 3.85418 -1.5735 0
M  V30 1730 H 167.477 2.75546 -2.86913 0
M  V30 1731 H 164.216 2.93468 -5.86137 0
M  V30 1732 H 163.736 3.96936 -4.49668 0
M  V30 1733 H 165.415 3.99335 -5.09059 0
M  V30 1734 N 165.547 1.27147 0.931209 0
M  V30 1735 C 166.495 1.09398 2.05268 0
M  V30 1736 C 167.489 0.0180591 1.6939 0
M  V30 1737 O 168.695 0.17551 1.79142 0
M  V30 1738 H 165.07 0.336986 0.672268 0
M  V30 1739 H 167.041 2.04416 2.17386 0
M  V30 1740 C 165.79 0.75424 3.39421 0
M  V30 1741 H 165.113 1.57404 3.67511 0
M  V30 1742 H 166.553 0.669903 4.18674 0
M  V30 1743 C 165.012 -0.541197 3.32525 0
M  V30 1744 O 165.542 -1.57664 3.69466 0
M  V30 1745 N 163.748 -0.535517 2.85623 0
M  V30 1746 H 163.295 0.307511 2.55758 0
M  V30 1747 H 163.253 -1.40236 2.81392 0
M  V30 1748 N 167.025 -1.13721 1.09112 0
M  V30 1749 C 167.988 -2.17222 0.731241 0
M  V30 1750 C 168.988 -1.59035 -0.237566 0
M  V30 1751 O 170.178 -1.74192 -0.0161704 0
M  V30 1752 C 167.31 -3.40804 0.0808443 0
M  V30 1753 H 168.503 -2.50573 1.64783 0
M  V30 1754 H 166.056 -1.28493 0.889897 0
M  V30 1755 H 166.791 -3.1304 -0.847127 0
M  V30 1756 H 166.576 -3.84306 0.777896 0
M  V30 1757 H 168.066 -4.1731 -0.155657 0
M  V30 1758 N 168.503 -0.877838 -1.30888 0
M  V30 1759 C 169.433 -0.35534 -2.3078 0
M  V30 1760 C 170.414 0.557994 -1.60687 0
M  V30 1761 O 171.599 0.473355 -1.88343 0
M  V30 1762 C 168.729 0.437221 -3.44537 0
M  V30 1763 C 167.683 -0.383715 -4.26276 0
M  V30 1764 C 167.009 0.535014 -5.32017 0
M  V30 1765 C 168.309 -1.62201 -4.96476 0
M  V30 1766 H 170.003 -1.19007 -2.74732 0
M  V30 1767 H 167.549 -0.573698 -1.32078 0
M  V30 1768 H 169.502 0.813334 -4.13477 0
M  V30 1769 H 168.226 1.30553 -2.99372 0
M  V30 1770 H 166.885 -0.741874 -3.59015 0
M  V30 1771 H 166.533 1.40083 -4.831 0
M  V30 1772 H 166.233 -0.0104211 -5.87599 0
M  V30 1773 H 167.757 0.907799 -6.03814 0
M  V30 1774 H 169.171 -1.31689 -5.5797 0
M  V30 1775 H 167.568 -2.10711 -5.61891 0
M  V30 1776 H 168.638 -2.37044 -4.23011 0
M  V30 1777 N 169.982 1.44106 -0.638065 0
M  V30 1778 C 170.93 2.3248 0.0748149 0
M  V30 1779 C 171.924 1.47746 0.828702 0
M  V30 1780 O 173.13 1.64049 0.740816 0
M  V30 1781 H 169.505 0.750771 0.0429686 0
M  V30 1782 H 171.476 2.90348 -0.688504 0
M  V30 1783 C 170.225 3.31843 1.03805 0
M  V30 1784 H 169.548 3.97059 0.467375 0
M  V30 1785 H 170.988 3.96345 1.50622 0
M  V30 1786 C 169.447 2.61291 2.1267 0
M  V30 1787 O 169.977 2.41702 3.20847 0
M  V30 1788 N 168.183 2.20915 1.88798 0
M  V30 1789 H 167.73 2.37047 1.00829 0
M  V30 1790 H 167.688 1.74038 2.61836 0
M  V30 1791 N 171.46 0.379036 1.52974 0
M  V30 1792 C 172.408 -0.476033 2.27677 0
M  V30 1793 C 173.402 -1.0719 1.31174 0
M  V30 1794 O 174.608 -1.01355 1.48752 0
M  V30 1795 H 170.983 -0.172255 0.732006 0
M  V30 1796 H 172.954 0.175615 2.97883 0
M  V30 1797 C 171.703 -1.5967 3.0887 0
M  V30 1798 H 171.026 -1.1475 3.82978 0
M  V30 1799 H 172.466 -2.16943 3.64296 0
M  V30 1800 C 170.925 -2.54682 2.20542 0
M  V30 1801 O 171.455 -3.57836 1.82527 0
M  V30 1802 N 169.661 -2.24183 1.84907 0
M  V30 1803 H 169.208 -1.40333 2.1602 0
M  V30 1804 H 169.166 -2.88006 1.26096 0
M  V30 1805 N 172.938 -1.57226 0.108567 0
M  V30 1806 C 173.871 -2.10447 -0.882464 0
M  V30 1807 C 174.849 -1.01829 -1.26766 0
M  V30 1808 O 176.033 -1.29415 -1.37054 0
M  V30 1809 C 173.16 -2.59258 -2.17952 0
M  V30 1810 C 172.206 -3.79662 -1.94318 0
M  V30 1811 S 173.039 -5.22586 -1.16892 0
M  V30 1812 C 174.195 -5.74758 -2.47799 0
M  V30 1813 H 174.428 -2.94178 -0.429745 0
M  V30 1814 H 171.961 -1.54043 -0.105 0
M  V30 1815 H 173.919 -2.88036 -2.92482 0
M  V30 1816 H 172.58 -1.75728 -2.60343 0
M  V30 1817 H 171.773 -4.11928 -2.90399 0
M  V30 1818 H 171.375 -3.51446 -1.27913 0
M  V30 1819 H 173.667 -5.83846 -3.43701 0
M  V30 1820 H 174.61 -6.73027 -2.20093 0
M  V30 1821 H 175.018 -5.02763 -2.56689 0
M  V30 1822 N 174.416 0.165178 -1.56732 0
M  V30 1823 C 175.832 0.517174 -1.50988 0
M  V30 1824 C 176.032 1.84331 -0.813894 0
M  V30 1825 O 175.088 2.49672 -0.37682 0
M  V30 1826 C 176.401 0.544261 -2.95733 0
M  V30 1827 C 177.949 0.631039 -3.06573 0
M  V30 1828 C 178.424 0.68896 -4.52788 0
M  V30 1829 N 179.915 0.751683 -4.5706 0
M  V30 1830 C 180.65 0.817177 -5.67547 0
M  V30 1831 N 180.146 0.843129 -6.8765 0
M  V30 1832 N 181.939 0.856668 -5.55534 0
M  V30 1833 H 174.09 -0.704318 -2.00382 0
M  V30 1834 H 176.353 -0.254687 -0.913148 0
M  V30 1835 H 176.059 -0.361607 -3.49836 0
M  V30 1836 H 175.933 1.3886 -3.5071 0
M  V30 1837 H 178.32 1.52733 -2.52501 0
M  V30 1838 H 178.401 -0.240095 -2.54671 0
M  V30 1839 H 178.045 -0.2031 -5.07494 0
M  V30 1840 H 177.975 1.57633 -5.02454 0
M  V30 1841 H 180.466 0.739661 -3.70591 0
M  V30 1842 H 180.779 0.894448 -7.67606 0
M  V30 1843 H 179.124 0.811304 -6.90248 0
M  V30 1844 H 182.315 0.833437 -4.60621 0
M  V30 1845 H 182.488 0.904247 -6.4166 0
M  V30 1846 N 175.894 1.51508 0.433938 0
M  V30 1847 C 177.122 1.68157 1.20543 0
M  V30 1848 C 177.537 0.380362 1.84929 0
M  V30 1849 O 176.894 -0.641446 1.70856 0
M  V30 1850 C 176.945 2.79965 2.28696 0
M  V30 1851 O 176.666 4.05045 1.66943 0
M  V30 1852 C 178.167 3.07912 3.18912 0
M  V30 1853 H 175.387 0.56421 0.363191 0
M  V30 1854 H 177.931 1.97941 0.513754 0
M  V30 1855 H 176.086 2.5277 2.93574 0
M  V30 1856 H 176.5 4.67165 2.38448 0
M  V30 1857 H 177.974 3.89719 3.90926 0
M  V30 1858 H 178.451 2.20456 3.79863 0
M  V30 1859 H 179.057 3.36779 2.59731 0
M  V30 1860 N 177.372 -0.689602 1.41712 0
M  V30 1861 C 178.618 -1.45181 1.41599 0
M  V30 1862 C 178.951 -1.94181 0.0270081 0
M  V30 1863 O 178.226 -1.6993 -0.946265 0
M  V30 1864 C 178.509 -2.65945 2.42787 0
M  V30 1865 C 178.362 -2.22672 3.90816 0
M  V30 1866 C 179.681 -3.68149 2.41151 0
M  V30 1867 H 176.8 -0.526576 0.515642 0
M  V30 1868 H 179.442 -0.784947 1.73028 0
M  V30 1869 H 177.592 -3.2284 2.16116 0
M  V30 1870 H 179.264 -1.71058 4.28412 0
M  V30 1871 H 177.507 -1.54394 4.05395 0
M  V30 1872 H 178.178 -3.0935 4.57172 0
M  V30 1873 H 180.654 -3.2094 2.64834 0
M  V30 1874 H 179.53 -4.50248 3.13955 0
M  V30 1875 H 179.791 -4.18259 1.43221 0
M  V30 1876 N 178.85 -1.27639 -0.924453 0
M  V30 1877 C 179.783 -1.04966 -2.02626 0
M  V30 1878 C 180.761 0.0309505 -1.62571 0
M  V30 1879 O 181.945 -0.114846 -1.8815 0
M  V30 1880 C 179.072 -0.59292 -3.3347 0
M  V30 1881 C 178.118 -1.66858 -3.92506 0
M  V30 1882 S 178.951 -3.2619 -4.24689 0
M  V30 1883 C 180.107 -2.82325 -5.58609 0
M  V30 1884 H 180.34 -1.98252 -2.21547 0
M  V30 1885 H 177.873 -1.11506 -1.06798 0
M  V30 1886 H 179.831 -0.336086 -4.09122 0
M  V30 1887 H 178.492 0.319939 -3.12466 0
M  V30 1888 H 177.685 -1.30038 -4.86935 0
M  V30 1889 H 177.287 -1.87766 -3.2345 0
M  V30 1890 H 179.579 -2.2783 -6.38044 0
M  V30 1891 H 180.522 -3.75511 -6.00331 0
M  V30 1892 H 180.93 -2.21367 -5.19285 0
M  V30 1893 N 180.328 1.1314 -1.09713 0
M  V30 1894 C 181.744 1.36477 -0.827423 0
M  V30 1895 C 181.944 1.93654 0.556817 0
M  V30 1896 O 181 2.15791 1.31112 0
M  V30 1897 C 182.313 2.31334 -1.92106 0
M  V30 1898 C 183.861 2.44943 -1.94864 0
M  V30 1899 C 184.336 3.4311 -3.0338 0
M  V30 1900 N 185.827 3.50662 -3.02639 0
M  V30 1901 C 186.562 4.2651 -3.83246 0
M  V30 1902 N 186.058 5.05485 -4.73768 0
M  V30 1903 N 187.851 4.2184 -3.71493 0
M  V30 1904 H 180.002 0.743807 -1.9895 0
M  V30 1905 H 182.265 0.389823 -0.864143 0
M  V30 1906 H 181.971 1.96483 -2.91698 0
M  V30 1907 H 181.845 3.31381 -1.80184 0
M  V30 1908 H 184.232 2.79079 -0.959099 0
M  V30 1909 H 184.313 1.4481 -2.10864 0
M  V30 1910 H 183.957 3.09704 -4.02549 0
M  V30 1911 H 183.887 4.43055 -2.84622 0
M  V30 1912 H 186.378 2.94315 -2.37039 0
M  V30 1913 H 186.691 5.60675 -5.3185 0
M  V30 1914 H 185.036 5.04708 -4.77802 0
M  V30 1915 H 188.227 3.5922 -3.00131 0
M  V30 1916 H 188.4 4.80697 -4.3455 0
M  V30 1917 N 181.806 0.884767 1.30421 0
M  V30 1918 C 183.054 0.502112 1.95763 0
M  V30 1919 C 183.375 -0.951815 1.70192 0
M  V30 1920 O 182.645 -1.6692 1.0254 0
M  V30 1921 H 181.225 0.182694 0.724315 0
M  V30 1922 H 183.887 1.1278 1.58955 0
M  V30 1923 H 182.983 0.672188 3.04775 0
M  V30 1924 N 183.284 -1.43765 0.645699 0
M  V30 1925 C 184.53 -2.02197 0.156271 0
M  V30 1926 C 184.863 -1.50776 -1.22393 0
M  V30 1927 O 184.138 -0.697771 -1.81553 0
M  V30 1928 C 184.421 -3.59749 0.158872 0
M  V30 1929 C 184.274 -4.21419 1.57245 0
M  V30 1930 C 185.593 -4.37149 -0.50879 0
M  V30 1931 H 182.712 -0.734694 0.0582602 0
M  V30 1932 H 185.354 -1.71157 0.824951 0
M  V30 1933 H 183.504 -3.86325 -0.410525 0
M  V30 1934 H 185.176 -4.059 2.19186 0
M  V30 1935 H 183.419 -3.78356 2.122 0
M  V30 1936 H 184.09 -5.30482 1.52619 0
M  V30 1937 H 186.566 -4.16093 -0.024412 0
M  V30 1938 H 185.442 -5.4683 -0.476213 0
M  V30 1939 H 185.703 -4.12839 -1.58165 0
M  V30 1940 N 184.763 -0.387143 -1.52771 0
M  V30 1941 C 185.993 0.195585 -2.05672 0
M  V30 1942 C 186.401 1.41241 -1.25887 0
M  V30 1943 O 185.744 1.81265 -0.298081 0
M  V30 1944 C 185.806 0.632327 -3.53895 0
M  V30 1945 C 185.47 -0.470739 -4.54569 0
M  V30 1946 C 186.467 -1.32746 -5.02667 0
M  V30 1947 C 184.152 -0.637151 -4.98243 0
M  V30 1948 C 186.146 -2.33574 -5.93061 0
M  V30 1949 C 183.833 -1.64877 -5.88438 0
M  V30 1950 C 184.831 -2.49649 -6.35739 0
M  V30 1951 O 184.519 -3.49082 -7.24153 0
M  V30 1952 H 184.251 0.033658 -0.675162 0
M  V30 1953 H 186.805 -0.550221 -1.97893 0
M  V30 1954 H 185.035 1.43008 -3.59285 0
M  V30 1955 H 186.724 1.14048 -3.89548 0
M  V30 1956 H 187.49 -1.21019 -4.69659 0
M  V30 1957 H 183.369 0.0129567 -4.60998 0
M  V30 1958 H 186.913 -2.99777 -6.29904 0
M  V30 1959 H 182.81 -1.76643 -6.2086 0
M  V30 1960 H 183.578 -3.45065 -7.42208 0
M  V30 1961 N 186.241 1.57166 -0.116904 0
M  V30 1962 C 187.204 2.14039 0.819742 0
M  V30 1963 C 188.204 1.07477 1.19605 0
M  V30 1964 O 189.394 1.33263 1.1219 0
M  V30 1965 C 186.526 2.67891 2.10826 0
M  V30 1966 H 187.719 2.98128 0.325511 0
M  V30 1967 H 185.272 1.55739 0.132312 0
M  V30 1968 H 186.007 1.87384 2.64685 0
M  V30 1969 H 185.792 3.45823 1.84793 0
M  V30 1970 H 187.282 3.11809 2.77785 0
M  V30 1971 N 187.719 -0.156864 1.56817 0
M  V30 1972 C 188.667 -1.21319 1.98455 0
M  V30 1973 C 189.661 -1.45025 0.875444 0
M  V30 1974 O 190.867 -1.45435 1.0606 0
M  V30 1975 H 187.242 -0.408142 0.631605 0
M  V30 1976 H 189.213 -0.835244 2.86472 0
M  V30 1977 C 187.962 -2.54148 2.37285 0
M  V30 1978 H 187.285 -2.36733 3.22176 0
M  V30 1979 H 188.725 -3.26712 2.70251 0
M  V30 1980 C 187.184 -3.13967 1.22173 0
M  V30 1981 O 187.714 -3.98357 0.517149 0
M  V30 1982 N 185.92 -2.7327 0.988536 0
M  V30 1983 H 185.467 -2.04744 1.56326 0
M  V30 1984 H 185.425 -3.13628 0.220209 0
M  V30 1985 N 189.197 -1.51736 -0.425897 0
M  V30 1986 C 190.443 -1.65214 -1.1761 0
M  V30 1987 C 190.776 -0.372778 -1.90589 0
M  V30 1988 O 190.051 0.628139 -1.84078 0
M  V30 1989 C 190.334 -2.86312 -2.18398 0
M  V30 1990 C 190.187 -4.24254 -1.49426 0
M  V30 1991 C 191.506 -3.02925 -3.19256 0
M  V30 1992 H 188.625 -0.601263 -0.426206 0
M  V30 1993 H 191.267 -1.8425 -0.463882 0
M  V30 1994 H 189.417 -2.70213 -2.79137 0
M  V30 1995 H 191.089 -4.52046 -0.919362 0
M  V30 1996 H 189.332 -4.26426 -0.796432 0
M  V30 1997 H 190.003 -5.05001 -2.22885 0
M  V30 1998 H 192.479 -3.1781 -2.68581 0
M  V30 1999 H 191.355 -3.89199 -3.8706 0
M  V30 2000 H 191.616 -2.15497 -3.86023 0
M  V30 2001 N 190.675 0.682077 -1.42076 0
M  V30 2002 C 191.924 1.43786 -1.41451 0
M  V30 2003 C 192.237 1.95574 -0.0317074 0
M  V30 2004 O 193.443 2.71326 0.0971462 0
M  V30 2005 C 191.899 2.60071 -2.48779 0
M  V30 2006 C 191.507 2.15013 -3.93031 0
M  V30 2007 C 193.251 3.37626 -2.57311 0
M  V30 2008 C 191.158 3.28336 -4.91883 0
M  V30 2009 H 190.088 0.540143 -0.526082 0
M  V30 2010 H 192.739 0.739157 -1.67955 0
M  V30 2011 H 191.121 3.32275 -2.15429 0
M  V30 2012 H 192.295 1.5001 -4.35699 0
M  V30 2013 H 190.61 1.50416 -3.88284 0
M  V30 2014 H 193.207 4.22012 -3.28345 0
M  V30 2015 H 193.55 3.83727 -1.61429 0
M  V30 2016 H 194.083 2.72488 -2.89819 0
M  V30 2017 H 190.822 2.87234 -5.89217 0
M  V30 2018 H 190.342 3.92145 -4.53853 0
M  V30 2019 H 192.021 3.93913 -5.13265 0
M  V30 2020 N 192.153 1.28127 0.917671 0
M  V30 2021 C 193.564 1.13622 1.48145 0
M  V30 2022 C 193.915 -0.275207 1.9426 0
M  V30 2023 O 193.04 -1.1691 1.82102 0
M  V30 2024 C 193.635 2.05648 2.69248 0
M  V30 2025 C 192.194 1.95219 3.21818 0
M  V30 2026 C 191.341 1.97618 1.94532 0
M  V30 2027 H 194.292 1.40874 0.730772 0
M  V30 2028 H 194.313 1.61818 3.44377 0
M  V30 2029 H 193.825 3.08365 2.35653 0
M  V30 2030 H 191.926 0.955244 3.60147 0
M  V30 2031 H 192.039 2.81976 3.87333 0
M  V30 2032 H 190.403 1.41973 2.11461 0
M  V30 2033 H 191.186 3.02007 1.63238 0
M  V30 2034 N 193.631 -1.12557 1.10312 0
M  V30 2035 C 194.578 -2.18247 0.750781 0
M  V30 2036 C 195.548 -1.63853 -0.272293 0
M  V30 2037 O 196.733 -1.90195 -0.151862 0
M  V30 2038 C 193.873 -3.44591 0.187379 0
M  V30 2039 C 192.986 -4.13046 1.2656 0
M  V30 2040 C 192.121 -5.27034 0.663978 0
M  V30 2041 C 191.16 -5.87353 1.72287 0
M  V30 2042 N 190.297 -6.92757 1.1416 0
M  V30 2043 H 195.137 -2.47732 1.65628 0
M  V30 2044 H 192.674 -1.21629 0.827337 0
M  V30 2045 H 194.632 -4.16904 -0.157148 0
M  V30 2046 H 193.262 -3.15527 -0.681355 0
M  V30 2047 H 192.314 -3.38924 1.72727 0
M  V30 2048 H 193.626 -4.53947 2.06721 0
M  V30 2049 H 192.78 -6.06104 0.268824 0
M  V30 2050 H 191.519 -4.87407 -0.169082 0
M  V30 2051 H 190.524 -5.06971 2.12746 0
M  V30 2052 H 191.749 -6.29051 2.55875 0
M  V30 2053 H 189.695 -6.5517 0.329984 0
M  V30 2054 H 189.612 -7.3225 1.88007 0
M  V30 2055 H 190.88 -7.75658 0.772956 0
M  V30 2056 N 195.109 -0.891671 -1.2995 0
M  V30 2057 C 196.041 -0.320695 -2.26945 0
M  V30 2058 C 197.054 0.528497 -1.53983 0
M  V30 2059 O 198.243 0.346959 -1.75096 0
M  V30 2060 C 195.343 0.562066 -3.34207 0
M  V30 2061 C 194.516 -0.259576 -4.36629 0
M  V30 2062 C 193.575 0.554739 -5.23268 0
M  V30 2063 O 192.601 -0.0249311 -5.69195 0
M  V30 2064 N 193.803 1.8625 -5.4981 0
M  V30 2065 H 196.568 -1.15432 -2.76578 0
M  V30 2066 H 194.129 -0.755336 -1.432 0
M  V30 2067 H 196.121 1.11304 -3.89093 0
M  V30 2068 H 194.691 1.29637 -2.84452 0
M  V30 2069 H 193.911 -0.991986 -3.81514 0
M  V30 2070 H 195.199 -0.822564 -5.02107 0
M  V30 2071 H 194.597 2.35628 -5.14292 0
M  V30 2072 H 193.154 2.36078 -6.07545 0
M  V30 2073 N 196.587 1.43421 -0.653314 0
M  V30 2074 C 197.517 2.33487 0.0246656 0
M  V30 2075 C 198.498 1.49475 0.811863 0
M  V30 2076 O 199.683 1.78139 0.773322 0
M  V30 2077 C 196.813 3.32841 0.99166 0
M  V30 2078 C 195.767 4.26842 0.314568 0
M  V30 2079 C 195.093 5.16236 1.39302 0
M  V30 2080 C 196.393 5.16243 -0.793095 0
M  V30 2081 H 198.087 2.90427 -0.727481 0
M  V30 2082 H 195.633 1.39649 -0.351287 0
M  V30 2083 H 197.586 3.94747 1.47487 0
M  V30 2084 H 196.31 2.74158 1.77497 0
M  V30 2085 H 194.969 3.663 -0.148199 0
M  V30 2086 H 194.617 4.53891 2.16776 0
M  V30 2087 H 194.317 5.79948 0.945223 0
M  V30 2088 H 195.841 5.81015 1.87759 0
M  V30 2089 H 197.255 5.71958 -0.392039 0
M  V30 2090 H 195.652 5.88676 -1.16536 0
M  V30 2091 H 196.722 4.55927 -1.65103 0
M  V30 2092 N 198.065 0.39524 1.52563 0
M  V30 2093 C 199.311 -0.185318 2.01952 0
M  V30 2094 C 199.644 -1.45964 1.28095 0
M  V30 2095 O 198.919 -1.90689 0.38315 0
M  V30 2096 C 199.202 -0.447193 3.57312 0
M  V30 2097 C 199.055 0.842828 4.41833 0
M  V30 2098 C 200.374 -1.23529 4.22408 0
M  V30 2099 H 197.493 -0.0658788 0.73405 0
M  V30 2100 H 200.135 0.525975 1.82575 0
M  V30 2101 H 198.285 -1.05312 3.73954 0
M  V30 2102 H 199.957 1.4795 4.36931 0
M  V30 2103 H 198.2 1.45686 4.08605 0
M  V30 2104 H 198.871 0.614165 5.48573 0
M  V30 2105 H 201.347 -0.722445 4.0978 0
M  V30 2106 H 200.223 -1.38727 5.3108 0
M  V30 2107 H 200.484 -2.25213 3.80436 0
M  V30 2108 N 199.544 -1.57102 0.125237 0
M  V30 2109 C 200.474 -2.18659 -0.819174 0
M  V30 2110 C 201.455 -1.12843 -1.27281 0
M  V30 2111 O 202.64 -1.41104 -1.33429 0
M  V30 2112 C 199.77 -2.79096 -2.06695 0
M  V30 2113 C 198.724 -3.90548 -1.75088 0
M  V30 2114 C 198.05 -4.37821 -3.06948 0
M  V30 2115 C 199.35 -5.12356 -1.01435 0
M  V30 2116 H 201.044 -2.9783 -0.306202 0
M  V30 2117 H 198.59 -1.4326 -0.145839 0
M  V30 2118 H 200.543 -3.2082 -2.73226 0
M  V30 2119 H 199.267 -1.97223 -2.60328 0
M  V30 2120 H 197.926 -3.49409 -1.10944 0
M  V30 2121 H 197.574 -3.52799 -3.58527 0
M  V30 2122 H 197.274 -5.12982 -2.86571 0
M  V30 2123 H 198.798 -4.822 -3.74587 0
M  V30 2124 H 200.212 -5.5106 -1.58132 0
M  V30 2125 H 198.609 -5.9314 -0.911319 0
M  V30 2126 H 199.679 -4.849 -0.00218681 0
M  V30 2127 N 201.022 0.148545 -1.56898 0
M  V30 2128 C 202.299 0.890019 -1.74178 0
M  V30 2129 C 202.679 1.99407 -0.692839 0
M  V30 2130 O 202.027 2.26671 0.288505 0
M  V30 2131 C 202.237 1.43389 -3.18183 0
M  V30 2132 C 203.585 1.89791 -3.79822 0
M  V30 2133 O 204.609 1.53134 -3.21603 0
M  V30 2134 O 203.468 2.57387 -4.82093 0
M  V30 2135 H 200.562 0.420496 -0.712118 0
M  V30 2136 H 203.108 0.134591 -1.69165 0
M  V30 2137 H 201.88 0.640383 -3.86024 0
M  V30 2138 H 201.503 2.25287 -3.27615 0
M  V30 2139 N 202.5 1.5196 0.417844 0
M  V30 2140 C 203.911 1.57851 0.997 0
M  V30 2141 C 204.262 0.413714 1.91789 0
M  V30 2142 O 203.387 -0.467057 2.113 0
M  V30 2143 C 203.982 2.86085 1.81496 0
M  V30 2144 C 202.541 2.94483 2.34428 0
M  V30 2145 C 201.688 2.52707 1.14169 0
M  V30 2146 H 204.639 1.57455 0.198392 0
M  V30 2147 H 204.66 2.70947 2.67148 0
M  V30 2148 H 204.172 3.70842 1.14446 0
M  V30 2149 H 202.273 2.142 3.04875 0
M  V30 2150 H 202.386 3.98546 2.65891 0
M  V30 2151 H 200.75 2.06353 1.49301 0
M  V30 2152 H 201.533 3.39828 0.486999 0
M  V30 2153 N 203.978 -0.674533 1.42435 0
M  V30 2154 C 205.224 -1.43671 1.43131 0
M  V30 2155 C 205.557 -1.94142 0.0476021 0
M  V30 2156 O 204.832 -1.70924 -0.928188 0
M  V30 2157 C 205.115 -2.63355 2.45594 0
M  V30 2158 C 204.968 -2.18514 3.93156 0
M  V30 2159 C 206.287 -3.65571 2.45043 0
M  V30 2160 H 203.406 -0.521077 0.521198 0
M  V30 2161 H 206.048 -0.766551 1.7385 0
M  V30 2162 H 204.198 -3.2053 2.19528 0
M  V30 2163 H 205.87 -1.66504 4.30202 0
M  V30 2164 H 204.113 -1.50086 4.07009 0
M  V30 2165 H 204.784 -3.04484 4.60428 0
M  V30 2166 H 207.26 -3.18113 2.68223 0
M  V30 2167 H 206.136 -4.46893 3.18713 0
M  V30 2168 H 206.397 -4.16716 1.47649 0
M  V30 2169 N 205.456 -1.28612 -0.910864 0
M  V30 2170 C 206.406 -1.09423 -2.00026 0
M  V30 2171 C 207.39 -0.0170079 -1.60891 0
M  V30 2172 O 208.582 -0.237472 -1.754 0
M  V30 2173 C 205.711 -0.76114 -3.34756 0
M  V30 2174 C 204.797 -1.87735 -3.80285 0
M  V30 2175 N 205.188 -3.11938 -3.98156 0
M  V30 2176 C 203.486 -1.76786 -4.09467 0
M  V30 2177 C 204.187 -3.84687 -4.36338 0
M  V30 2178 N 203.163 -3.12555 -4.44759 0
M  V30 2179 H 206.965 -2.03658 -2.11898 0
M  V30 2180 H 204.479 -1.19573 -1.09891 0
M  V30 2181 H 206.476 -0.604743 -4.12491 0
M  V30 2182 H 205.136 0.173403 -3.24237 0
M  V30 2183 H 206.147 -3.47516 -3.83996 0
M  V30 2184 H 202.824 -0.905284 -4.07567 0
M  V30 2185 H 204.214 -4.91518 -4.58104 0
M  V30 2186 N 206.934 1.1197 -1.10907 0
M  V30 2187 C 208.183 1.82947 -0.849302 0
M  V30 2188 C 208.496 1.85275 0.627112 0
M  V30 2189 O 209.702 2.52296 1.00295 0
M  V30 2190 C 208.158 3.28529 -1.46959 0
M  V30 2191 C 207.766 3.34546 -2.97965 0
M  V30 2192 C 209.51 4.04443 -1.28942 0
M  V30 2193 C 207.417 4.74491 -3.53004 0
M  V30 2194 H 206.347 0.685477 -0.314065 0
M  V30 2195 H 208.998 1.2604 -1.33365 0
M  V30 2196 H 207.38 3.85333 -0.912917 0
M  V30 2197 H 208.554 2.87654 -3.59989 0
M  V30 2198 H 206.869 2.72108 -3.15192 0
M  V30 2199 H 209.466 5.07787 -1.67502 0
M  V30 2200 H 209.809 4.15656 -0.231456 0
M  V30 2201 H 210.342 3.5401 -1.81443 0
M  V30 2202 H 207.081 4.68474 -4.58489 0
M  V30 2203 H 206.601 5.21816 -2.9575 0
M  V30 2204 H 208.28 5.4344 -3.51115 0
M  V30 2205 N 208.412 0.89855 1.29475 0
M  V30 2206 C 209.689 0.443416 1.90508 0
M  V30 2207 C 210.069 -1.07685 1.81569 0
M  V30 2208 O 209.417 -1.9182 1.24166 0
M  V30 2209 C 209.627 0.956708 3.35631 0
M  V30 2210 C 210.975 0.999728 4.12663 0
M  V30 2211 O 211.999 0.904299 3.4453 0
M  V30 2212 O 210.858 1.14289 5.34416 0
M  V30 2213 H 207.952 0.138025 0.815401 0
M  V30 2214 H 210.498 0.98834 1.37949 0
M  V30 2215 H 209.27 2.00067 3.36287 0
M  V30 2216 H 208.893 0.391728 3.95666 0
M  V30 2217 N 209.89 -1.43072 0.660911 0
M  V30 2218 C 211.136 -2.0202 0.177708 0
M  V30 2219 C 211.469 -1.52066 -1.20787 0
M  V30 2220 O 210.744 -0.716987 -1.80802 0
M  V30 2221 C 211.027 -3.59561 0.197019 0
M  V30 2222 C 210.88 -4.19727 1.61706 0
M  V30 2223 C 212.199 -4.37664 -0.462396 0
M  V30 2224 H 209.318 -0.734034 0.0660494 0
M  V30 2225 H 211.96 -1.70272 0.843058 0
M  V30 2226 H 210.11 -3.86739 -0.369527 0
M  V30 2227 H 211.782 -4.03553 2.23479 0
M  V30 2228 H 210.025 -3.76084 2.16201 0
M  V30 2229 H 210.696 -5.28834 1.58237 0
M  V30 2230 H 213.172 -4.16095 0.0197215 0
M  V30 2231 H 212.048 -5.47305 -0.418188 0
M  V30 2232 H 212.309 -4.14493 -1.53778 0
M  V30 2233 N 211.368 -0.403325 -1.52352 0
M  V30 2234 C 212.278 0.432009 -2.30588 0
M  V30 2235 C 213.294 1.05884 -1.38075 0
M  V30 2236 O 214.47 1.06161 -1.71148 0
M  V30 2237 C 211.535 1.53669 -3.10784 0
M  V30 2238 C 210.596 0.933525 -4.19027 0
M  V30 2239 C 209.829 1.98557 -4.9539 0
M  V30 2240 O 210.052 3.20283 -4.71991 0
M  V30 2241 O 208.986 1.59504 -5.80381 0
M  V30 2242 H 212.812 -0.205739 -3.03002 0
M  V30 2243 H 210.397 -0.166675 -1.48467 0
M  V30 2244 H 212.279 2.17814 -3.60742 0
M  V30 2245 H 210.954 2.15915 -2.41169 0
M  V30 2246 H 209.861 0.254954 -3.7323 0
M  V30 2247 H 211.194 0.35508 -4.90918 0
M  V30 2248 N 212.846 1.57033 -0.133567 0
M  V30 2249 C 213.794 2.17348 0.828412 0
M  V30 2250 C 214.788 1.12671 1.26498 0
M  V30 2251 O 215.994 1.30947 1.23502 0
M  V30 2252 H 212.369 0.695775 0.285309 0
M  V30 2253 H 214.34 2.96935 0.295372 0
M  V30 2254 C 213.089 2.79893 2.06289 0
M  V30 2255 H 212.412 3.60147 1.73592 0
M  V30 2256 H 213.852 3.25615 2.71572 0
M  V30 2257 C 212.311 1.77713 2.86216 0
M  V30 2258 O 212.841 1.23937 3.82103 0
M  V30 2259 N 211.047 1.47321 2.50489 0
M  V30 2260 H 210.594 1.91243 1.7258 0
M  V30 2261 H 210.552 0.79199 3.04261 0
M  V30 2262 N 214.325 -0.140222 1.56975 0
M  V30 2263 C 215.288 -1.15689 1.97861 0
M  V30 2264 C 216.288 -1.3549 0.865974 0
M  V30 2265 O 217.478 -1.32367 1.13246 0
M  V30 2266 C 214.61 -2.51582 2.30042 0
M  V30 2267 H 215.803 -0.805971 2.88867 0
M  V30 2268 H 213.356 -0.383801 1.51515 0
M  V30 2269 H 214.091 -2.91632 1.41849 0
M  V30 2270 H 213.876 -2.38569 3.11171 0
M  V30 2271 H 215.366 -3.24792 2.62488 0
M  V30 2272 N 215.803 -1.52179 -0.40978 0
M  V30 2273 C 217.031 -1.70054 -1.17853 0
M  V30 2274 C 217.446 -0.409735 -1.843 0
M  V30 2275 O 216.803 0.614183 -1.71855 0
M  V30 2276 C 216.854 -2.83568 -2.24213 0
M  V30 2277 O 216.575 -4.0765 -1.60478 0
M  V30 2278 C 218.076 -3.12947 -3.13973 0
M  V30 2279 H 215.296 -0.569917 -0.354169 0
M  V30 2280 H 217.84 -1.98734 -0.482198 0
M  V30 2281 H 215.995 -2.57409 -2.89516 0
M  V30 2282 H 216.409 -4.70899 -2.30986 0
M  V30 2283 H 217.883 -3.95889 -3.84677 0
M  V30 2284 H 218.36 -2.26472 -3.76307 0
M  V30 2285 H 218.966 -3.40868 -2.5434 0
M  V30 2286 N 217.281 0.66697 -1.42791 0
M  V30 2287 C 218.527 1.4291 -1.43891 0
M  V30 2288 C 218.86 1.94114 -0.0578972 0
M  V30 2289 O 218.135 1.71414 0.91911 0
M  V30 2290 C 218.418 2.62049 -2.46987 0
M  V30 2291 C 218.271 2.16426 -3.94309 0
M  V30 2292 C 219.59 3.64266 -2.46978 0
M  V30 2293 H 216.709 0.518306 -0.523954 0
M  V30 2294 H 219.351 0.757321 -1.74255 0
M  V30 2295 H 217.501 3.19361 -2.21225 0
M  V30 2296 H 219.173 1.64221 -4.31079 0
M  V30 2297 H 217.416 1.47925 -4.078 0
M  V30 2298 H 218.087 3.02038 -4.62036 0
M  V30 2299 H 220.563 3.16686 -2.69906 0
M  V30 2300 H 219.439 4.45196 -3.21079 0
M  V30 2301 H 219.7 4.15927 -1.49857 0
M  V30 2302 N 218.759 1.29093 0.90403 0
M  V30 2303 C 219.722 1.1386 1.98919 0
M  V30 2304 C 220.722 0.0753457 1.60623 0
M  V30 2305 O 221.912 0.321931 1.71199 0
M  V30 2306 C 219.044 0.740198 3.32767 0
M  V30 2307 H 220.237 2.10246 2.13861 0
M  V30 2308 H 217.79 1.12218 1.08797 0
M  V30 2309 H 218.525 -0.223997 3.23525 0
M  V30 2310 H 218.31 1.50838 3.61926 0
M  V30 2311 H 219.8 0.656546 4.12407 0
M  V30 2312 N 220.237 -1.11381 1.11499 0
M  V30 2313 C 221.147 -2.21019 0.786628 0
M  V30 2314 C 222.163 -1.72597 -0.220507 0
M  V30 2315 O 223.339 -2.01321 -0.0565251 0
M  V30 2316 C 220.404 -3.459 0.235333 0
M  V30 2317 C 219.465 -4.09107 1.30115 0
M  V30 2318 C 218.698 -5.28027 0.776068 0
M  V30 2319 O 218.921 -5.6904 -0.393661 0
M  V30 2320 O 217.855 -5.81835 1.54114 0
M  V30 2321 H 221.681 -2.51521 1.70209 0
M  V30 2322 H 219.266 -1.19928 0.890928 0
M  V30 2323 H 221.148 -4.21346 -0.067715 0
M  V30 2324 H 219.823 -3.17049 -0.652828 0
M  V30 2325 H 218.73 -3.35391 1.65722 0
M  V30 2326 H 220.063 -4.42139 2.16273 0
M  V30 2327 N 221.715 -0.905404 -1.28997 0
M  V30 2328 C 222.663 -0.377431 -2.29517 0
M  V30 2329 C 223.657 0.526461 -1.61012 0
M  V30 2330 O 224.863 0.40863 -1.753 0
M  V30 2331 H 221.238 -0.103437 -0.744852 0
M  V30 2332 H 223.209 -1.23848 -2.71485 0
M  V30 2333 C 221.958 0.374833 -3.45674 0
M  V30 2334 H 221.281 -0.311474 -3.98585 0
M  V30 2335 H 222.721 0.70903 -4.1803 0
M  V30 2336 C 221.18 1.57963 -2.97572 0
M  V30 2337 O 221.71 2.67886 -2.99333 0
M  V30 2338 N 219.916 1.42375 -2.53333 0
M  V30 2339 H 219.463 0.529466 -2.521 0
M  V30 2340 H 219.421 2.23117 -2.21509 0
M  V30 2341 N 223.193 1.4272 -0.668489 0
M  V30 2342 C 224.442 2.00846 -0.185389 0
M  V30 2343 C 224.755 1.53442 1.21305 0
M  V30 2344 O 225.961 2.03944 1.79218 0
M  V30 2345 C 224.417 3.58805 -0.280591 0
M  V30 2346 C 224.025 4.15198 -1.68268 0
M  V30 2347 C 225.769 4.24255 0.14412 0
M  V30 2348 C 223.676 5.655 -1.73099 0
M  V30 2349 H 222.606 0.751145 -0.0655475 0
M  V30 2350 H 225.257 1.63516 -0.832752 0
M  V30 2351 H 223.639 3.93608 0.434553 0
M  V30 2352 H 224.813 3.91866 -2.42441 0
M  V30 2353 H 223.128 3.62176 -2.05469 0
M  V30 2354 H 225.725 5.34547 0.128086 0
M  V30 2355 H 226.068 3.99277 1.17827 0
M  V30 2356 H 226.601 3.94389 -0.519798 0
M  V30 2357 H 223.34 5.95268 -2.74475 0
M  V30 2358 H 222.86 5.90842 -1.03274 0
M  V30 2359 H 224.539 6.29808 -1.48158 0
M  V30 2360 N 224.671 0.411399 1.52136 0
M  V30 2361 C 225.618 -0.412975 2.27075 0
M  V30 2362 C 226.588 -1.03912 1.29582 0
M  V30 2363 O 227.773 -1.06296 1.58448 0
M  V30 2364 C 224.913 -1.52247 3.09701 0
M  V30 2365 C 224.026 -0.917021 4.22155 0
M  V30 2366 C 223.161 -1.9994 4.92135 0
M  V30 2367 C 222.2 -1.37101 5.96548 0
M  V30 2368 N 221.337 -2.39364 6.60038 0
M  V30 2369 H 226.177 0.232499 2.97092 0
M  V30 2370 H 223.714 0.126496 1.46555 0
M  V30 2371 H 225.672 -2.17674 3.55913 0
M  V30 2372 H 224.302 -2.13794 2.41851 0
M  V30 2373 H 223.354 -0.151742 3.80097 0
M  V30 2374 H 224.666 -0.418006 4.97045 0
M  V30 2375 H 223.82 -2.73088 5.41763 0
M  V30 2376 H 222.559 -2.53208 4.16818 0
M  V30 2377 H 221.564 -0.624873 5.46237 0
M  V30 2378 H 222.789 -0.845998 6.7381 0
M  V30 2379 H 220.735 -2.91759 5.87548 0
M  V30 2380 H 220.652 -1.9428 7.3061 0
M  V30 2381 H 221.92 -3.12074 7.14304 0
M  V30 2382 N 226.149 -1.5696 0.141893 0
M  V30 2383 C 227.059 -2.20066 -0.812905 0
M  V30 2384 C 228.075 -1.18344 -1.27557 0
M  V30 2385 O 229.251 -1.50902 -1.33381 0
M  V30 2386 C 226.316 -2.80583 -2.03652 0
M  V30 2387 C 225.377 -3.97414 -1.62359 0
M  V30 2388 C 224.61 -4.55036 -2.78887 0
M  V30 2389 O 224.833 -4.11538 -3.94959 0
M  V30 2390 O 223.767 -5.45376 -2.54653 0
M  V30 2391 H 227.593 -3.02157 -0.305746 0
M  V30 2392 H 225.178 -1.49159 -0.0848799 0
M  V30 2393 H 227.06 -3.19067 -2.75272 0
M  V30 2394 H 225.735 -2.01508 -2.5333 0
M  V30 2395 H 224.642 -3.63656 -0.877775 0
M  V30 2396 H 225.975 -4.77994 -1.17401 0
M  V30 2397 N 227.627 0.131896 -1.57047 0
M  V30 2398 C 228.852 0.860418 -1.8871 0
M  V30 2399 C 229.277 1.73251 -0.73251 0
M  V30 2400 O 228.635 1.785 0.317429 0
M  V30 2401 C 228.683 1.68047 -3.19049 0
M  V30 2402 O 227.787 2.7862 -3.04047 0
M  V30 2403 H 227.128 0.238743 -0.619595 0
M  V30 2404 H 229.658 0.118169 -2.04258 0
M  V30 2405 H 229.668 2.07238 -3.51449 0
M  V30 2406 H 228.343 1.04018 -4.02682 0
M  V30 2407 H 226.92 2.42726 -2.83088 0
M  V30 2408 N 229.106 1.52395 0.401703 0
M  V30 2409 C 230.355 1.66044 1.14509 0
M  V30 2410 C 230.668 0.400216 1.91462 0
M  V30 2411 O 231.874 0.416632 2.68284 0
M  V30 2412 C 230.33 2.93388 2.0845 0
M  V30 2413 C 229.938 4.26545 1.36978 0
M  V30 2414 C 231.682 3.16402 2.83001 0
M  V30 2415 C 229.589 5.45007 2.29611 0
M  V30 2416 H 228.519 0.618562 0.431158 0
M  V30 2417 H 231.17 1.78886 0.40892 0
M  V30 2418 H 229.552 2.74263 2.8565 0
M  V30 2419 H 230.726 4.56179 0.650916 0
M  V30 2420 H 229.041 4.09692 0.74438 0
M  V30 2421 H 231.638 4.02085 3.52465 0
M  V30 2422 H 231.981 2.30943 3.46368 0
M  V30 2423 H 232.514 3.36034 2.12898 0
M  V30 2424 H 229.253 6.32835 1.70879 0
M  V30 2425 H 228.773 5.19702 2.9945 0
M  V30 2426 H 230.452 5.7838 2.89974 0
M  V30 2427 N 230.584 -0.659388 1.43143 0
M  V30 2428 C 231.531 -1.77249 1.47822 0
M  V30 2429 C 232.501 -1.62818 0.328558 0
M  V30 2430 O 233.686 -1.83151 0.534838 0
M  V30 2431 C 230.826 -3.15371 1.40126 0
M  V30 2432 C 229.939 -3.4098 2.65249 0
M  V30 2433 C 229.074 -4.68915 2.49584 0
M  V30 2434 C 228.113 -4.87608 3.70006 0
M  V30 2435 N 227.25 -6.06796 3.53189 0
M  V30 2436 H 232.09 -1.72584 2.42938 0
M  V30 2437 H 229.627 -0.842297 1.20598 0
M  V30 2438 H 231.585 -3.9521 1.33659 0
M  V30 2439 H 230.215 -3.19121 0.485964 0
M  V30 2440 H 229.267 -2.55282 2.8202 0
M  V30 2441 H 230.579 -3.50681 3.54717 0
M  V30 2442 H 229.733 -5.56871 2.4079 0
M  V30 2443 H 228.472 -4.61524 1.5763 0
M  V30 2444 H 227.477 -3.9809 3.79215 0
M  V30 2445 H 228.702 -4.96834 4.62961 0
M  V30 2446 H 226.648 -6.00549 2.63965 0
M  V30 2447 H 226.565 -6.17428 4.36255 0
M  V30 2448 H 227.833 -6.9739 3.48236 0
M  V30 2449 N 232.062 -1.29571 -0.897171 0
M  V30 2450 C 232.972 -1.16808 -2.03453 0
M  V30 2451 C 233.988 -0.0907471 -1.73763 0
M  V30 2452 O 235.164 -0.303312 -1.99103 0
M  V30 2453 C 232.229 -0.848264 -3.36163 0
M  V30 2454 C 231.29 -2.0097 -3.79354 0
M  V30 2455 C 230.523 -1.70505 -5.05731 0
M  V30 2456 O 230.746 -0.62718 -5.66941 0
M  V30 2457 O 229.68 -2.5538 -5.45036 0
M  V30 2458 H 233.506 -2.12325 -2.17144 0
M  V30 2459 H 231.091 -1.09047 -1.02123 0
M  V30 2460 H 232.973 -0.684581 -4.15802 0
M  V30 2461 H 231.648 0.0771071 -3.23608 0
M  V30 2462 H 230.555 -2.22863 -3.00471 0
M  V30 2463 H 231.888 -2.91636 -3.96496 0
M  V30 2464 N 233.54 1.10788 -1.12088 0
M  V30 2465 C 234.47 2.19083 -0.807755 0
M  V30 2466 C 235.451 1.6858 0.226859 0
M  V30 2467 O 236.636 1.93997 0.0888475 0
M  V30 2468 C 233.766 3.46344 -0.257576 0
M  V30 2469 C 232.72 4.101 -1.22483 0
M  V30 2470 C 232.046 5.32016 -0.535052 0
M  V30 2471 C 233.346 4.54236 -2.57811 0
M  V30 2472 H 235.04 2.45534 -1.71328 0
M  V30 2473 H 232.586 1.1801 -0.825205 0
M  V30 2474 H 234.539 4.21392 -0.0262679 0
M  V30 2475 H 233.263 3.19373 0.683278 0
M  V30 2476 H 231.922 3.37054 -1.44189 0
M  V30 2477 H 231.57 5.01319 0.410827 0
M  V30 2478 H 231.27 5.75625 -1.18024 0
M  V30 2479 H 232.794 6.09799 -0.312695 0
M  V30 2480 H 234.208 5.20575 -2.40155 0
M  V30 2481 H 232.605 5.08682 -3.18375 0
M  V30 2482 H 233.675 3.6734 -3.16528 0
M  V30 2483 N 235.018 0.912232 1.28515 0
M  V30 2484 C 236.264 0.545405 1.95328 0
M  V30 2485 C 236.597 -0.908313 1.71649 0
M  V30 2486 O 235.872 -1.64575 1.03659 0
M  V30 2487 C 236.155 0.853483 3.4984 0
M  V30 2488 C 236.008 2.35982 3.82926 0
M  V30 2489 C 237.327 0.348589 4.38717 0
M  V30 2490 H 234.446 0.199626 0.709449 0
M  V30 2491 H 237.088 1.1412 1.5191 0
M  V30 2492 H 235.238 0.34643 3.86952 0
M  V30 2493 H 236.91 2.93738 3.55691 0
M  V30 2494 H 235.153 2.81543 3.30024 0
M  V30 2495 H 235.824 2.52593 4.90816 0
M  V30 2496 H 238.3 0.78294 4.08668 0
M  V30 2497 H 237.176 0.593242 5.45685 0
M  V30 2498 H 237.437 -0.751049 4.35674 0
M  V30 2499 N 236.496 -1.42363 0.676048 0
M  V30 2500 C 237.406 -2.346 -0.00153389 0
M  V30 2501 C 238.422 -1.5516 -0.787485 0
M  V30 2502 O 239.598 -1.87723 -0.729521 0
M  V30 2503 C 236.663 -3.33705 -0.940298 0
M  V30 2504 C 235.724 -4.29042 -0.148739 0
M  V30 2505 C 234.957 -5.23413 -1.04279 0
M  V30 2506 O 235.18 -5.22749 -2.28232 0
M  V30 2507 O 234.114 -5.99795 -0.502925 0
M  V30 2508 H 237.94 -2.94082 0.758268 0
M  V30 2509 H 235.525 -1.42888 0.436289 0
M  V30 2510 H 237.407 -3.94586 -1.47917 0
M  V30 2511 H 236.082 -2.76695 -1.67993 0
M  V30 2512 H 234.989 -3.71571 0.43427 0
M  V30 2513 H 236.322 -4.89097 0.551805 0
M  V30 2514 N 237.974 -0.419461 -1.51915 0
M  V30 2515 C 238.884 0.407528 -2.31033 0
M  V30 2516 C 239.9 1.04413 -1.3919 0
M  V30 2517 O 241.076 1.0434 -1.72265 0
M  V30 2518 C 238.141 1.50365 -3.12396 0
M  V30 2519 C 237.202 0.889029 -4.19994 0
M  V30 2520 C 236.435 1.93291 -4.97468 0
M  V30 2521 O 236.658 3.15259 -4.75361 0
M  V30 2522 O 235.592 1.53339 -5.8204 0
M  V30 2523 H 239.418 -0.237865 -3.02767 0
M  V30 2524 H 237.003 -0.182413 -1.48282 0
M  V30 2525 H 238.885 2.13975 -3.63032 0
M  V30 2526 H 237.56 2.13345 -2.43445 0
M  V30 2527 H 236.467 0.215353 -3.7348 0
M  V30 2528 H 237.8 0.302991 -4.91267 0
M  V30 2529 N 239.452 1.56882 -0.150215 0
M  V30 2530 C 240.382 2.19935 0.784284 0
M  V30 2531 C 241.363 1.14854 1.25469 0
M  V30 2532 O 242.548 1.43209 1.31168 0
M  V30 2533 C 239.678 2.82349 2.02229 0
M  V30 2534 C 238.632 3.93285 1.68853 0
M  V30 2535 C 237.958 4.42649 2.99944 0
M  V30 2536 C 239.258 5.13904 0.932714 0
M  V30 2537 H 240.952 2.9828 0.258781 0
M  V30 2538 H 238.498 1.43473 0.123029 0
M  V30 2539 H 240.451 3.25126 2.68088 0
M  V30 2540 H 239.175 2.0134 2.57157 0
M  V30 2541 H 237.834 3.5113 1.05371 0
M  V30 2542 H 237.482 3.58458 3.52869 0
M  V30 2543 H 237.182 5.17476 2.78374 0
M  V30 2544 H 238.706 4.88099 3.66868 0
M  V30 2545 H 240.12 5.53506 1.49345 0
M  V30 2546 H 238.517 5.94515 0.81684 0
M  V30 2547 H 239.587 4.84842 -0.0749568 0
M  V30 2548 N 240.93 -0.123565 1.57115 0
M  V30 2549 C 242.155 -0.850398 1.89164 0
M  V30 2550 C 242.58 -1.7286 0.741688 0
M  V30 2551 O 241.938 -1.78665 -0.307958 0
M  V30 2552 C 241.986 -1.66353 3.19936 0
M  V30 2553 O 241.09 -2.77004 3.0552 0
M  V30 2554 H 240.431 -0.235454 0.620852 0
M  V30 2555 H 242.961 -0.107335 2.04318 0
M  V30 2556 H 242.971 -2.05372 3.52543 0
M  V30 2557 H 241.646 -1.01881 4.03228 0
M  V30 2558 H 240.223 -2.41221 2.84371 0
M  V30 2559 N 242.408 -1.52605 -0.393616 0
M  V30 2560 C 243.341 -1.71798 -1.50202 0
M  V30 2561 C 244.319 -0.565743 -1.52441 0
M  V30 2562 O 245.503 -0.794987 -1.70916 0
M  V30 2563 C 242.63 -1.7714 -2.88685 0
M  V30 2564 C 241.676 -2.98845 -3.04292 0
M  V30 2565 S 242.509 -4.58909 -2.75976 0
M  V30 2566 C 243.665 -4.6706 -4.1666 0
M  V30 2567 H 243.898 -2.65542 -1.33696 0
M  V30 2568 H 241.431 -1.42839 -0.586195 0
M  V30 2569 H 243.389 -1.80903 -3.68489 0
M  V30 2570 H 242.05 -0.844969 -3.02521 0
M  V30 2571 H 241.243 -2.99111 -4.05646 0
M  V30 2572 H 240.845 -2.9305 -2.32374 0
M  V30 2573 H 243.137 -4.45391 -5.10523 0
M  V30 2574 H 244.08 -5.6905 -4.21412 0
M  V30 2575 H 244.488 -3.95944 -4.02354 0
M  V30 2576 N 243.887 0.651787 -1.4349 0
M  V30 2577 C 245.134 1.41167 -1.45183 0
M  V30 2578 C 245.462 1.94349 -0.0766601 0
M  V30 2579 O 244.717 1.72804 0.918555 0
M  V30 2580 C 245.016 2.60914 -2.44251 0
M  V30 2581 C 244.682 2.26142 -3.9009 0
M  V30 2582 C 243.344 2.16371 -4.2981 0
M  V30 2583 C 245.696 1.98334 -4.81989 0
M  V30 2584 C 243.024 1.7695 -5.5938 0
M  V30 2585 C 245.376 1.6041 -6.11924 0
M  V30 2586 C 244.04 1.49166 -6.5062 0
M  V30 2587 H 243.31 0.516566 -0.531263 0
M  V30 2588 H 245.957 0.741099 -1.76579 0
M  V30 2589 H 244.262 3.3311 -2.06265 0
M  V30 2590 H 245.959 3.19127 -2.42815 0
M  V30 2591 H 242.549 2.34658 -3.58655 0
M  V30 2592 H 246.733 2.04803 -4.52072 0
M  V30 2593 H 241.989 1.66831 -5.88198 0
M  V30 2594 H 246.163 1.37925 -6.82605 0
M  V30 2595 H 243.79 1.1839 -7.50925 0
M  V30 2596 N 245.365 1.30045 0.890287 0
M  V30 2597 C 246.328 1.15963 1.977 0
M  V30 2598 C 247.328 0.0923777 1.60534 0
M  V30 2599 O 248.518 0.340071 1.70848 0
M  V30 2600 C 245.65 0.775451 3.31963 0
M  V30 2601 H 246.843 2.12502 2.11619 0
M  V30 2602 H 244.396 1.13366 1.07601 0
M  V30 2603 H 245.131 -0.189671 3.23745 0
M  V30 2604 H 244.916 1.54668 3.60306 0
M  V30 2605 H 246.406 0.700251 4.11687 0
M  V30 2606 N 246.843 -1.10192 1.12674 0
M  V30 2607 C 247.79 -2.16606 0.796906 0
M  V30 2608 C 248.76 -1.64394 -0.237476 0
M  V30 2609 O 249.945 -1.90474 -0.111484 0
M  V30 2610 C 247.085 -3.44116 0.26043 0
M  V30 2611 C 246.198 -4.10268 1.35293 0
M  V30 2612 C 245.333 -5.25507 0.775621 0
M  V30 2613 C 244.372 -5.83567 1.84706 0
M  V30 2614 N 243.509 -6.90179 1.28829 0
M  V30 2615 H 248.349 -2.44163 1.70846 0
M  V30 2616 H 245.886 -1.19846 0.85295 0
M  V30 2617 H 247.844 -4.17143 -0.0686814 0
M  V30 2618 H 246.474 -3.16901 -0.614274 0
M  V30 2619 H 245.526 -3.35184 1.79877 0
M  V30 2620 H 246.838 -4.4946 2.16303 0
M  V30 2621 H 245.992 -6.05398 0.397327 0
M  V30 2622 H 244.731 -4.87656 -0.0656581 0
M  V30 2623 H 243.736 -5.02344 2.23452 0
M  V30 2624 H 244.961 -6.23482 2.69161 0
M  V30 2625 H 242.907 -6.54322 0.468881 0
M  V30 2626 H 242.824 -7.28097 2.03497 0
M  V30 2627 H 244.092 -7.73844 0.937311 0
M  V30 2628 N 248.321 -0.919034 -1.28029 0
M  V30 2629 C 249.284 -0.416182 -2.2539 0
M  V30 2630 C 250.284 0.460438 -1.54067 0
M  V30 2631 O 251.474 0.262744 -1.72207 0
M  V30 2632 C 248.606 0.402707 -3.38513 0
M  V30 2633 H 249.799 -1.27629 -2.71387 0
M  V30 2634 H 247.352 -0.698919 -1.39803 0
M  V30 2635 H 248.087 1.282 -2.97885 0
M  V30 2636 H 247.872 -0.225698 -3.9145 0
M  V30 2637 H 249.362 0.745191 -4.10897 0
M  V30 2638 N 249.799 1.42003 -0.683588 0
M  V30 2639 C 251.047 2.01015 -0.209101 0
M  V30 2640 C 251.368 1.54365 1.19149 0
M  V30 2641 O 250.638 0.769083 1.80172 0
M  V30 2642 H 249.218 0.743294 -0.074315 0
M  V30 2643 H 251.88 1.73798 -0.882066 0
M  V30 2644 H 250.976 3.11343 -0.2172 0
M  V30 2645 N 251.277 0.427512 1.51691 0
M  V30 2646 C 252.225 -0.403359 2.29076 0
M  V30 2647 C 253.219 -1.02962 1.34518 0
M  V30 2648 O 254.425 -0.965715 1.51901 0
M  V30 2649 H 250.8 -0.148879 0.737115 0
M  V30 2650 H 252.771 0.270295 2.97173 0
M  V30 2651 C 251.52 -1.49763 3.13794 0
M  V30 2652 H 250.843 -1.02508 3.86435 0
M  V30 2653 H 252.283 -2.05244 3.71014 0
M  V30 2654 C 250.742 -2.47536 2.28533 0
M  V30 2655 O 251.272 -3.51848 1.93819 0
M  V30 2656 N 249.478 -2.18187 1.91945 0
M  V30 2657 H 249.025 -1.33389 2.20375 0
M  V30 2658 H 248.983 -2.83848 1.35195 0
M  V30 2659 N 252.755 -1.56801 0.158532 0
M  V30 2660 C 254.166 -1.83189 -0.360366 0
M  V30 2661 C 254.517 -1.07778 -1.63946 0
M  V30 2662 O 253.642 -0.326718 -2.13919 0
M  V30 2663 C 254.237 -3.32297 -0.660595 0
M  V30 2664 C 252.796 -3.59227 -1.12398 0
M  V30 2665 C 251.943 -2.76877 -0.153097 0
M  V30 2666 H 254.894 -1.54008 0.383031 0
M  V30 2667 H 254.915 -3.4908 -1.51405 0
M  V30 2668 H 254.427 -3.87156 0.270527 0
M  V30 2669 H 252.528 -3.09766 -2.07064 0
M  V30 2670 H 252.641 -4.67632 -1.04197 0
M  V30 2671 H 251.005 -2.46319 -0.647983 0
M  V30 2672 H 251.788 -3.34511 0.77182 0
M  V30 2673 N 254.233 0.115231 -1.57178 0
M  V30 2674 C 255.481 0.820727 -1.84685 0
M  V30 2675 C 255.802 1.80237 -0.744279 0
M  V30 2676 O 255.072 1.94529 0.231375 0
M  V30 2677 H 253.652 0.306084 -0.681411 0
M  V30 2678 H 256.314 0.101656 -1.94635 0
M  V30 2679 H 255.41 1.36366 -2.80733 0
M  V30 2680 N 255.711 1.52812 0.385517 0
M  V30 2681 C 256.957 1.68275 1.13188 0
M  V30 2682 C 257.29 0.423179 1.89533 0
M  V30 2683 O 256.565 -0.579113 1.85679 0
M  V30 2684 C 256.848 2.92001 2.1073 0
M  V30 2685 C 256.701 4.28067 1.38125 0
M  V30 2686 C 258.02 3.11283 3.11113 0
M  V30 2687 H 255.139 0.612352 0.410115 0
M  V30 2688 H 257.781 1.85415 0.414869 0
M  V30 2689 H 255.931 2.77519 2.71874 0
M  V30 2690 H 257.603 4.54324 0.799187 0
M  V30 2691 H 255.846 4.28388 0.683092 0
M  V30 2692 H 256.517 5.10733 2.09417 0
M  V30 2693 H 258.993 3.2482 2.6006 0
M  V30 2694 H 257.869 3.99325 3.76605 0
M  V30 2695 H 258.13 2.25656 3.80173 0
M  V30 2696 O 257.228 -0.531464 1.52505 0
M  V30 2697 H 257.919 -1.18658 1.53101 0
M  V30 END ATOM
M  V30 BEGIN BOND
M  V30 END BOND
M  V30 END CTAB
M  END
$$$$
