drugbank_target|P48736 Phosphatidylinositol 4,5-bisphosphate 3-kinase catalytic subunit gamma isoform (DB02010; DB02375; DB02656; DB04216; DB04769; DB05241; DB05552; DB06831; DB06836; DB07073; DB07335; DB07503; DB08059; DB08300; DB11952; DB12010)
 OpenBabel12092119523D

  0  0  0     0  0            999 V3000
M  V30 BEGIN CTAB
M  V30 COUNTS 17845 18053 0 0 0
M  V30 BEGIN ATOM
M  V30 1 H -0.908 1.98254 -0.117106 0
M  V30 2 N 0 1.576 0 0
M  V30 3 C 0.933 2.03868 1.02534 0
M  V30 4 C 1.911 0.928543 1.3348 0
M  V30 5 O 3.095 1.19667 1.45644 0
M  V30 6 C 0.222 2.43627 2.35294 0
M  V30 7 C -0.732 3.65373 2.2001 0
M  V30 8 S 0.101 5.13292 1.52614 0
M  V30 9 C 1.257 5.56322 2.86805 0
M  V30 10 H 1.49 2.90518 0.631377 0
M  V30 11 H -0.977 1.52953 0.210867 0
M  V30 12 H 0.981 2.67203 3.11629 0
M  V30 13 H -0.358 1.57376 2.7183 0
M  V30 14 H -1.165 3.90944 3.18086 0
M  V30 15 H -1.563 3.418 1.51819 0
M  V30 16 H 0.729 5.58782 3.83104 0
M  V30 17 H 1.672 6.56266 2.65933 0
M  V30 18 H 2.08 4.83886 2.90714 0
M  V30 19 N 1.4781 -0.272755 1.55222 0
M  V30 20 C 2.3881 -1.35918 1.91216 0
M  V30 21 C 3.4041 -1.54026 0.809436 0
M  V30 22 O 4.5801 -1.68148 1.10852 0
M  V30 23 C 1.6451 -2.69834 2.17693 0
M  V30 24 C 0.7061 -2.6047 3.41253 0
M  V30 25 C -0.0609 -3.88 3.66458 0
M  V30 26 O 0.1621 -4.88693 2.94169 0
M  V30 27 O -0.9039 -3.88189 4.59992 0
M  V30 28 H 2.9221 -1.0839 2.83699 0
M  V30 29 H 0.5071 -0.471301 1.41771 0
M  V30 30 H 2.3891 -3.49017 2.36147 0
M  V30 31 H 1.0641 -2.97148 1.28392 0
M  V30 32 H -0.0289 -1.79663 3.28134 0
M  V30 33 H 1.3041 -2.38106 4.30774 0
M  V30 34 N 2.9562 -1.48159 -0.537278 0
M  V30 35 C 3.8862 -1.65029 -1.6519 0
M  V30 36 C 4.8672 -0.499281 -1.62607 0
M  V30 37 O 6.0522 -0.730972 -1.79918 0
M  V30 38 C 3.1822 -1.68303 -3.03795 0
M  V30 39 C 2.1362 -2.8283 -3.21234 0
M  V30 40 C 1.4622 -2.71189 -4.60826 0
M  V30 41 C 2.7622 -4.24211 -3.04701 0
M  V30 42 H 4.4562 -2.58341 -1.51328 0
M  V30 43 H 2.0022 -1.24325 -0.726585 0
M  V30 44 H 3.9552 -1.78693 -3.81637 0
M  V30 45 H 2.6792 -0.715635 -3.18663 0
M  V30 46 H 1.3382 -2.71983 -2.45807 0
M  V30 47 H 0.9862 -1.72435 -4.7252 0
M  V30 48 H 0.6862 -3.48035 -4.7344 0
M  V30 49 H 2.2102 -2.83537 -5.40777 0
M  V30 50 H 3.6242 -4.3593 -3.72341 0
M  V30 51 H 2.0212 -5.01998 -3.28813 0
M  V30 52 H 3.0912 -4.41184 -2.01209 0
M  V30 53 N 4.4343 0.785586 -1.36625 0
M  V30 54 C 5.3443 1.92964 -1.33425 0
M  V30 55 C 6.3603 1.72394 -0.235851 0
M  V30 56 O 7.5363 1.95866 -0.468878 0
M  V30 57 C 4.6013 3.27884 -1.12662 0
M  V30 58 C 3.6623 3.61204 -2.32013 0
M  V30 59 C 2.8953 4.89687 -2.12231 0
M  V30 60 O 3.1183 5.59704 -1.09945 0
M  V30 61 O 2.0523 5.21752 -3.00098 0
M  V30 62 H 5.8783 1.98613 -2.29753 0
M  V30 63 H 3.4633 0.926384 -1.17211 0
M  V30 64 H 5.3453 4.08614 -1.03016 0
M  V30 65 H 4.0203 3.23118 -0.193991 0
M  V30 66 H 2.9273 2.80765 -2.47228 0
M  V30 67 H 4.2603 3.70698 -3.23796 0
M  V30 68 N 5.9124 1.20967 1.01018 0
M  V30 69 C 6.8604 0.961223 2.1181 0
M  V30 70 C 7.8544 -0.0897034 1.69162 0
M  V30 71 O 9.0604 0.0612271 1.79896 0
M  V30 72 H 5.4354 0.29355 0.692338 0
M  V30 73 H 7.4064 1.90178 2.29946 0
M  V30 74 C 6.1554 0.536854 3.4353 0
M  V30 75 H 5.4784 1.33713 3.76777 0
M  V30 76 H 6.9184 0.402286 4.22087 0
M  V30 77 C 5.3774 -0.751574 3.2841 0
M  V30 78 O 5.9074 -1.80841 3.58691 0
M  V30 79 N 4.1134 -0.716079 2.81639 0
M  V30 80 H 3.6604 0.144236 2.57196 0
M  V30 81 H 3.6184 -1.57847 2.71904 0
M  V30 82 N 7.3905 -1.2043 1.01659 0
M  V30 83 C 8.6205 -1.93496 0.724081 0
M  V30 84 C 9.0285 -1.74998 -0.71918 0
M  V30 85 O 8.3715 -1.06118 -1.49949 0
M  V30 86 C 8.4335 -3.45886 0.97994 0
M  V30 87 C 8.0975 -3.88145 2.41232 0
M  V30 88 C 9.0945 -3.93907 3.39313 0
M  V30 89 C 6.7795 -4.20134 2.75305 0
M  V30 90 C 8.7735 -4.31069 4.6953 0
M  V30 91 C 6.4605 -4.56971 4.05735 0
M  V30 92 C 7.4585 -4.62411 5.02658 0
M  V30 93 O 7.1465 -4.98403 6.30754 0
M  V30 94 H 6.8785 -0.621824 0.265162 0
M  V30 95 H 9.4325 -1.53867 1.36066 0
M  V30 96 H 7.6625 -3.85639 0.286198 0
M  V30 97 H 9.3515 -4.0018 0.679021 0
M  V30 98 H 10.1175 -3.69357 3.14325 0
M  V30 99 H 5.9965 -4.1509 2.00551 0
M  V30 100 H 9.5405 -4.3523 5.45179 0
M  V30 101 H 5.4375 -4.80977 4.30502 0
M  V30 102 H 6.2055 -5.16395 6.35042 0
M  V30 103 N 8.8686 -0.792821 -1.36206 0
M  V30 104 C 9.8156 -0.191653 -2.30003 0
M  V30 105 C 10.7856 0.666453 -1.52143 0
M  V30 106 O 11.9706 0.61442 -1.80636 0
M  V30 107 C 9.1106 0.664848 -3.38635 0
M  V30 108 C 8.2236 -0.212175 -4.31479 0
M  V30 109 C 7.3586 0.651022 -5.27196 0
M  V30 110 C 6.3976 -0.227247 -6.11678 0
M  V30 111 N 5.5346 0.595127 -6.99573 0
M  V30 112 H 10.3746 -0.996978 -2.80828 0
M  V30 113 H 7.9116 -0.503206 -1.38225 0
M  V30 114 H 9.8696 1.17645 -4.00269 0
M  V30 115 H 8.4996 1.43557 -2.89122 0
M  V30 116 H 7.5516 -0.841777 -3.70969 0
M  V30 117 H 8.8636 -0.888751 -4.90818 0
M  V30 118 H 8.0176 1.2283 -5.94136 0
M  V30 119 H 6.7566 1.36121 -4.68319 0
M  V30 120 H 5.7616 -0.816904 -5.43697 0
M  V30 121 H 6.9866 -0.93509 -6.72631 0
M  V30 122 H 4.9326 1.28955 -6.432 0
M  V30 123 H 4.8496 -0.0236952 -7.55996 0
M  V30 124 H 6.1176 1.15613 -7.70879 0
M  V30 125 N 10.3467 1.47872 -0.545128 0
M  V30 126 C 11.2787 2.27869 0.246621 0
M  V30 127 C 12.2917 1.36282 0.890561 0
M  V30 128 O 13.4807 1.61207 0.766449 0
M  V30 129 C 10.5807 3.10159 1.36582 0
M  V30 130 C 9.7537 4.29627 0.820954 0
M  V30 131 C 8.8127 4.93607 1.82314 0
M  V30 132 O 7.8387 5.52366 1.37406 0
M  V30 133 N 9.0407 4.87211 3.15603 0
M  V30 134 H 11.8057 2.96459 -0.439539 0
M  V30 135 H 9.3667 1.57367 -0.380421 0
M  V30 136 H 11.3587 3.49829 2.03474 0
M  V30 137 H 9.9287 2.43891 1.9554 0
M  V30 138 H 9.1487 3.94192 -0.0244032 0
M  V30 139 H 10.4367 5.06928 0.436063 0
M  V30 140 H 9.8347 4.40651 3.54744 0
M  V30 141 H 8.3917 5.30937 3.78087 0
M  V30 142 N 11.8248 0.280983 1.55075 0
M  V30 143 C 13.2358 -0.215629 1.85451 0
M  V30 144 C 13.5868 -1.54991 1.203 0
M  V30 145 O 12.7118 -2.10699 0.493435 0
M  V30 146 C 13.3068 -0.398026 3.36454 0
M  V30 147 C 11.8658 -0.838866 3.66933 0
M  V30 148 C 11.0128 0.064458 2.77225 0
M  V30 149 H 13.9638 0.502601 1.50531 0
M  V30 150 H 13.9848 -1.23569 3.59876 0
M  V30 151 H 13.4968 0.573241 3.83843 0
M  V30 152 H 11.5978 -1.8214 3.25048 0
M  V30 153 H 11.7108 -0.672123 4.74362 0
M  V30 154 H 10.0748 -0.452863 2.50642 0
M  V30 155 H 10.8578 1.03172 3.2743 0
M  V30 156 N 13.3029 -1.57598 0.00835791 0
M  V30 157 C 14.5489 -1.91211 -0.675732 0
M  V30 158 C 14.8819 -0.883139 -1.72958 0
M  V30 159 O 14.1569 0.097016 -1.94258 0
M  V30 160 C 14.4399 -3.35379 -1.31123 0
M  V30 161 C 14.2929 -4.48999 -0.268356 0
M  V30 162 C 15.6119 -3.7912 -2.23508 0
M  V30 163 H 12.7309 -0.695374 -0.244179 0
M  V30 164 H 15.3729 -1.89901 0.0613655 0
M  V30 165 H 13.5229 -3.36626 -1.93946 0
M  V30 166 H 15.1949 -4.59887 0.360844 0
M  V30 167 H 13.4379 -4.31873 0.408482 0
M  V30 168 H 14.1089 -5.46851 -0.752218 0
M  V30 169 H 16.5849 -3.79477 -1.70693 0
M  V30 170 H 15.4609 -4.80729 -2.64936 0
M  V30 171 H 15.7219 -3.13455 -3.11766 0
M  V30 172 N 14.781 0.264519 -1.55364 0
M  V30 173 C 16.027 0.99646 -1.76631 0
M  V30 174 C 16.36 1.85632 -0.570478 0
M  V30 175 O 15.635 1.89647 0.43175 0
M  V30 176 C 15.918 1.87187 -3.07625 0
M  V30 177 C 15.771 1.04138 -4.37579 0
M  V30 178 C 17.09 2.85749 -3.34717 0
M  V30 179 H 14.209 0.360841 -0.642622 0
M  V30 180 H 16.851 0.268218 -1.88097 0
M  V30 181 H 15.001 2.49279 -2.9798 0
M  V30 182 H 16.673 0.440517 -4.59192 0
M  V30 183 H 14.916 0.345115 -4.32425 0
M  V30 184 H 15.587 1.68729 -5.2558 0
M  V30 185 H 18.063 2.33793 -3.4421 0
M  V30 186 H 16.939 3.44136 -4.27623 0
M  V30 187 H 17.2 3.61311 -2.54768 0
M  V30 188 N 16.2591 1.48442 0.529413 0
M  V30 189 C 17.1891 1.65902 1.64313 0
M  V30 190 C 18.1701 0.507897 1.6234 0
M  V30 191 O 19.3551 0.740503 1.79528 0
M  V30 192 C 16.4851 1.69911 3.02898 0
M  V30 193 C 15.4391 2.8453 3.19729 0
M  V30 194 C 14.7651 2.73629 4.59381 0
M  V30 195 C 16.0651 4.25821 3.02447 0
M  V30 196 H 17.7591 2.5914 1.49955 0
M  V30 197 H 15.3051 1.24709 0.719982 0
M  V30 198 H 17.2581 1.80715 3.80684 0
M  V30 199 H 15.9821 0.732524 3.18279 0
M  V30 200 H 14.6411 2.73283 2.44361 0
M  V30 201 H 14.2891 1.74938 4.71599 0
M  V30 202 H 13.9891 3.50541 4.71588 0
M  V30 203 H 15.5131 2.86401 5.39265 0
M  V30 204 H 16.9271 4.37898 3.70024 0
M  V30 205 H 15.3241 5.03735 3.26146 0
M  V30 206 H 16.3941 4.42244 1.98867 0
M  V30 207 N 17.7372 -0.778329 1.37039 0
M  V30 208 C 19.1532 -1.07796 1.17695 0
M  V30 209 C 19.3532 -2.01498 0.00860115 0
M  V30 210 O 18.4092 -2.43901 -0.653352 0
M  V30 211 C 19.7222 -1.68178 2.49272 0
M  V30 212 C 21.2702 -1.80467 2.55735 0
M  V30 213 C 21.7452 -2.44263 3.87427 0
M  V30 214 N 23.2362 -2.51721 3.88833 0
M  V30 215 C 23.9712 -3.01919 4.87476 0
M  V30 216 N 23.4672 -3.5234 5.96513 0
M  V30 217 N 25.2602 -3.00733 4.74885 0
M  V30 218 H 17.4112 -0.156032 2.11826 0
M  V30 219 H 19.6742 -0.131844 0.938787 0
M  V30 220 H 19.3802 -1.06796 3.35093 0
M  V30 221 H 19.2542 -2.67554 2.65885 0
M  V30 222 H 21.6412 -2.40984 1.70325 0
M  V30 223 H 21.7222 -0.798656 2.43013 0
M  V30 224 H 21.3662 -1.84388 4.73248 0
M  V30 225 H 21.2962 -3.45458 3.9745 0
M  V30 226 H 23.7872 -2.1603 3.10063 0
M  V30 227 H 24.1002 -3.89027 6.67741 0
M  V30 228 H 22.4452 -3.50462 6.00168 0
M  V30 229 H 25.6362 -2.60638 3.88826 0
M  V30 230 H 25.8092 -3.39545 5.51918 0
M  V30 231 N 19.2153 -1.21501 -1.00376 0
M  V30 232 C 20.1253 -0.991447 -2.12621 0
M  V30 233 C 21.1413 0.0568446 -1.73907 0
M  V30 234 O 22.3173 -0.13348 -2.00957 0
M  V30 235 C 19.3823 -0.560312 -3.42142 0
M  V30 236 C 18.4433 -1.68096 -3.95022 0
M  V30 237 C 17.6763 -1.2703 -5.18362 0
M  V30 238 O 17.8993 -0.144438 -5.70217 0
M  V30 239 O 16.8333 -2.08269 -5.64719 0
M  V30 240 H 20.6593 -1.93158 -2.34358 0
M  V30 241 H 18.2443 -0.999999 -1.10997 0
M  V30 242 H 20.1263 -0.329724 -4.20108 0
M  V30 243 H 18.8013 0.351089 -3.2179 0
M  V30 244 H 17.7083 -1.96597 -3.18278 0
M  V30 245 H 19.0413 -2.56983 -4.19786 0
M  V30 246 N 20.6934 1.19889 -1.02296 0
M  V30 247 C 21.9704 1.85148 -0.630832 0
M  V30 248 C 22.3504 1.91385 0.890782 0
M  V30 249 O 21.6984 1.42642 1.78509 0
M  V30 250 C 21.9084 3.24442 -1.28602 0
M  V30 251 C 23.2564 4.00663 -1.4055 0
M  V30 252 O 24.2804 3.33818 -1.24273 0
M  V30 253 O 23.1394 5.20387 -1.66913 0
M  V30 254 H 20.2334 0.797613 -0.218499 0
M  V30 255 H 22.7794 1.27427 -1.12074 0
M  V30 256 H 21.5514 3.14704 -2.32545 0
M  V30 257 H 21.1744 3.89802 -0.7836 0
M  V30 258 N 22.1715 0.800033 1.35784 0
M  V30 259 C 23.1195 0.193851 2.31791 0
M  V30 260 C 24.1135 -0.652744 1.56319 0
M  V30 261 O 25.3195 -0.546641 1.71499 0
M  V30 262 H 21.6945 0.04392 0.750716 0
M  V30 263 H 23.6655 1.01883 2.80468 0
M  V30 264 C 22.4145 -0.648338 3.41602 0
M  V30 265 H 21.7375 -0.00624665 3.998 0
M  V30 266 H 23.1775 -1.03898 4.11073 0
M  V30 267 C 21.6365 -1.8111 2.84079 0
M  V30 268 O 22.1665 -2.90825 2.77099 0
M  V30 269 N 20.3725 -1.62056 2.41218 0
M  V30 270 H 19.9195 -0.728123 2.47095 0
M  V30 271 H 19.8775 -2.40013 2.03079 0
M  V30 272 N 23.6496 -1.47581 0.552962 0
M  V30 273 C 24.8896 -2.04379 0.0296245 0
M  V30 274 C 25.2536 -1.4185 -1.29393 0
M  V30 275 O 26.4546 -1.89669 -1.90471 0
M  V30 276 C 24.7256 -3.57339 -0.0661371 0
M  V30 277 S 26.2846 -4.35511 -0.536213 0
M  V30 278 H 23.1026 -0.710625 0.0230991 0
M  V30 279 H 25.7046 -1.81005 0.738734 0
M  V30 280 H 24.4086 -4.00374 0.901596 0
M  V30 281 H 23.9396 -3.85202 -0.798931 0
M  V30 282 H 25.9546 -4.6253 -1.79668 0
M  V30 283 N 25.1277 -0.289203 -1.54924 0
M  V30 284 C 26.5437 0.0645403 -1.59469 0
M  V30 285 C 26.7437 1.53419 -1.30632 0
M  V30 286 O 25.7997 2.2852 -1.074 0
M  V30 287 C 27.1127 -0.32278 -2.98963 0
M  V30 288 C 28.6607 -0.270564 -3.11828 0
M  V30 289 C 29.1357 -0.632532 -4.53611 0
M  V30 290 N 30.6267 -0.584617 -4.59496 0
M  V30 291 C 31.3617 -0.837314 -5.67254 0
M  V30 292 N 30.8577 -1.15536 -6.83098 0
M  V30 293 N 32.6507 -0.765166 -5.56868 0
M  V30 294 H 24.8017 -1.24714 -1.71931 0
M  V30 295 H 27.0647 -0.504809 -0.802416 0
M  V30 296 H 26.7707 -1.34541 -3.24948 0
M  V30 297 H 26.6447 0.32944 -3.75759 0
M  V30 298 H 29.0317 0.742805 -2.85598 0
M  V30 299 H 29.1127 -0.957242 -2.37214 0
M  V30 300 H 28.7567 -1.64365 -4.80569 0
M  V30 301 H 28.6867 0.07609 -5.26545 0
M  V30 302 H 31.1777 -0.349248 -3.76283 0
M  V30 303 H 31.4907 -1.33447 -7.61191 0
M  V30 304 H 29.8357 -1.19328 -6.84679 0
M  V30 305 H 33.0267 -0.516432 -4.65243 0
M  V30 306 H 33.1997 -0.965477 -6.40767 0
M  V30 307 N 26.6058 1.57591 -0.0167156 0
M  V30 308 C 28.0218 1.55946 0.339557 0
M  V30 309 C 28.2218 1.02109 1.73713 0
M  V30 310 O 27.2778 0.662303 2.43659 0
M  V30 311 C 28.5908 3.00037 0.199499 0
M  V30 312 C 30.1388 3.11805 0.273193 0
M  V30 313 C 30.6138 4.57713 0.162068 0
M  V30 314 N 32.1048 4.6268 0.219444 0
M  V30 315 C 32.8398 5.73185 0.157054 0
M  V30 316 N 32.3358 6.92786 0.0442936 0
M  V30 317 N 34.1288 5.61707 0.21014 0
M  V30 318 H 26.2798 1.90921 -0.930758 0
M  V30 319 H 28.5428 0.877674 -0.358319 0
M  V30 320 H 28.2488 3.4333 -0.76273 0
M  V30 321 H 28.1228 3.64387 0.974786 0
M  V30 322 H 30.5098 2.68433 1.22587 0
M  V30 323 H 30.5908 2.50201 -0.532256 0
M  V30 324 H 30.2348 5.01763 -0.78714 0
M  V30 325 H 30.1648 5.17283 0.986222 0
M  V30 326 H 32.6558 3.76649 0.307246 0
M  V30 327 H 32.9688 7.728 0.00304069 0
M  V30 328 H 31.3138 6.94999 0.00968457 0
M  V30 329 H 34.5048 4.6716 0.296546 0
M  V30 330 H 34.6778 6.47807 0.158054 0
M  V30 331 N 28.0839 -0.256276 1.55502 0
M  V30 332 C 29.4999 -0.604325 1.47716 0
M  V30 333 C 29.6999 -1.88763 0.705039 0
M  V30 334 O 28.7559 -2.51445 0.230613 0
M  V30 335 C 30.0689 -0.715756 2.92057 0
M  V30 336 C 31.6169 -0.808706 3.02372 0
M  V30 337 C 32.0919 -0.951777 4.48001 0
M  V30 338 N 33.5829 -1.01688 4.519 0
M  V30 339 C 34.3179 -1.14668 5.61817 0
M  V30 340 N 33.8139 -1.24261 6.81565 0
M  V30 341 N 35.6069 -1.1791 5.49594 0
M  V30 342 H 27.7579 0.586291 2.04148 0
M  V30 343 H 30.0209 0.201015 0.926443 0
M  V30 344 H 29.7269 0.157027 3.51349 0
M  V30 345 H 29.6009 -1.59071 3.42018 0
M  V30 346 H 31.9879 -1.67195 2.43166 0
M  V30 347 H 32.0689 0.0912063 2.55637 0
M  V30 348 H 31.7129 -0.0931291 5.07815 0
M  V30 349 H 31.6429 -1.86659 4.92408 0
M  V30 350 H 34.1339 -0.954468 3.65648 0
M  V30 351 H 34.4469 -1.34046 7.61086 0
M  V30 352 H 32.7919 -1.21236 6.84344 0
M  V30 353 H 35.9829 -1.10057 4.54978 0
M  V30 354 H 36.1559 -1.27681 6.35296 0
M  V30 355 N 29.562 -1.4872 -0.521534 0
M  V30 356 C 30.978 -1.35028 -0.850855 0
M  V30 357 C 31.178 -0.367712 -1.98116 0
M  V30 358 O 30.234 0.208037 -2.51642 0
M  V30 359 C 31.547 -2.75263 -1.21041 0
M  V30 360 C 33.095 -2.83813 -1.31981 0
M  V30 361 C 33.57 -4.24769 -1.71276 0
M  V30 362 N 35.061 -4.27482 -1.78363 0
M  V30 363 C 35.796 -5.33494 -2.1017 0
M  V30 364 N 35.292 -6.49775 -2.40343 0
M  V30 365 N 37.085 -5.20894 -2.11248 0
M  V30 366 H 29.236 -2.11214 0.22413 0
M  V30 367 H 31.499 -0.947252 0.0376439 0
M  V30 368 H 31.205 -3.48765 -0.453415 0
M  V30 369 H 31.079 -3.09327 -2.15863 0
M  V30 370 H 33.466 -2.10561 -2.06756 0
M  V30 371 H 33.547 -2.53358 -0.352596 0
M  V30 372 H 33.191 -4.9854 -0.970588 0
M  V30 373 H 33.121 -4.52673 -2.69062 0
M  V30 374 H 35.612 -3.43611 -1.57288 0
M  V30 375 H 35.925 -7.26402 -2.63743 0
M  V30 376 H 34.27 -6.53035 -2.37844 0
M  V30 377 H 37.461 -4.29065 -1.87139 0
M  V30 378 H 37.634 -6.03612 -2.35704 0
M  V30 379 N 31.0401 0.771051 -1.3745 0
M  V30 380 C 32.4561 1.07171 -1.18265 0
M  V30 381 C 32.6561 2.01491 -0.019287 0
M  V30 382 O 31.7121 2.44244 0.640408 0
M  V30 383 C 33.0251 1.66854 -2.50161 0
M  V30 384 C 34.5731 1.79109 -2.56689 0
M  V30 385 C 35.0481 2.42205 -3.88717 0
M  V30 386 N 36.5391 2.49655 -3.90162 0
M  V30 387 C 37.2741 2.9933 -4.8907 0
M  V30 388 N 36.7701 3.49172 -5.98374 0
M  V30 389 N 38.5631 2.9821 -4.76474 0
M  V30 390 H 30.7141 0.144796 -2.11906 0
M  V30 391 H 32.9771 0.126863 -0.939473 0
M  V30 392 H 32.6831 1.05017 -3.35655 0
M  V30 393 H 32.5571 2.6614 -2.673 0
M  V30 394 H 34.9441 2.40077 -1.71601 0
M  V30 395 H 35.0251 0.785757 -2.43433 0
M  V30 396 H 34.6691 1.81875 -4.74219 0
M  V30 397 H 34.5991 3.43345 -3.99276 0
M  V30 398 H 37.0901 2.14383 -3.11205 0
M  V30 399 H 37.4031 3.8548 -6.69795 0
M  V30 400 H 35.7481 3.47275 -6.02018 0
M  V30 401 H 38.9391 2.58572 -3.90203 0
M  V30 402 H 39.1121 3.36613 -5.53711 0
M  V30 403 N 32.5182 1.22032 0.997298 0
M  V30 404 C 33.4512 0.929735 2.08401 0
M  V30 405 C 34.4292 -0.125681 1.62114 0
M  V30 406 O 35.6132 0.00495409 1.88499 0
M  V30 407 C 32.7402 0.397488 3.3636 0
M  V30 408 C 31.7862 1.4369 4.01566 0
M  V30 409 S 32.6192 3.00874 4.42984 0
M  V30 410 C 33.7752 2.49276 5.74119 0
M  V30 411 H 34.0082 1.84998 2.32729 0
M  V30 412 H 31.5412 1.0509 1.13117 0
M  V30 413 H 33.4992 0.0969846 4.10385 0
M  V30 414 H 32.1602 -0.501571 3.10069 0
M  V30 415 H 31.3532 1.01427 4.93689 0
M  V30 416 H 30.9552 1.68588 3.33847 0
M  V30 417 H 33.2472 1.90242 6.50242 0
M  V30 418 H 34.1902 3.39872 6.21203 0
M  V30 419 H 34.5982 1.90714 5.31308 0
M  V30 420 N 33.9963 -1.19345 1.0293 0
M  V30 421 C 34.9433 -2.2258 0.610464 0
M  V30 422 C 35.9133 -1.6179 -0.375946 0
M  V30 423 O 37.0983 -1.88844 -0.272511 0
M  V30 424 C 34.2383 -3.45085 -0.0321473 0
M  V30 425 C 33.3513 -4.20258 1.00035 0
M  V30 426 C 32.4863 -5.3019 0.32746 0
M  V30 427 C 31.5253 -5.97121 1.34584 0
M  V30 428 N 30.6623 -6.98615 0.698726 0
M  V30 429 H 35.5023 -2.57764 1.49538 0
M  V30 430 H 33.0393 -1.26644 0.748311 0
M  V30 431 H 34.9973 -4.15061 -0.421966 0
M  V30 432 H 33.6273 -3.10555 -0.88064 0
M  V30 433 H 32.6793 -3.49223 1.50823 0
M  V30 434 H 33.9913 -4.66175 1.77433 0
M  V30 435 H 33.1453 -6.06587 -0.11718 0
M  V30 436 H 31.8843 -4.85345 -0.478713 0
M  V30 437 H 30.8893 -5.19474 1.80074 0
M  V30 438 H 32.1143 -6.4405 2.15352 0
M  V30 439 H 30.0603 -6.55942 -0.0873471 0
M  V30 440 H 29.9773 -7.42724 1.41058 0
M  V30 441 H 31.2453 -7.79004 0.278102 0
M  V30 442 N 35.4744 -0.807222 -1.35358 0
M  V30 443 C 36.8854 -0.44876 -1.81226 0
M  V30 444 C 37.2364 1.02929 -1.67033 0
M  V30 445 O 36.3614 1.79991 -1.20133 0
M  V30 446 C 36.9564 -0.807774 -3.2903 0
M  V30 447 C 35.5154 -0.501901 -3.73039 0
M  V30 448 C 34.6624 -1.03304 -2.57339 0
M  V30 449 H 37.6134 -0.998808 -1.23327 0
M  V30 450 H 37.6344 -0.10554 -3.80354 0
M  V30 451 H 37.1464 -1.88357 -3.39328 0
M  V30 452 H 35.2474 0.565128 -3.68289 0
M  V30 453 H 35.3604 -1.03497 -4.67787 0
M  V30 454 H 33.7244 -0.455339 -2.50597 0
M  V30 455 H 34.5074 -2.11496 -2.70415 0
M  V30 456 N 36.9525 1.47285 -0.560781 0
M  V30 457 C 38.3685 1.58065 -0.22081 0
M  V30 458 C 38.5685 1.55892 1.27671 0
M  V30 459 O 37.6245 1.46422 2.0571 0
M  V30 460 C 38.9375 2.88418 -0.850625 0
M  V30 461 C 40.4855 3.02009 -0.822184 0
M  V30 462 C 40.9605 4.35066 -1.43113 0
M  V30 463 N 42.4515 4.41711 -1.39448 0
M  V30 464 C 43.1865 5.43237 -1.83525 0
M  V30 465 N 42.6825 6.51555 -2.35474 0
M  V30 466 N 44.4755 5.34304 -1.74574 0
M  V30 467 H 36.6265 1.46941 -1.53369 0
M  V30 468 H 38.8895 0.699558 -0.639783 0
M  V30 469 H 38.5955 2.95755 -1.9032 0
M  V30 470 H 38.4695 3.75612 -0.345773 0
M  V30 471 H 40.8565 2.94266 0.221714 0
M  V30 472 H 40.9375 2.16347 -1.36483 0
M  V30 473 H 40.5815 4.43565 -2.47412 0
M  V30 474 H 40.5115 5.19465 -0.863899 0
M  V30 475 H 43.0025 3.64027 -1.01452 0
M  V30 476 H 43.3155 7.25203 -2.67021 0
M  V30 477 H 41.6605 6.52435 -2.39487 0
M  V30 478 H 44.8515 4.48581 -1.33763 0
M  V30 479 H 45.0245 6.13288 -2.09242 0
M  V30 480 N 38.4306 0.297415 1.54768 0
M  V30 481 C 39.6556 -0.318435 2.04941 0
M  V30 482 C 40.0806 -1.4701 1.17345 0
M  V30 483 O 39.4386 -1.80436 0.176758 0
M  V30 484 C 39.4866 -0.755749 3.52592 0
M  V30 485 O 38.5906 -1.86088 3.68028 0
M  V30 486 H 37.9316 -0.062421 0.661059 0
M  V30 487 H 40.4616 0.438215 1.99852 0
M  V30 488 H 40.4716 -1.04552 3.94376 0
M  V30 489 H 39.1466 0.0867233 4.1581 0
M  V30 490 H 37.7236 -1.57193 3.38149 0
M  V30 491 N 39.9087 -1.5758 0.0250728 0
M  V30 492 C 40.8717 -2.08896 -0.943139 0
M  V30 493 C 41.8717 -1.00321 -1.25668 0
M  V30 494 O 43.0617 -1.26495 -1.19769 0
M  V30 495 C 40.1937 -2.55143 -2.26086 0
M  V30 496 H 41.3867 -2.95723 -0.498775 0
M  V30 497 H 38.9397 -1.54703 -0.222888 0
M  V30 498 H 39.6747 -1.71633 -2.75159 0
M  V30 499 H 39.4597 -3.34461 -2.04641 0
M  V30 500 H 40.9497 -2.95083 -2.95492 0
M  V30 501 N 41.3868 0.248026 -1.55636 0
M  V30 502 C 42.3498 1.29044 -1.89421 0
M  V30 503 C 43.3498 1.41134 -0.770581 0
M  V30 504 O 44.5398 1.39854 -1.03858 0
M  V30 505 C 41.6718 2.66831 -2.12165 0
M  V30 506 H 42.8648 1.00305 -2.82629 0
M  V30 507 H 40.4178 0.487265 -1.48511 0
M  V30 508 H 41.1528 3.00711 -1.21422 0
M  V30 509 H 40.9378 2.59438 -2.93997 0
M  V30 510 H 42.4278 3.42103 -2.3949 0
M  V30 511 N 42.8649 1.48995 0.513639 0
M  V30 512 C 43.8279 1.64229 1.59879 0
M  V30 513 C 44.8279 0.514696 1.5234 0
M  V30 514 O 46.0179 0.78087 1.55718 0
M  V30 515 C 43.1499 1.62783 2.99524 0
M  V30 516 H 44.3429 2.61004 1.47705 0
M  V30 517 H 41.8959 1.37837 0.736936 0
M  V30 518 H 42.6309 0.675461 3.17188 0
M  V30 519 H 42.4159 2.4466 3.06404 0
M  V30 520 H 43.9059 1.76669 3.78388 0
M  V30 521 N 44.343 -0.763751 1.37857 0
M  V30 522 C 45.568 -1.55805 1.36893 0
M  V30 523 C 45.993 -1.88054 -0.0416135 0
M  V30 524 O 45.351 -1.49825 -1.02089 0
M  V30 525 C 45.399 -2.84012 2.22192 0
M  V30 526 O 44.503 -3.78732 1.63204 0
M  V30 527 H 43.844 -0.471638 0.46739 0
M  V30 528 H 46.374 -0.944657 1.81487 0
M  V30 529 H 46.384 -3.33037 2.35691 0
M  V30 530 H 45.059 -2.59869 3.24716 0
M  V30 531 H 43.636 -3.37402 1.58791 0
M  V30 532 N 45.8211 -1.22559 -0.990812 0
M  V30 533 C 46.7511 -1.0218 -2.09956 0
M  V30 534 C 47.7321 0.0579394 -1.70001 0
M  V30 535 O 48.9171 -0.104684 -1.93918 0
M  V30 536 C 46.0471 -0.601023 -3.4206 0
M  V30 537 C 45.0011 -1.62694 -3.95872 0
M  V30 538 C 44.3271 -1.06193 -5.24049 0
M  V30 539 C 45.6271 -3.01743 -4.2632 0
M  V30 540 H 47.3211 -1.94916 -2.27262 0
M  V30 541 H 44.8671 -0.938566 -1.09211 0
M  V30 542 H 46.8201 -0.445561 -4.19038 0
M  V30 543 H 45.5441 0.362005 -3.24588 0
M  V30 544 H 44.2031 -1.77021 -3.21028 0
M  V30 545 H 43.8511 -0.0901903 -5.02919 0
M  V30 546 H 43.5511 -1.74732 -5.61019 0
M  V30 547 H 45.0751 -0.918092 -6.03658 0
M  V30 548 H 46.4891 -2.90777 -4.94087 0
M  V30 549 H 44.8861 -3.67425 -4.74467 0
M  V30 550 H 45.9561 -3.51518 -3.34011 0
M  V30 551 N 47.2992 1.18797 -1.03562 0
M  V30 552 C 48.5242 1.9314 -0.755764 0
M  V30 553 C 48.9492 1.7537 0.68022 0
M  V30 554 O 48.3072 1.06046 1.47051 0
M  V30 555 C 48.3552 3.42747 -1.12058 0
M  V30 556 O 47.4592 4.11683 -0.243124 0
M  V30 557 H 46.8002 0.602724 -0.278604 0
M  V30 558 H 49.3302 1.50678 -1.3841 0
M  V30 559 H 49.3402 3.93437 -1.08035 0
M  V30 560 H 48.0152 3.55002 -2.16672 0
M  V30 561 H 46.5922 3.71323 -0.342539 0
M  V30 562 N 48.7773 0.814389 1.34928 0
M  V30 563 C 50.0023 0.410097 2.03305 0
M  V30 564 C 50.4273 -0.973464 1.60951 0
M  V30 565 O 49.7853 -1.63185 0.789964 0
M  V30 566 C 49.8333 0.51049 3.56968 0
M  V30 567 O 48.9373 -0.473035 4.09678 0
M  V30 568 H 48.2783 0.170088 0.641846 0
M  V30 569 H 50.8083 1.10244 1.72358 0
M  V30 570 H 50.8183 0.383135 4.06197 0
M  V30 571 H 49.4933 1.51963 3.87144 0
M  V30 572 H 48.0703 -0.305272 3.71648 0
M  V30 573 N 50.2554 -1.46986 0.568584 0
M  V30 574 C 51.1884 -2.27129 -0.220779 0
M  V30 575 C 52.1664 -1.34757 -0.909905 0
M  V30 576 O 53.3504 -1.64152 -0.926622 0
M  V30 577 C 50.4774 -3.12108 -1.31553 0
M  V30 578 C 49.5234 -4.20141 -0.733748 0
M  V30 579 S 50.3564 -5.33783 0.428479 0
M  V30 580 C 51.5124 -6.22327 -0.667811 0
M  V30 581 H 51.7454 -2.93731 0.459267 0
M  V30 582 H 49.2784 -1.5026 0.355154 0
M  V30 583 H 51.2364 -3.61636 -1.94241 0
M  V30 584 H 49.8974 -2.44847 -1.96746 0
M  V30 585 H 49.0904 -4.79373 -1.5562 0
M  V30 586 H 48.6924 -3.73553 -0.182812 0
M  V30 587 H 50.9844 -6.59364 -1.55708 0
M  V30 588 H 51.9274 -7.0801 -0.11258 0
M  V30 589 H 52.3354 -5.5618 -0.965601 0
M  V30 590 N 51.7335 -0.305618 -1.54608 0
M  V30 591 C 52.6435 0.57778 -2.27374 0
M  V30 592 C 53.6595 1.14451 -1.31061 0
M  V30 593 O 54.8355 1.16831 -1.6405 0
M  V30 594 C 51.9005 1.73123 -3.00382 0
M  V30 595 C 50.9615 1.19812 -4.12242 0
M  V30 596 C 50.1945 2.2966 -4.81759 0
M  V30 597 O 50.4175 3.49651 -4.50666 0
M  V30 598 O 49.3515 1.96091 -5.69062 0
M  V30 599 H 53.1775 -0.012624 -3.03697 0
M  V30 600 H 50.7625 -0.0719184 -1.49227 0
M  V30 601 H 52.6445 2.40315 -3.4616 0
M  V30 602 H 51.3195 2.30815 -2.26949 0
M  V30 603 H 50.2265 0.491798 -3.70853 0
M  V30 604 H 51.5595 0.666566 -4.87666 0
M  V30 605 N 53.2116 1.57565 -0.0334293 0
M  V30 606 C 54.1416 2.13511 0.945265 0
M  V30 607 C 55.1226 1.05231 1.33643 0
M  V30 608 O 56.3076 1.33084 1.41429 0
M  V30 609 C 53.4376 2.6657 2.22616 0
M  V30 610 C 52.3916 3.79676 1.97561 0
M  V30 611 C 51.7176 4.1918 3.31952 0
M  V30 612 C 53.0176 5.0557 1.31135 0
M  V30 613 H 54.7116 2.95538 0.479325 0
M  V30 614 H 52.2576 1.42166 0.229115 0
M  V30 615 H 54.2106 3.04344 2.91466 0
M  V30 616 H 52.9346 1.8171 2.71384 0
M  V30 617 H 51.5936 3.42347 1.31127 0
M  V30 618 H 51.2416 3.31296 3.78487 0
M  V30 619 H 50.9416 4.95402 3.15992 0
M  V30 620 H 52.4656 4.59541 4.02063 0
M  V30 621 H 53.8796 5.40903 1.89992 0
M  V30 622 H 52.2766 5.86818 1.25559 0
M  V30 623 H 53.3466 4.84062 0.284894 0
M  V30 624 N 54.6897 -0.239769 1.55765 0
M  V30 625 C 55.9387 -0.964754 1.77131 0
M  V30 626 C 56.2517 -1.86213 0.59868 0
M  V30 627 O 57.4577 -2.6244 0.695522 0
M  V30 628 C 55.9137 -1.76552 3.1362 0
M  V30 629 C 55.5217 -0.915185 4.38553 0
M  V30 630 C 57.2657 -2.48281 3.44321 0
M  V30 631 C 55.1727 -1.71225 5.66071 0
M  V30 632 H 54.1027 -0.363953 0.660344 0
M  V30 633 H 56.7537 -0.219181 1.82186 0
M  V30 634 H 55.1357 -2.55331 3.02691 0
M  V30 635 H 56.3097 -0.169217 4.60489 0
M  V30 636 H 54.6247 -0.310889 4.15238 0
M  V30 637 H 57.2217 -3.08382 4.36812 0
M  V30 638 H 57.5647 -3.20256 2.65973 0
M  V30 639 H 58.0977 -1.76507 3.56497 0
M  V30 640 H 54.8367 -1.03612 6.4726 0
M  V30 641 H 54.3567 -2.43331 5.48224 0
M  V30 642 H 56.0357 -2.27758 6.05587 0
M  V30 643 N 56.1678 -1.49265 -0.50573 0
M  V30 644 C 57.5788 -1.51769 -1.08734 0
M  V30 645 C 57.9298 -0.301192 -1.93874 0
M  V30 646 O 57.0548 0.589456 -2.08217 0
M  V30 647 C 57.6498 -2.75017 -1.97867 0
M  V30 648 C 56.2088 -2.80314 -2.51199 0
M  V30 649 C 55.3558 -2.4562 -1.28709 0
M  V30 650 H 58.3068 -1.56031 -0.289855 0
M  V30 651 H 58.3278 -2.5491 -2.82491 0
M  V30 652 H 57.8398 -3.63539 -1.35873 0
M  V30 653 H 55.9408 -1.96061 -3.16845 0
M  V30 654 H 56.0538 -3.82366 -2.88675 0
M  V30 655 H 54.4178 -1.97297 -1.61078 0
M  V30 656 H 55.2008 -3.36411 -0.6843 0
M  V30 657 N 57.6459 0.756429 -1.3826 0
M  V30 658 C 58.8949 1.51082 -1.3363 0
M  V30 659 C 59.2079 1.95467 0.0720068 0
M  V30 660 O 60.4139 2.7043 0.240834 0
M  V30 661 C 58.8699 2.72893 -2.34644 0
M  V30 662 C 58.4779 2.35544 -3.81081 0
M  V30 663 C 60.2219 3.50791 -2.39052 0
M  V30 664 C 58.1289 3.53948 -4.73787 0
M  V30 665 H 57.0589 0.56727 -0.49671 0
M  V30 666 H 59.7099 0.827147 -1.638 0
M  V30 667 H 58.0919 3.43227 -1.97513 0
M  V30 668 H 59.2659 1.72894 -4.27135 0
M  V30 669 H 57.5809 1.70786 -3.79764 0
M  V30 670 H 60.1779 4.38823 -3.05513 0
M  V30 671 H 60.5209 3.91745 -1.40861 0
M  V30 672 H 61.0539 2.87467 -2.74968 0
M  V30 673 H 57.7929 3.18064 -5.73163 0
M  V30 674 H 57.3129 4.15651 -4.32428 0
M  V30 675 H 58.9919 4.20566 -4.91663 0
M  V30 676 N 59.124 1.23083 0.984299 0
M  V30 677 C 60.034 1.02515 2.11016 0
M  V30 678 C 61.05 -0.0291702 1.73976 0
M  V30 679 O 62.226 0.165434 2.00719 0
M  V30 680 C 59.291 0.614673 3.41208 0
M  V30 681 C 58.352 1.74359 3.92297 0
M  V30 682 C 57.585 1.35261 5.16275 0
M  V30 683 O 57.808 0.235136 5.69915 0
M  V30 684 O 56.742 2.17227 5.61334 0
M  V30 685 H 60.568 1.96862 2.31255 0
M  V30 686 H 58.153 1.01753 1.09392 0
M  V30 687 H 60.035 0.396518 4.1953 0
M  V30 688 H 58.71 -0.299851 3.22308 0
M  V30 689 H 57.617 2.01635 3.1511 0
M  V30 690 H 58.95 2.63629 4.15645 0
M  V30 691 N 60.6021 -1.18246 1.0419 0
M  V30 692 C 61.8491 -1.88257 0.746017 0
M  V30 693 C 62.1771 -1.80429 -0.726331 0
M  V30 694 O 61.4321 -1.2 -1.54591 0
M  V30 695 C 61.7311 -3.38082 1.15911 0
M  V30 696 C 61.3971 -3.66114 2.63195 0
M  V30 697 C 60.0591 -3.73474 3.03432 0
M  V30 698 C 62.4111 -3.78398 3.5842 0
M  V30 699 C 59.7391 -3.90599 4.37778 0
M  V30 700 C 62.0911 -3.97039 4.92487 0
M  V30 701 C 60.7551 -4.02635 5.32392 0
M  V30 702 H 60.0251 -0.688883 0.272987 0
M  V30 703 H 62.6721 -1.3995 1.30715 0
M  V30 704 H 60.9771 -3.88377 0.516806 0
M  V30 705 H 62.6741 -3.90596 0.907516 0
M  V30 706 H 59.2641 -3.61003 2.3103 0
M  V30 707 H 63.4481 -3.72042 3.28479 0
M  V30 708 H 58.7041 -3.93175 4.68213 0
M  V30 709 H 62.8781 -4.05486 5.66175 0
M  V30 710 H 60.5051 -4.15657 6.36501 0
M  V30 711 N 62.0802 -0.821533 -1.34494 0
M  V30 712 C 63.3262 -0.409552 -1.98622 0
M  V30 713 C 63.6592 1.0244 -1.64984 0
M  V30 714 O 62.9342 1.71325 -0.920758 0
M  V30 715 C 63.2172 -0.610458 -3.54888 0
M  V30 716 C 63.0702 -2.09043 -3.98273 0
M  V30 717 C 64.3892 -0.0455379 -4.40076 0
M  V30 718 H 61.5082 -0.15028 -0.721516 0
M  V30 719 H 64.1502 -1.03384 -1.59411 0
M  V30 720 H 62.3002 -0.079044 -3.8842 0
M  V30 721 H 63.9722 -2.68537 -3.75081 0
M  V30 722 H 62.2152 -2.58139 -3.48635 0
M  V30 723 H 62.8862 -2.18182 -5.07051 0
M  V30 724 H 65.3622 -0.499557 -4.1309 0
M  V30 725 H 64.2382 -0.215922 -5.48475 0
M  V30 726 H 64.4992 1.04939 -4.29465 0
M  V30 727 N 63.5583 1.46682 -0.576371 0
M  V30 728 C 64.4883 2.33028 0.148397 0
M  V30 729 C 65.4693 1.44961 0.889956 0
M  V30 730 O 66.6543 1.73789 0.866662 0
M  V30 731 C 63.7843 3.27117 1.1667 0
M  V30 732 C 62.7383 4.24575 0.540386 0
M  V30 733 C 62.0643 5.08126 1.6647 0
M  V30 734 C 63.3643 5.19722 -0.518331 0
M  V30 735 H 65.0583 2.93875 -0.572509 0
M  V30 736 H 62.6043 1.41315 -0.276768 0
M  V30 737 H 64.5573 3.86374 1.68204 0
M  V30 738 H 63.2813 2.64364 1.9178 0
M  V30 739 H 61.9403 3.66571 0.0461769 0
M  V30 740 H 61.5883 4.41762 2.40531 0
M  V30 741 H 61.2883 5.74122 1.25131 0
M  V30 742 H 62.8123 5.70246 2.18293 0
M  V30 743 H 64.2263 5.73232 -0.0883058 0
M  V30 744 H 62.6233 5.94026 -0.851679 0
M  V30 745 H 63.6933 4.64037 -1.40703 0
M  V30 746 N 65.0364 0.313813 1.54444 0
M  V30 747 C 66.4474 -0.176243 1.85866 0
M  V30 748 C 66.7984 -1.52405 1.23561 0
M  V30 749 O 65.9234 -2.09605 0.538016 0
M  V30 750 C 66.5184 -0.32657 3.37222 0
M  V30 751 C 65.0774 -0.760846 3.6863 0
M  V30 752 C 64.2244 0.123247 2.77026 0
M  V30 753 H 67.1754 0.534418 1.49431 0
M  V30 754 H 67.1964 -1.15908 3.62416 0
M  V30 755 H 66.7084 0.654531 3.82541 0
M  V30 756 H 64.8094 -1.75204 3.28838 0
M  V30 757 H 64.9224 -0.571353 4.75681 0
M  V30 758 H 63.2864 -0.399597 2.51546 0
M  V30 759 H 64.0694 1.10094 3.25168 0
M  V30 760 N 66.5145 -1.57545 0.0417849 0
M  V30 761 C 67.7425 -1.96624 -0.643928 0
M  V30 762 C 68.1575 -0.918897 -1.64929 0
M  V30 763 O 67.5145 0.0979323 -1.82237 0
M  V30 764 C 67.5655 -3.35781 -1.33914 0
M  V30 765 O 67.2865 -4.365 -0.374048 0
M  V30 766 C 68.7875 -3.89566 -2.1155 0
M  V30 767 H 66.0075 -0.647316 -0.176702 0
M  V30 768 H 68.5515 -2.04229 0.105304 0
M  V30 769 H 66.7065 -3.29357 -2.03968 0
M  V30 770 H 67.1205 -5.17248 -0.869179 0
M  V30 771 H 68.5945 -4.89242 -2.55628 0
M  V30 772 H 69.0715 -3.24488 -2.9598 0
M  V30 773 H 69.6775 -3.99298 -1.46427 0
M  V30 774 N 67.9926 0.231505 -1.5589 0
M  V30 775 C 69.2176 0.978689 -1.82856 0
M  V30 776 C 69.6426 1.77559 -0.620846 0
M  V30 777 O 69.0006 1.76119 0.430305 0
M  V30 778 C 69.0486 1.87997 -3.07716 0
M  V30 779 O 68.1526 2.97393 -2.85712 0
M  V30 780 H 67.4936 0.277663 -0.603158 0
M  V30 781 H 70.0236 0.24783 -2.03093 0
M  V30 782 H 70.0336 2.2917 -3.37558 0
M  V30 783 H 68.7086 1.29417 -3.95252 0
M  V30 784 H 67.2856 2.60238 -2.67078 0
M  V30 785 N 69.4707 1.49531 0.497807 0
M  V30 786 C 70.4027 1.62559 1.61578 0
M  V30 787 C 71.4157 0.508134 1.54667 0
M  V30 788 O 72.6047 0.780309 1.60541 0
M  V30 789 C 69.7047 1.56925 3.00379 0
M  V30 790 C 68.8777 2.84257 3.3244 0
M  V30 791 C 67.9367 2.71632 4.50669 0
M  V30 792 O 66.9627 3.4557 4.52294 0
M  V30 793 N 68.1647 1.83391 5.5077 0
M  V30 794 H 70.9297 2.58981 1.50828 0
M  V30 795 H 68.4907 1.4666 0.685743 0
M  V30 796 H 70.4827 1.46129 3.77397 0
M  V30 797 H 69.0527 0.683483 3.05037 0
M  V30 798 H 68.2727 3.09381 2.44289 0
M  V30 799 H 69.5607 3.68666 3.5066 0
M  V30 800 H 68.9587 1.22583 5.52259 0
M  V30 801 H 67.5157 1.78515 6.26878 0
M  V30 802 N 70.9488 -0.749086 1.3866 0
M  V30 803 C 72.3648 -1.05276 1.19955 0
M  V30 804 C 72.5648 -2.01435 0.05134 0
M  V30 805 O 71.6208 -2.45232 -0.60147 0
M  V30 806 C 72.9338 -1.62853 2.52783 0
M  V30 807 C 74.4818 -1.75002 2.59506 0
M  V30 808 C 74.9568 -2.35991 3.92521 0
M  V30 809 N 76.4478 -2.43416 3.94085 0
M  V30 810 C 77.1828 -2.91511 4.9377 0
M  V30 811 N 76.6788 -3.39608 6.03853 0
M  V30 812 N 78.4718 -2.90592 4.81157 0
M  V30 813 H 70.6228 -0.111066 2.12109 0
M  V30 814 H 72.8858 -0.111901 0.941373 0
M  V30 815 H 72.5918 -0.99664 3.37283 0
M  V30 816 H 72.4658 -2.61854 2.715 0
M  V30 817 H 74.8528 -2.37317 1.75398 0
M  V30 818 H 74.9338 -0.74693 2.44652 0
M  V30 819 H 74.5778 -1.74308 4.77053 0
M  V30 820 H 74.5078 -3.3695 4.04688 0
M  V30 821 H 76.9988 -2.09405 3.14576 0
M  V30 822 H 77.3118 -3.74775 6.75843 0
M  V30 823 H 75.6568 -3.37653 6.07466 0
M  V30 824 H 78.8478 -2.52332 3.94267 0
M  V30 825 H 79.0208 -3.27762 5.58996 0
M  V30 826 N 72.4269 -1.23603 -0.977757 0
M  V30 827 C 73.3739 -1.01954 -2.07061 0
M  V30 828 C 74.3439 0.0638697 -1.65977 0
M  V30 829 O 75.5289 -0.0887624 -1.90593 0
M  V30 830 C 72.6689 -0.619658 -3.39491 0
M  V30 831 C 71.7819 -1.77547 -3.93829 0
M  V30 832 C 70.9169 -1.32212 -5.14484 0
M  V30 833 C 69.9559 -2.44852 -5.60994 0
M  V30 834 N 69.0929 -2.00456 -6.72876 0
M  V30 835 H 73.9329 -1.95495 -2.24913 0
M  V30 836 H 71.4699 -0.973861 -1.10247 0
M  V30 837 H 73.4279 -0.368898 -4.15566 0
M  V30 838 H 72.0579 0.278752 -3.21594 0
M  V30 839 H 71.1099 -2.14016 -3.14486 0
M  V30 840 H 72.4219 -2.62219 -4.24314 0
M  V30 841 H 71.5759 -1.02965 -5.97899 0
M  V30 842 H 70.3149 -0.445808 -4.85658 0
M  V30 843 H 69.3199 -2.74871 -4.76157 0
M  V30 844 H 70.5449 -3.33024 -5.91837 0
M  V30 845 H 68.4909 -1.15208 -6.45804 0
M  V30 846 H 68.4079 -2.78687 -7.02759 0
M  V30 847 H 69.6759 -1.7432 -7.59758 0
M  V30 848 N 73.905 1.17692 -1.04816 0
M  V30 849 C 75.145 1.89545 -0.764979 0
M  V30 850 C 75.509 1.78979 0.695028 0
M  V30 851 O 76.71 2.45613 1.09215 0
M  V30 852 C 74.981 3.35659 -1.22751 0
M  V30 853 S 76.54 4.25526 -1.07112 0
M  V30 854 H 73.358 0.654432 -0.27792 0
M  V30 855 H 75.96 1.42163 -1.34201 0
M  V30 856 H 74.664 3.40882 -2.28533 0
M  V30 857 H 74.195 3.88083 -0.644594 0
M  V30 858 H 76.21 4.962 0.00697508 0
M  V30 859 N 75.3831 0.828654 1.34056 0
M  V30 860 C 76.3301 0.252567 2.29414 0
M  V30 861 C 77.3001 -0.62588 1.53857 0
M  V30 862 O 78.4851 -0.566312 1.82202 0
M  V30 863 C 75.6251 -0.574831 3.40279 0
M  V30 864 C 74.7381 0.326499 4.30764 0
M  V30 865 C 73.8731 -0.511016 5.28736 0
M  V30 866 C 72.9121 0.389342 6.1086 0
M  V30 867 N 72.0491 -0.409439 7.00905 0
M  V30 868 H 76.8891 1.07108 2.78086 0
M  V30 869 H 74.4261 0.539677 1.36843 0
M  V30 870 H 76.3841 -1.06992 4.03248 0
M  V30 871 H 75.0141 -1.35841 2.92826 0
M  V30 872 H 74.0661 0.939837 3.68607 0
M  V30 873 H 75.3781 1.01857 4.88289 0
M  V30 874 H 74.5321 -1.07035 5.97184 0
M  V30 875 H 73.2711 -1.23657 4.71763 0
M  V30 876 H 72.2761 0.960769 5.4134 0
M  V30 877 H 73.5011 1.1131 6.69916 0
M  V30 878 H 71.4471 -1.11856 6.46393 0
M  V30 879 H 71.3641 0.224126 7.55668 0
M  V30 880 H 72.6321 -0.951336 7.73673 0
M  V30 881 N 76.8612 -1.46375 0.584142 0
M  V30 882 C 78.0862 -2.07268 0.0740405 0
M  V30 883 C 78.5112 -1.42979 -1.22223 0
M  V30 884 O 77.8692 -0.514092 -1.73859 0
M  V30 885 C 77.9172 -3.60518 -0.0767769 0
M  V30 886 O 77.0212 -3.96533 -1.13292 0
M  V30 887 H 76.3622 -0.660961 0.0634524 0
M  V30 888 H 78.8922 -1.87991 0.807492 0
M  V30 889 H 78.9022 -4.07021 -0.282489 0
M  V30 890 H 77.5772 -4.06702 0.86986 0
M  V30 891 H 76.1542 -3.61738 -0.905553 0
M  V30 892 N 78.3393 -0.321999 -1.54275 0
M  V30 893 C 79.7503 0.166384 -1.85957 0
M  V30 894 C 80.1013 1.51747 -1.24367 0
M  V30 895 O 79.2263 2.09317 -0.549124 0
M  V30 896 C 79.8213 0.308681 -3.37391 0
M  V30 897 C 78.3803 0.741286 -3.69028 0
M  V30 898 C 77.5273 -0.137937 -2.76957 0
M  V30 899 H 80.4783 -0.542335 -1.49146 0
M  V30 900 H 80.4993 1.13984 -3.63026 0
M  V30 901 H 80.0113 -0.674809 -3.82188 0
M  V30 902 H 78.1123 1.73458 -3.29762 0
M  V30 903 H 78.2253 0.546118 -4.75977 0
M  V30 904 H 76.5893 0.386251 -2.51754 0
M  V30 905 H 77.3723 -1.11816 -3.2458 0
M  V30 906 N 79.8174 1.5752 -0.0501392 0
M  V30 907 C 80.7274 2.14952 0.939827 0
M  V30 908 C 81.7434 1.10706 1.34239 0
M  V30 909 O 82.9194 1.42869 1.41952 0
M  V30 910 C 79.9844 2.68232 2.19665 0
M  V30 911 C 79.0454 3.87272 1.85253 0
M  V30 912 C 78.2784 4.38002 3.04943 0
M  V30 913 O 78.5014 3.87811 4.18281 0
M  V30 914 O 77.4354 5.29602 2.86017 0
M  V30 915 H 81.2614 2.9986 0.481392 0
M  V30 916 H 78.8464 1.4841 0.171699 0
M  V30 917 H 80.7284 3.02475 2.93406 0
M  V30 918 H 79.4034 1.86395 2.64648 0
M  V30 919 H 78.3104 3.5792 1.0883 0
M  V30 920 H 79.6434 4.70336 1.4507 0
M  V30 921 N 81.2955 -0.223234 1.56011 0
M  V30 922 C 82.5235 -0.964812 1.83027 0
M  V30 923 C 82.9385 -1.78013 0.62904 0
M  V30 924 O 82.2955 -1.78008 -0.402414 0
M  V30 925 C 82.3465 -1.88373 3.08542 0
M  V30 926 O 82.0675 -1.10137 4.2403 0
M  V30 927 C 83.5685 -2.73934 3.48533 0
M  V30 928 H 80.7885 -0.282842 0.608475 0
M  V30 929 H 83.3325 -0.238971 2.03099 0
M  V30 930 H 81.4875 -2.56354 2.9045 0
M  V30 931 H 81.9015 -1.72501 4.95322 0
M  V30 932 H 83.3755 -3.34117 4.39397 0
M  V30 933 H 83.8525 -3.46244 2.70207 0
M  V30 934 H 84.4585 -2.11369 3.69057 0
M  V30 935 N 82.7736 -1.49793 -0.48987 0
M  V30 936 C 83.7366 -1.66752 -1.57246 0
M  V30 937 C 84.7366 -0.538867 -1.51502 0
M  V30 938 O 85.9266 -0.805545 -1.54456 0
M  V30 939 C 83.0586 -1.67528 -2.96896 0
M  V30 940 H 84.2516 -2.63321 -1.43534 0
M  V30 941 H 81.8046 -1.38992 -0.714914 0
M  V30 942 H 82.5396 -0.725837 -3.16073 0
M  V30 943 H 82.3246 -2.49504 -3.02473 0
M  V30 944 H 83.8146 -1.82667 -3.7553 0
M  V30 945 N 84.2517 0.741722 -1.39055 0
M  V30 946 C 85.1817 1.869 -1.39966 0
M  V30 947 C 86.1627 1.6804 -0.26392 0
M  V30 948 O 87.3477 1.88458 -0.468755 0
M  V30 949 C 84.4777 3.24572 -1.23574 0
M  V30 950 C 83.4317 3.58056 -2.34477 0
M  V30 951 C 82.7577 4.94593 -2.0318 0
M  V30 952 C 84.0577 3.61716 -3.76774 0
M  V30 953 H 85.7517 1.86395 -2.34302 0
M  V30 954 H 83.2977 0.895361 -1.1278 0
M  V30 955 H 85.2507 4.031 -1.22834 0
M  V30 956 H 83.9747 3.25587 -0.257045 0
M  V30 957 H 82.6337 2.81854 -2.34423 0
M  V30 958 H 82.2817 4.92181 -1.03765 0
M  V30 959 H 81.9817 5.17964 -2.77465 0
M  V30 960 H 83.5057 5.75486 -2.04079 0
M  V30 961 H 84.9197 4.30335 -3.78794 0
M  V30 962 H 83.3167 3.96603 -4.50362 0
M  V30 963 H 84.3867 2.61672 -4.08235 0
M  V30 964 N 85.7298 1.2412 0.971189 0
M  V30 965 C 86.6598 1.05508 2.08304 0
M  V30 966 C 87.6408 -0.0308864 1.70072 0
M  V30 967 O 88.8258 0.135521 1.93727 0
M  V30 968 C 85.9558 0.655365 3.4106 0
M  V30 969 C 84.9098 1.68971 3.93234 0
M  V30 970 C 84.2358 1.14516 5.22293 0
M  V30 971 C 85.5358 3.08487 4.21465 0
M  V30 972 H 87.2298 1.98507 2.24132 0
M  V30 973 H 84.7758 0.955821 1.07704 0
M  V30 974 H 86.7288 0.51217 4.18276 0
M  V30 975 H 85.4528 -0.31032 3.25122 0
M  V30 976 H 84.1118 1.82106 3.18171 0
M  V30 977 H 83.7598 0.170189 5.02712 0
M  V30 978 H 83.4598 1.83635 5.58168 0
M  V30 979 H 84.9838 1.01401 6.02121 0
M  V30 980 H 86.3978 2.98601 4.89398 0
M  V30 981 H 84.7948 3.74926 4.68562 0
M  V30 982 H 85.8648 3.56787 3.28376 0
M  V30 983 N 87.2079 -1.17134 1.05439 0
M  V30 984 C 88.1579 -2.1919 0.627675 0
M  V30 985 C 89.1419 -1.57328 -0.337147 0
M  V30 986 O 90.3339 -1.76329 -0.153976 0
M  V30 987 C 87.4629 -3.43299 0.00651435 0
M  V30 988 C 86.5489 -4.12255 0.995312 0
M  V30 989 N 86.9399 -4.56997 2.16765 0
M  V30 990 C 85.2379 -4.38316 0.824336 0
M  V30 991 C 85.9389 -5.10239 2.7934 0
M  V30 992 N 84.9149 -5.02595 2.07122 0
M  V30 993 H 88.7169 -2.5149 1.52086 0
M  V30 994 H 86.2309 -1.33491 0.924868 0
M  V30 995 H 88.2279 -4.15693 -0.316965 0
M  V30 996 H 86.8879 -3.1249 -0.882033 0
M  V30 997 H 87.8989 -4.51006 2.54587 0
M  V30 998 H 84.5759 -4.17498 -0.0129526 0
M  V30 999 H 85.9659 -5.54961 3.78772 0
M  V30 1000 N 88.686 -0.835752 -1.33615 0
M  V30 1001 C 89.932 -0.430596 -1.98176 0
M  V30 1002 C 90.265 1.00684 -1.66061 0
M  V30 1003 O 89.54 1.70339 -0.938877 0
M  V30 1004 C 89.823 -0.648065 -3.5422 0
M  V30 1005 C 89.676 -2.13255 -3.96033 0
M  V30 1006 C 90.995 -0.0922113 -4.40003 0
M  V30 1007 H 88.114 -0.157924 -0.719881 0
M  V30 1008 H 90.756 -1.05069 -1.58305 0
M  V30 1009 H 88.906 -0.120237 -3.88314 0
M  V30 1010 H 90.578 -2.725 -3.72211 0
M  V30 1011 H 88.821 -2.61823 -3.45878 0
M  V30 1012 H 89.492 -2.23547 -5.04708 0
M  V30 1013 H 91.968 -0.543343 -4.12537 0
M  V30 1014 H 90.844 -0.274083 -5.48215 0
M  V30 1015 H 91.105 1.00378 -4.30554 0
M  V30 1016 N 90.1641 1.46063 -0.591896 0
M  V30 1017 C 91.1271 2.28854 0.125973 0
M  V30 1018 C 92.1271 1.38903 0.810107 0
M  V30 1019 O 93.3171 1.61186 0.66066 0
M  V30 1020 C 90.4491 3.19526 1.1881 0
M  V30 1021 H 91.6421 2.93802 -0.601717 0
M  V30 1022 H 89.1951 1.52325 -0.350254 0
M  V30 1023 H 89.9301 2.59345 1.94707 0
M  V30 1024 H 89.7151 3.85766 0.701936 0
M  V30 1025 H 91.2051 3.81817 1.69132 0
M  V30 1026 N 91.6422 0.330177 1.54103 0
M  V30 1027 C 92.8902 -0.269871 2.0029 0
M  V30 1028 C 93.2112 -1.52133 1.21986 0
M  V30 1029 O 92.4812 -1.93212 0.323438 0
M  V30 1030 H 91.0612 -0.10271 0.739905 0
M  V30 1031 H 93.7232 0.448249 1.89675 0
M  V30 1032 H 92.8192 -0.52166 3.07709 0
M  V30 1033 N 93.1203 -1.57491 0.0584922 0
M  V30 1034 C 94.0703 -2.08474 -0.923188 0
M  V30 1035 C 95.0543 -0.991479 -1.26722 0
M  V30 1036 O 96.2463 -1.25473 -1.24842 0
M  V30 1037 C 93.3753 -2.6392 -2.19548 0
M  V30 1038 C 92.4613 -3.80227 -1.87852 0
M  V30 1039 N 92.8523 -4.89714 -1.26546 0
M  V30 1040 C 91.1503 -3.89271 -2.17679 0
M  V30 1041 C 91.8513 -5.70689 -1.12644 0
M  V30 1042 N 90.8273 -5.18531 -1.63176 0
M  V30 1043 H 94.6293 -2.90517 -0.444653 0
M  V30 1044 H 92.1433 -1.61745 -0.145764 0
M  V30 1045 H 94.1403 -2.98752 -2.9078 0
M  V30 1046 H 92.8003 -1.83318 -2.68001 0
M  V30 1047 H 93.8113 -5.09358 -0.936757 0
M  V30 1048 H 90.4883 -3.19623 -2.68602 0
M  V30 1049 H 91.8783 -6.6875 -0.6499 0
M  V30 1050 N 94.5984 0.214957 -1.56127 0
M  V30 1051 C 95.8464 0.936518 -1.79091 0
M  V30 1052 C 96.1674 1.84606 -0.628148 0
M  V30 1053 O 95.4374 1.92664 0.35462 0
M  V30 1054 H 94.0174 0.3488 -0.660566 0
M  V30 1055 H 96.6794 0.22523 -1.93594 0
M  V30 1056 H 95.7754 1.53943 -2.71492 0
M  V30 1057 N 96.0765 1.50051 0.48192 0
M  V30 1058 C 97.0245 1.68635 1.60203 0
M  V30 1059 C 98.0185 0.552184 1.60148 0
M  V30 1060 O 99.2245 0.732377 1.64427 0
M  V30 1061 H 95.5995 0.532081 0.531407 0
M  V30 1062 H 97.5705 2.62616 1.41688 0
M  V30 1063 C 96.3195 1.78775 2.9822 0
M  V30 1064 H 95.6425 2.6543 2.98976 0
M  V30 1065 H 97.0825 1.95806 3.7608 0
M  V30 1066 C 95.5415 0.536849 3.32595 0
M  V30 1067 O 96.0715 -0.328897 4.00351 0
M  V30 1068 N 94.2775 0.394091 2.87915 0
M  V30 1069 H 93.8245 1.09962 2.32951 0
M  V30 1070 H 93.7825 -0.441737 3.11281 0
M  V30 1071 N 97.5546 -0.734337 1.39446 0
M  V30 1072 C 98.8006 -1.49613 1.36908 0
M  V30 1073 C 99.1336 -1.94169 -0.0347829 0
M  V30 1074 O 98.4086 -1.66833 -0.999847 0
M  V30 1075 C 98.6916 -2.73534 2.34203 0
M  V30 1076 C 98.5446 -2.34993 3.83534 0
M  V30 1077 C 99.8636 -3.75635 2.29317 0
M  V30 1078 H 96.9826 -0.542714 0.498629 0
M  V30 1079 H 99.6246 -0.839597 1.70443 0
M  V30 1080 H 97.7746 -3.29553 2.05736 0
M  V30 1081 H 99.4466 -1.84601 4.22753 0
M  V30 1082 H 97.6896 -1.67213 4.00278 0
M  V30 1083 H 98.3606 -3.23738 4.47099 0
M  V30 1084 H 100.837 -3.29203 2.54489 0
M  V30 1085 H 99.7126 -4.60008 2.99472 0
M  V30 1086 H 99.9736 -4.22603 1.29842 0
M  V30 1087 N 99.0327 -1.24633 -0.964593 0
M  V30 1088 C 99.9427 -1.05859 -2.09359 0
M  V30 1089 C 100.959 0.00148855 -1.74 0
M  V30 1090 O 102.135 -0.197346 -2.00431 0
M  V30 1091 C 99.1997 -0.668879 -3.40187 0
M  V30 1092 C 98.2607 -1.80578 -3.89474 0
M  V30 1093 C 97.4937 -1.43457 -5.14058 0
M  V30 1094 O 97.7167 -0.325775 -5.69469 0
M  V30 1095 O 96.6507 -2.2613 -5.57807 0
M  V30 1096 H 100.477 -2.00516 -2.28094 0
M  V30 1097 H 98.0617 -1.03481 -1.0776 0
M  V30 1098 H 99.9437 -0.463211 -4.18846 0
M  V30 1099 H 98.6187 0.248536 -3.22744 0
M  V30 1100 H 97.5257 -2.06623 -3.11862 0
M  V30 1101 H 98.8587 -2.70208 -4.11398 0
M  V30 1102 N 100.511 1.16574 -1.06058 0
M  V30 1103 C 101.443 2.2045 -0.627239 0
M  V30 1104 C 102.456 1.59752 0.313534 0
M  V30 1105 O 103.645 1.78192 0.104896 0
M  V30 1106 C 100.745 3.3875 0.100974 0
M  V30 1107 C 99.9178 4.29008 -0.852687 0
M  V30 1108 C 98.9768 5.25944 -0.164152 0
M  V30 1109 O 98.0028 5.63535 -0.801047 0
M  V30 1110 N 99.2048 5.70075 1.09518 0
M  V30 1111 H 101.97 2.58249 -1.52077 0
M  V30 1112 H 99.5308 1.3156 -0.943594 0
M  V30 1113 H 101.523 4.00638 0.57194 0
M  V30 1114 H 100.093 2.99476 0.89628 0
M  V30 1115 H 99.3128 3.64419 -1.50308 0
M  V30 1116 H 100.601 4.86195 -1.49972 0
M  V30 1117 H 99.9988 5.41624 1.6328 0
M  V30 1118 H 98.5558 6.34067 1.51006 0
M  V30 1119 N 101.989 0.842826 1.3317 0
M  V30 1120 C 102.922 0.223862 2.27099 0
M  V30 1121 C 103.9 -0.631311 1.49844 0
M  V30 1122 O 105.084 -0.590708 1.79005 0
M  V30 1123 C 102.211 -0.685313 3.31694 0
M  V30 1124 C 101.257 0.094919 4.26394 0
M  V30 1125 S 102.09 1.45546 5.15341 0
M  V30 1126 C 103.246 0.551685 6.23464 0
M  V30 1127 H 103.479 1.02015 2.79249 0
M  V30 1128 H 101.012 0.639797 1.4052 0
M  V30 1129 H 102.97 -1.20426 3.92438 0
M  V30 1130 H 101.631 -1.4553 2.78352 0
M  V30 1131 H 100.824 -0.597059 5.00451 0
M  V30 1132 H 100.426 0.545054 3.70007 0
M  V30 1133 H 102.718 -0.248877 6.77043 0
M  V30 1134 H 103.661 1.26253 6.96754 0
M  V30 1135 H 104.069 0.131275 5.64347 0
M  V30 1136 N 103.467 -1.45747 0.599634 0
M  V30 1137 C 104.414 -2.30467 -0.123849 0
M  V30 1138 C 105.384 -1.41632 -0.86774 0
M  V30 1139 O 106.569 -1.70568 -0.855056 0
M  V30 1140 C 103.709 -3.26402 -1.12051 0
M  V30 1141 C 102.822 -4.3034 -0.37832 0
M  V30 1142 C 101.957 -5.13389 -1.364 0
M  V30 1143 C 100.996 -6.09061 -0.609171 0
M  V30 1144 N 100.133 -6.84918 -1.54374 0
M  V30 1145 H 104.973 -2.91802 0.604627 0
M  V30 1146 H 102.51 -1.43797 0.309972 0
M  V30 1147 H 104.468 -3.80482 -1.7114 0
M  V30 1148 H 103.098 -2.66839 -1.8165 0
M  V30 1149 H 102.15 -3.78984 0.327929 0
M  V30 1150 H 103.462 -4.98354 0.210997 0
M  V30 1151 H 102.616 -5.7183 -2.02719 0
M  V30 1152 H 101.355 -4.45376 -1.98725 0
M  V30 1153 H 100.36 -5.49758 0.0676979 0
M  V30 1154 H 101.585 -6.79099 0.00891991 0
M  V30 1155 H 99.531 -6.19601 -2.15478 0
M  V30 1156 H 99.448 -7.49254 -1.00766 0
M  V30 1157 H 100.716 -7.47906 -2.19676 0
M  V30 1158 N 104.945 -0.338344 -1.53925 0
M  V30 1159 C 105.908 0.508299 -2.23493 0
M  V30 1160 C 106.908 1.03175 -1.23335 0
M  V30 1161 O 108.098 0.921826 -1.47811 0
M  V30 1162 C 105.23 1.70754 -2.95052 0
M  V30 1163 H 106.423 -0.100058 -2.99733 0
M  V30 1164 H 103.976 -0.0896198 -1.56043 0
M  V30 1165 H 104.711 2.35474 -2.22986 0
M  V30 1166 H 104.496 1.33946 -3.68512 0
M  V30 1167 H 105.986 2.30818 -3.48013 0
M  V30 1168 N 106.423 1.57458 -0.0668435 0
M  V30 1169 C 107.355 2.09413 0.931601 0
M  V30 1170 C 108.368 1.02522 1.26464 0
M  V30 1171 O 109.557 1.30049 1.22269 0
M  V30 1172 C 106.657 2.53537 2.24882 0
M  V30 1173 C 105.83 3.83944 2.09537 0
M  V30 1174 C 104.889 4.14214 3.2452 0
M  V30 1175 O 103.915 4.83891 2.9973 0
M  V30 1176 N 105.117 3.67367 4.49469 0
M  V30 1177 H 107.882 2.95699 0.488048 0
M  V30 1178 H 105.443 1.61462 0.119009 0
M  V30 1179 H 107.435 2.70853 3.00701 0
M  V30 1180 H 106.005 1.72415 2.60753 0
M  V30 1181 H 105.225 3.76057 1.18215 0
M  V30 1182 H 106.513 4.69312 1.96529 0
M  V30 1183 H 105.911 3.11068 4.72497 0
M  V30 1184 H 104.468 3.89891 5.2233 0
M  V30 1185 N 107.901 -0.206675 1.56239 0
M  V30 1186 C 109.147 -0.930218 1.80208 0
M  V30 1187 C 109.48 -1.83387 0.638981 0
M  V30 1188 O 108.755 -1.91119 -0.361066 0
M  V30 1189 C 109.038 -1.75641 3.1436 0
M  V30 1190 C 108.891 -0.878257 4.41142 0
M  V30 1191 C 110.21 -2.73129 3.45092 0
M  V30 1192 H 107.329 -0.336742 0.655571 0
M  V30 1193 H 109.971 -0.198222 1.88963 0
M  V30 1194 H 108.121 -2.38048 3.07027 0
M  V30 1195 H 109.793 -0.269787 4.6051 0
M  V30 1196 H 108.036 -0.184385 4.33408 0
M  V30 1197 H 108.707 -1.49106 5.3148 0
M  V30 1198 H 111.183 -2.20856 3.52649 0
M  V30 1199 H 110.059 -3.28028 4.40101 0
M  V30 1200 H 110.32 -3.51606 2.68003 0
M  V30 1201 N 109.379 -1.50304 -0.473955 0
M  V30 1202 C 110.625 -1.62358 -1.22521 0
M  V30 1203 C 110.98 -0.318555 -1.89745 0
M  V30 1204 O 110.273 0.683315 -1.79001 0
M  V30 1205 C 110.467 -2.73938 -2.29549 0
M  V30 1206 C 110.296 -4.15165 -1.72825 0
M  V30 1207 C 109.066 -4.81604 -1.52924 0
M  V30 1208 C 111.264 -4.99503 -1.22481 0
M  V30 1209 N 109.246 -6.07056 -0.91413 0
M  V30 1210 C 110.617 -6.15655 -0.732743 0
M  V30 1211 C 112.672 -4.85299 -1.11308 0
M  V30 1212 C 111.375 -7.19164 -0.139976 0
M  V30 1213 C 113.401 -5.88982 -0.534258 0
M  V30 1214 C 112.763 -7.0438 -0.0525562 0
M  V30 1215 H 108.862 -0.648286 -0.437321 0
M  V30 1216 H 111.446 -1.87413 -0.527692 0
M  V30 1217 H 109.617 -2.50611 -2.9673 0
M  V30 1218 H 111.349 -2.75366 -2.96573 0
M  V30 1219 H 108.104 -4.3885 -1.78067 0
M  V30 1220 H 108.528 -6.74108 -0.625071 0
M  V30 1221 H 113.17 -3.96369 -1.47144 0
M  V30 1222 H 110.888 -8.07771 0.230591 0
M  V30 1223 H 114.474 -5.80055 -0.450219 0
M  V30 1224 H 113.354 -7.83238 0.388324 0
M  V30 1225 N 110.857 0.726932 -1.39834 0
M  V30 1226 C 111.787 1.85405 -1.41941 0
M  V30 1227 C 112.768 1.67751 -0.281728 0
M  V30 1228 O 113.953 1.8795 -0.488717 0
M  V30 1229 C 111.083 3.23243 -1.2701 0
M  V30 1230 C 110.037 3.55549 -2.38262 0
M  V30 1231 C 109.363 4.9241 -2.08415 0
M  V30 1232 C 110.663 3.577 -3.80589 0
M  V30 1233 H 112.357 1.83899 -2.36266 0
M  V30 1234 H 109.903 0.883349 -1.13723 0
M  V30 1235 H 111.856 4.01775 -1.27103 0
M  V30 1236 H 110.58 3.25296 -0.291564 0
M  V30 1237 H 109.239 2.79351 -2.37399 0
M  V30 1238 H 108.887 4.91052 -1.0898 0
M  V30 1239 H 108.587 5.14992 -2.82943 0
M  V30 1240 H 110.111 5.73289 -2.10171 0
M  V30 1241 H 111.525 4.26293 -3.83337 0
M  V30 1242 H 109.922 3.91804 -4.54543 0
M  V30 1243 H 110.992 2.57328 -4.10987 0
M  V30 1244 N 112.336 1.25143 0.95797 0
M  V30 1245 C 113.752 1.01892 1.22842 0
M  V30 1246 C 113.952 -0.266311 1.99732 0
M  V30 1247 O 113.008 -0.979913 2.3271 0
M  V30 1248 C 114.321 2.24004 2.00606 0
M  V30 1249 C 115.869 2.28731 2.13662 0
M  V30 1250 C 116.344 3.5049 2.94823 0
M  V30 1251 N 117.835 3.50866 3.02403 0
M  V30 1252 C 118.57 4.4174 3.65586 0
M  V30 1253 N 118.066 5.42882 4.30408 0
M  V30 1254 N 119.859 4.29429 3.62694 0
M  V30 1255 H 112.01 2.07718 0.443493 0
M  V30 1256 H 114.273 0.912031 0.258657 0
M  V30 1257 H 113.979 3.17395 1.51503 0
M  V30 1258 H 113.853 2.26907 3.01319 0
M  V30 1259 H 116.24 1.35865 2.61963 0
M  V30 1260 H 116.321 2.29848 1.12265 0
M  V30 1261 H 115.965 4.43676 2.47213 0
M  V30 1262 H 115.895 3.46617 3.96439 0
M  V30 1263 H 118.386 2.777 2.56302 0
M  V30 1264 H 118.699 6.0844 4.76467 0
M  V30 1265 H 117.044 5.46758 4.29047 0
M  V30 1266 H 120.235 3.49643 3.11236 0
M  V30 1267 H 120.408 5.00448 4.1165 0
M  V30 1268 N 113.814 -1.1601 1.06675 0
M  V30 1269 C 114.777 -2.18724 0.685001 0
M  V30 1270 C 115.777 -1.58496 -0.271246 0
M  V30 1271 O 116.967 -1.74119 -0.0531156 0
M  V30 1272 C 114.099 -3.40899 0.00853648 0
M  V30 1273 H 115.292 -2.54011 1.59431 0
M  V30 1274 H 112.845 -1.30352 0.862441 0
M  V30 1275 H 113.58 -3.11173 -0.913337 0
M  V30 1276 H 113.365 -3.8587 0.696204 0
M  V30 1277 H 114.855 -4.16886 -0.24414 0
M  V30 1278 N 115.292 -0.849877 -1.32721 0
M  V30 1279 C 116.222 -0.306308 -2.31482 0
M  V30 1280 C 117.203 0.591952 -1.59468 0
M  V30 1281 O 118.388 0.513199 -1.87296 0
M  V30 1282 C 115.518 0.510204 -3.43532 0
M  V30 1283 C 114.472 -0.293209 -4.26994 0
M  V30 1284 C 113.798 0.647743 -5.30762 0
M  V30 1285 C 115.098 -1.51634 -4.99804 0
M  V30 1286 H 116.792 -1.13153 -2.77195 0
M  V30 1287 H 114.338 -0.545553 -1.33266 0
M  V30 1288 H 116.291 0.900856 -4.11658 0
M  V30 1289 H 115.015 1.36874 -2.96535 0
M  V30 1290 H 113.674 -0.665555 -3.60508 0
M  V30 1291 H 113.322 1.50299 -4.8002 0
M  V30 1292 H 113.022 0.11422 -5.87489 0
M  V30 1293 H 114.546 1.03567 -6.01753 0
M  V30 1294 H 115.96 -1.19824 -5.60638 0
M  V30 1295 H 114.357 -1.98745 -5.66234 0
M  V30 1296 H 115.427 -2.28018 -4.27943 0
M  V30 1297 N 116.77 1.45427 -0.607355 0
M  V30 1298 C 117.68 2.34325 0.113463 0
M  V30 1299 C 118.696 1.51226 0.860617 0
M  V30 1300 O 119.872 1.84029 0.818255 0
M  V30 1301 C 116.937 3.28839 1.09844 0
M  V30 1302 C 115.998 4.27844 0.353271 0
M  V30 1303 C 115.231 5.17842 1.29133 0
M  V30 1304 O 115.454 5.11264 2.52913 0
M  V30 1305 O 114.388 5.96713 0.788523 0
M  V30 1306 H 118.214 2.97364 -0.617094 0
M  V30 1307 H 115.799 1.44807 -0.367619 0
M  V30 1308 H 117.681 3.8708 1.66575 0
M  V30 1309 H 116.356 2.68365 1.81003 0
M  V30 1310 H 115.263 3.7322 -0.256494 0
M  V30 1311 H 116.596 4.91173 -0.317822 0
M  V30 1312 N 118.248 0.346503 1.53744 0
M  V30 1313 C 119.476 -0.25041 2.05379 0
M  V30 1314 C 119.891 -1.43979 1.22129 0
M  V30 1315 O 119.248 -1.80677 0.257321 0
M  V30 1316 C 119.299 -0.662575 3.55376 0
M  V30 1317 O 119.02 0.479515 4.35468 0
M  V30 1318 C 120.521 -1.31989 4.23195 0
M  V30 1319 H 117.741 -0.0478198 0.669294 0
M  V30 1320 H 120.285 0.499346 1.9831 0
M  V30 1321 H 118.44 -1.36227 3.62658 0
M  V30 1322 H 118.854 0.15037 5.24284 0
M  V30 1323 H 120.328 -1.55902 5.29527 0
M  V30 1324 H 120.805 -2.27436 3.75725 0
M  V30 1325 H 121.411 -0.662154 4.20114 0
M  V30 1326 N 119.726 -1.57421 0.075193 0
M  V30 1327 C 120.951 -1.98364 -0.605515 0
M  V30 1328 C 121.376 -0.953383 -1.62149 0
M  V30 1329 O 120.734 0.0806053 -1.81121 0
M  V30 1330 C 120.782 -3.38332 -1.24756 0
M  V30 1331 O 119.886 -3.37959 -2.36342 0
M  V30 1332 H 119.227 -0.645553 -0.155428 0
M  V30 1333 H 121.757 -2.04044 0.150714 0
M  V30 1334 H 121.767 -3.75591 -1.5936 0
M  V30 1335 H 120.442 -4.12846 -0.503129 0
M  V30 1336 H 119.019 -3.12474 -2.03506 0
M  V30 1337 N 121.204 0.198386 -1.56346 0
M  V30 1338 C 122.45 0.920648 -1.80698 0
M  V30 1339 C 122.783 1.83045 -0.648697 0
M  V30 1340 O 122.058 1.91308 0.350925 0
M  V30 1341 C 122.341 1.73971 -3.15287 0
M  V30 1342 C 122.194 0.85485 -4.41602 0
M  V30 1343 C 123.513 2.71296 -3.46535 0
M  V30 1344 H 120.632 0.333261 -0.657348 0
M  V30 1345 H 123.274 0.188198 -1.89066 0
M  V30 1346 H 121.424 2.36416 -3.08285 0
M  V30 1347 H 123.096 0.245362 -4.60647 0
M  V30 1348 H 121.339 0.161398 -4.335 0
M  V30 1349 H 122.01 1.46286 -5.32264 0
M  V30 1350 H 124.486 2.18983 -3.53816 0
M  V30 1351 H 123.362 3.2569 -4.41834 0
M  V30 1352 H 123.623 3.5018 -2.69864 0
M  V30 1353 N 122.682 1.50554 0.465978 0
M  V30 1354 C 123.645 1.69233 1.54574 0
M  V30 1355 C 124.645 0.562901 1.50626 0
M  V30 1356 O 125.835 0.830016 1.53155 0
M  V30 1357 C 122.967 1.7223 2.94193 0
M  V30 1358 H 124.16 2.65571 1.39327 0
M  V30 1359 H 121.713 1.40111 0.692711 0
M  V30 1360 H 122.448 0.77603 3.14878 0
M  V30 1361 H 122.233 2.54285 2.98466 0
M  V30 1362 H 123.723 1.88618 3.72576 0
M  V30 1363 N 124.16 -0.719506 1.40217 0
M  V30 1364 C 125.123 -1.8153 1.39927 0
M  V30 1365 C 126.123 -1.58095 0.293723 0
M  V30 1366 O 127.313 -1.65209 0.552429 0
M  V30 1367 C 124.445 -3.19561 1.18716 0
M  V30 1368 H 125.638 -1.83186 2.37451 0
M  V30 1369 H 123.191 -0.924746 1.26008 0
M  V30 1370 H 123.926 -3.23557 0.219366 0
M  V30 1371 H 123.711 -3.3797 1.98793 0
M  V30 1372 H 125.201 -3.99598 1.21291 0
M  V30 1373 N 125.638 -1.25649 -0.95132 0
M  V30 1374 C 126.915 -1.01361 -1.67288 0
M  V30 1375 C 127.295 0.459135 -2.06046 0
M  V30 1376 O 126.643 1.43723 -1.7764 0
M  V30 1377 C 126.853 -1.95256 -2.89268 0
M  V30 1378 C 128.201 -2.23289 -3.61147 0
M  V30 1379 O 129.225 -1.93041 -2.99355 0
M  V30 1380 O 128.084 -2.74741 -4.72419 0
M  V30 1381 H 125.178 -0.38464 -0.732107 0
M  V30 1382 H 127.724 -1.36817 -1.00395 0
M  V30 1383 H 126.496 -2.94685 -2.57442 0
M  V30 1384 H 126.119 -1.60218 -3.6389 0
M  V30 1385 N 127.117 1.15442 -1.07289 0
M  V30 1386 C 128.364 1.86213 -0.795668 0
M  V30 1387 C 128.692 1.82291 0.678238 0
M  V30 1388 O 127.947 1.24057 1.51355 0
M  V30 1389 C 128.246 3.3489 -1.24834 0
M  V30 1390 C 127.912 3.59007 -2.72809 0
M  V30 1391 C 126.574 3.65298 -3.13227 0
M  V30 1392 C 128.926 3.68762 -3.68326 0
M  V30 1393 C 126.254 3.78854 -4.4798 0
M  V30 1394 C 128.606 3.83842 -5.0284 0
M  V30 1395 C 127.27 3.88378 -5.4288 0
M  V30 1396 H 126.54 0.681403 -0.291155 0
M  V30 1397 H 129.187 1.36435 -1.34379 0
M  V30 1398 H 127.492 3.8687 -0.619595 0
M  V30 1399 H 129.189 3.88052 -1.01076 0
M  V30 1400 H 125.779 3.5475 -2.40521 0
M  V30 1401 H 129.963 3.63202 -3.38227 0
M  V30 1402 H 125.219 3.80623 -4.78472 0
M  V30 1403 H 129.393 3.90332 -5.76727 0
M  V30 1404 H 127.02 3.98635 -6.47298 0
M  V30 1405 N 128.595 0.856903 1.32268 0
M  V30 1406 C 129.825 0.47475 2.01071 0
M  V30 1407 C 130.233 -0.933746 1.64553 0
M  V30 1408 O 129.576 -1.62114 0.863989 0
M  V30 1409 C 129.638 0.536746 3.55471 0
M  V30 1410 C 129.302 1.90453 4.15423 0
M  V30 1411 C 130.299 2.87029 4.33486 0
M  V30 1412 C 127.984 2.20229 4.51447 0
M  V30 1413 C 129.978 4.11532 4.86744 0
M  V30 1414 C 127.665 3.44984 5.0441 0
M  V30 1415 C 128.663 4.40452 5.22007 0
M  V30 1416 O 128.351 5.62998 5.73837 0
M  V30 1417 H 128.083 0.184778 0.650256 0
M  V30 1418 H 130.637 1.15615 1.69771 0
M  V30 1419 H 128.867 -0.20152 3.86175 0
M  V30 1420 H 130.556 0.169875 4.05544 0
M  V30 1421 H 131.322 2.6533 4.05986 0
M  V30 1422 H 127.201 1.46705 4.37034 0
M  V30 1423 H 130.745 4.86056 5.00395 0
M  V30 1424 H 126.642 3.66532 5.31342 0
M  V30 1425 H 127.41 5.64987 5.92226 0
M  V30 1426 N 130.073 -1.45103 0.615059 0
M  V30 1427 C 131.023 -2.27679 -0.120966 0
M  V30 1428 C 132.007 -1.3775 -0.831491 0
M  V30 1429 O 133.199 -1.61683 -0.720249 0
M  V30 1430 C 130.328 -3.24767 -1.1127 0
M  V30 1431 C 129.414 -4.22184 -0.402627 0
M  V30 1432 N 129.805 -5.02692 0.559884 0
M  V30 1433 C 128.103 -4.4125 -0.649202 0
M  V30 1434 C 128.804 -5.73421 0.977942 0
M  V30 1435 N 127.78 -5.42657 0.320104 0
M  V30 1436 H 131.582 -2.87325 0.618181 0
M  V30 1437 H 129.096 -1.56345 0.439304 0
M  V30 1438 H 131.093 -3.82666 -1.65446 0
M  V30 1439 H 129.753 -2.66682 -1.85232 0
M  V30 1440 H 130.764 -5.09354 0.936976 0
M  V30 1441 H 127.441 -3.9428 -1.37293 0
M  V30 1442 H 128.831 -6.48107 1.77222 0
M  V30 1443 N 131.551 -0.354651 -1.53558 0
M  V30 1444 C 132.967 -0.00315426 -1.596 0
M  V30 1445 C 133.167 1.47741 -1.37021 0
M  V30 1446 O 132.223 2.23759 -1.16996 0
M  V30 1447 C 133.536 -0.44929 -2.97325 0
M  V30 1448 C 135.084 -0.402578 -3.104 0
M  V30 1449 C 135.559 -0.824355 -4.5052 0
M  V30 1450 N 137.05 -0.778979 -4.56603 0
M  V30 1451 C 137.785 -1.07715 -5.63192 0
M  V30 1452 N 137.281 -1.44405 -6.77583 0
M  V30 1453 N 139.074 -1.00066 -5.53121 0
M  V30 1454 H 131.225 -1.31893 -1.66487 0
M  V30 1455 H 133.488 -0.538388 -0.780284 0
M  V30 1456 H 133.194 -1.48202 -3.1895 0
M  V30 1457 H 133.068 0.169772 -3.76818 0
M  V30 1458 H 135.455 0.621004 -2.88492 0
M  V30 1459 H 135.536 -1.05699 -2.32941 0
M  V30 1460 H 135.18 -1.846 -4.73165 0
M  V30 1461 H 135.11 -0.147304 -5.26394 0
M  V30 1462 H 137.601 -0.508528 -3.74463 0
M  V30 1463 H 137.914 -1.65612 -7.54846 0
M  V30 1464 H 136.259 -1.4826 -6.79002 0
M  V30 1465 H 139.45 -0.713293 -4.62633 0
M  V30 1466 H 139.623 -1.23638 -6.36096 0
M  V30 1467 N 133.029 1.57378 -0.0835403 0
M  V30 1468 C 133.959 2.1641 0.87686 0
M  V30 1469 C 134.94 1.09429 1.30228 0
M  V30 1470 O 136.125 1.37516 1.37124 0
M  V30 1471 C 133.255 2.73517 2.14022 0
M  V30 1472 C 132.209 3.85769 1.85381 0
M  V30 1473 C 131.535 4.29529 3.18448 0
M  V30 1474 C 132.835 5.09486 1.14984 0
M  V30 1475 H 134.529 2.96914 0.385059 0
M  V30 1476 H 132.075 1.42823 0.18377 0
M  V30 1477 H 134.028 3.13463 2.81636 0
M  V30 1478 H 132.752 1.90252 2.65465 0
M  V30 1479 H 131.411 3.46345 1.20169 0
M  V30 1480 H 131.059 3.43169 3.67755 0
M  V30 1481 H 130.759 5.05204 3.00071 0
M  V30 1482 H 132.283 4.72099 3.8724 0
M  V30 1483 H 133.697 5.46674 1.72687 0
M  V30 1484 H 132.094 5.90515 1.06826 0
M  V30 1485 H 133.164 4.84724 0.130749 0
M  V30 1486 N 134.507 -0.190092 1.56449 0
M  V30 1487 C 135.755 -0.907908 1.80559 0
M  V30 1488 C 136.076 -1.83583 0.657438 0
M  V30 1489 O 135.346 -1.93203 -0.323924 0
M  V30 1490 H 133.926 -0.338247 0.666032 0
M  V30 1491 H 136.588 -0.194403 1.93928 0
M  V30 1492 H 135.684 -1.49604 2.73907 0
M  V30 1493 N 135.985 -1.50799 -0.457987 0
M  V30 1494 C 137.396 -1.55152 -1.0385 0
M  V30 1495 C 137.747 -0.362719 -1.92818 0
M  V30 1496 O 136.872 0.522915 -2.09987 0
M  V30 1497 C 137.467 -2.81173 -1.89017 0
M  V30 1498 C 136.026 -2.88164 -2.42154 0
M  V30 1499 C 135.173 -2.49591 -1.20829 0
M  V30 1500 H 138.124 -1.56874 -0.240068 0
M  V30 1501 H 138.145 -2.63769 -2.74238 0
M  V30 1502 H 137.657 -3.67677 -1.24238 0
M  V30 1503 H 135.758 -2.06042 -3.10447 0
M  V30 1504 H 135.871 -3.91356 -2.76364 0
M  V30 1505 H 134.235 -2.02322 -1.54719 0
M  V30 1506 H 135.018 -3.38418 -0.576927 0
M  V30 1507 N 137.463 0.71206 -1.40597 0
M  V30 1508 C 138.413 1.81783 -1.37619 0
M  V30 1509 C 139.397 1.58896 -0.253162 0
M  V30 1510 O 140.589 1.70009 -0.492547 0
M  V30 1511 C 137.718 3.19944 -1.24462 0
M  V30 1512 C 136.804 3.48582 -2.4156 0
M  V30 1513 N 137.195 3.48016 -3.67041 0
M  V30 1514 C 135.493 3.79056 -2.35016 0
M  V30 1515 C 136.194 3.75096 -4.44609 0
M  V30 1516 N 135.17 3.94022 -3.74497 0
M  V30 1517 H 138.972 1.79683 -2.32575 0
M  V30 1518 H 136.486 0.91134 -1.34419 0
M  V30 1519 H 138.483 3.99133 -1.20411 0
M  V30 1520 H 137.143 3.23267 -0.304762 0
M  V30 1521 H 138.154 3.28782 -4.00153 0
M  V30 1522 H 134.831 3.89848 -1.49415 0
M  V30 1523 H 136.221 3.80934 -5.53479 0
M  V30 1524 N 138.941 1.26152 0.944643 0
M  V30 1525 C 139.891 1.04081 2.02857 0
M  V30 1526 C 140.875 -0.0256555 1.6088 0
M  V30 1527 O 142.067 0.190884 1.75968 0
M  V30 1528 C 139.196 0.672118 3.36656 0
M  V30 1529 C 138.282 1.77586 3.85128 0
M  V30 1530 N 138.673 3.01272 4.06287 0
M  V30 1531 C 136.971 1.65867 4.1401 0
M  V30 1532 C 137.672 3.72983 4.46384 0
M  V30 1533 N 136.648 3.00653 4.52889 0
M  V30 1534 H 140.45 1.97968 2.17223 0
M  V30 1535 H 137.964 1.16618 1.13022 0
M  V30 1536 H 139.961 0.495166 4.13949 0
M  V30 1537 H 138.621 -0.259307 3.23663 0
M  V30 1538 H 139.632 3.37213 3.93075 0
M  V30 1539 H 136.309 0.796907 4.09824 0
M  V30 1540 H 137.699 4.792 4.70975 0
M  V30 1541 N 140.419 -1.14872 1.07899 0
M  V30 1542 C 141.666 -1.85789 0.805532 0
M  V30 1543 C 141.994 -1.82649 -0.668561 0
M  V30 1544 O 141.249 -1.24858 -1.50695 0
M  V30 1545 C 141.548 -3.34223 1.26609 0
M  V30 1546 C 141.214 -3.57555 2.74709 0
M  V30 1547 C 139.876 -3.63631 3.1516 0
M  V30 1548 C 142.228 -3.66803 3.70277 0
M  V30 1549 C 139.556 -3.76473 4.49983 0
M  V30 1550 C 141.908 -3.8117 5.04869 0
M  V30 1551 C 140.572 -3.85494 5.44932 0
M  V30 1552 H 139.842 -0.679849 0.294765 0
M  V30 1553 H 142.489 -1.3572 1.35101 0
M  V30 1554 H 140.794 -3.86536 0.640103 0
M  V30 1555 H 142.491 -3.87511 1.03132 0
M  V30 1556 H 139.081 -3.5347 2.42398 0
M  V30 1557 H 143.265 -3.61404 3.40149 0
M  V30 1558 H 138.521 -3.7808 4.80484 0
M  V30 1559 H 142.695 -3.87268 5.78789 0
M  V30 1560 H 140.322 -3.95197 6.49403 0
M  V30 1561 N 141.898 -0.863906 -1.31812 0
M  V30 1562 C 142.828 -0.330843 -2.31144 0
M  V30 1563 C 143.809 0.575005 -1.60087 0
M  V30 1564 O 144.994 0.493304 -1.8783 0
M  V30 1565 C 142.124 0.47374 -3.44054 0
M  V30 1566 C 141.078 -0.338481 -4.26659 0
M  V30 1567 C 140.404 0.591412 -5.31419 0
M  V30 1568 C 141.704 -1.56926 -4.98168 0
M  V30 1569 H 143.398 -1.16086 -2.75979 0
M  V30 1570 H 140.944 -0.559657 -1.32679 0
M  V30 1571 H 142.897 0.857143 -4.12591 0
M  V30 1572 H 141.621 1.33721 -2.9797 0
M  V30 1573 H 140.28 -0.703754 -3.59782 0
M  V30 1574 H 139.928 1.45199 -4.81587 0
M  V30 1575 H 139.628 0.0519022 -5.87577 0
M  V30 1576 H 141.152 0.97179 -6.02817 0
M  V30 1577 H 142.566 -1.25764 -5.59336 0
M  V30 1578 H 140.963 -2.04739 -5.64094 0
M  V30 1579 H 142.033 -2.32544 -4.25501 0
M  V30 1580 N 143.376 1.44774 -0.622745 0
M  V30 1581 C 144.306 2.33382 0.0741861 0
M  V30 1582 C 145.287 1.47719 0.843387 0
M  V30 1583 O 146.472 1.76458 0.810934 0
M  V30 1584 C 143.602 3.30663 1.06204 0
M  V30 1585 C 142.556 4.26079 0.405037 0
M  V30 1586 C 141.882 5.13165 1.5022 0
M  V30 1587 C 143.182 5.1781 -0.683414 0
M  V30 1588 H 144.876 2.91905 -0.665713 0
M  V30 1589 H 142.422 1.40363 -0.321587 0
M  V30 1590 H 144.375 3.9153 1.55827 0
M  V30 1591 H 143.099 2.70331 1.83272 0
M  V30 1592 H 141.758 3.66532 -0.0704683 0
M  V30 1593 H 141.406 4.49191 2.26355 0
M  V30 1594 H 141.106 5.77812 1.06803 0
M  V30 1595 H 142.63 5.76902 2.00041 0
M  V30 1596 H 144.044 5.72661 -0.270631 0
M  V30 1597 H 142.441 5.91015 -1.04023 0
M  V30 1598 H 143.511 4.59326 -1.55395 0
M  V30 1599 N 144.854 0.36279 1.53368 0
M  V30 1600 C 145.784 -0.476976 2.28576 0
M  V30 1601 C 146.765 -1.08631 1.30894 0
M  V30 1602 O 147.95 -1.10409 1.59761 0
M  V30 1603 C 145.08 -1.61828 3.07293 0
M  V30 1604 C 144.034 -1.13633 4.1264 0
M  V30 1605 C 143.36 -2.36766 4.79423 0
M  V30 1606 C 144.66 -0.223061 5.21823 0
M  V30 1607 H 146.354 0.150474 2.99022 0
M  V30 1608 H 143.9 0.0738103 1.43811 0
M  V30 1609 H 145.853 -2.21237 3.58653 0
M  V30 1610 H 144.577 -2.27292 2.34533 0
M  V30 1611 H 143.236 -0.564945 3.62221 0
M  V30 1612 H 142.884 -3.0068 4.03238 0
M  V30 1613 H 142.584 -2.05192 5.50609 0
M  V30 1614 H 144.108 -2.96865 5.33576 0
M  V30 1615 H 145.522 -0.724545 5.68703 0
M  V30 1616 H 143.919 0.001678 6.001 0
M  V30 1617 H 144.989 0.735553 4.79289 0
M  V30 1618 N 146.332 -1.57332 0.0918853 0
M  V30 1619 C 147.562 -1.98286 -0.580205 0
M  V30 1620 C 147.97 -0.969713 -1.6246 0
M  V30 1621 O 147.313 0.0493501 -1.83634 0
M  V30 1622 C 147.375 -3.35603 -1.28882 0
M  V30 1623 C 147.039 -4.55285 -0.395559 0
M  V30 1624 C 148.036 -5.18687 0.355002 0
M  V30 1625 C 145.721 -5.01314 -0.314556 0
M  V30 1626 C 147.715 -6.26484 1.17458 0
M  V30 1627 C 145.402 -6.08979 0.508677 0
M  V30 1628 C 146.4 -6.71429 1.2519 0
M  V30 1629 O 146.088 -7.77018 2.06151 0
M  V30 1630 H 145.82 -0.656678 -0.160466 0
M  V30 1631 H 148.374 -2.04721 0.16688 0
M  V30 1632 H 146.604 -3.25842 -2.08241 0
M  V30 1633 H 148.293 -3.61026 -1.85512 0
M  V30 1634 H 149.059 -4.84058 0.302134 0
M  V30 1635 H 144.938 -4.5247 -0.882697 0
M  V30 1636 H 148.482 -6.75159 1.75518 0
M  V30 1637 H 144.379 -6.4304 0.563037 0
M  V30 1638 H 145.147 -7.93991 1.98799 0
M  V30 1639 N 147.81 0.181792 -1.56548 0
M  V30 1640 C 148.742 1.24956 -1.92142 0
M  V30 1641 C 149.755 1.41022 -0.813422 0
M  V30 1642 O 150.944 1.41212 -1.09186 0
M  V30 1643 C 148.044 2.61981 -2.14987 0
M  V30 1644 C 147.217 2.6735 -3.46183 0
M  V30 1645 C 146.276 3.85664 -3.5798 0
M  V30 1646 O 145.302 3.72148 -4.30691 0
M  V30 1647 N 146.504 5.01683 -2.92053 0
M  V30 1648 H 149.269 0.947329 -2.84334 0
M  V30 1649 H 146.83 0.371629 -1.57577 0
M  V30 1650 H 148.822 3.3958 -2.20154 0
M  V30 1651 H 147.392 2.84637 -1.2923 0
M  V30 1652 H 146.612 1.75925 -3.52766 0
M  V30 1653 H 147.9 2.67939 -4.32534 0
M  V30 1654 H 147.298 5.15564 -2.32832 0
M  V30 1655 H 145.855 5.77181 -3.0283 0
M  V30 1656 N 149.288 1.51039 0.449983 0
M  V30 1657 C 150.235 1.71439 1.54523 0
M  V30 1658 C 151.205 0.555871 1.56522 0
M  V30 1659 O 152.39 0.788871 1.73728 0
M  V30 1660 C 149.53 1.83384 2.92343 0
M  V30 1661 C 148.643 3.10873 2.9997 0
M  V30 1662 C 147.778 3.13488 4.28834 0
M  V30 1663 C 146.817 4.35343 4.30282 0
M  V30 1664 N 145.954 4.35579 5.5065 0
M  V30 1665 H 150.794 2.64934 1.36433 0
M  V30 1666 H 148.331 1.31312 0.662982 0
M  V30 1667 H 150.289 1.88291 3.72293 0
M  V30 1668 H 148.919 0.933086 3.0902 0
M  V30 1669 H 147.971 3.15336 2.12761 0
M  V30 1670 H 149.283 4.00814 2.96901 0
M  V30 1671 H 148.437 3.17241 5.17149 0
M  V30 1672 H 147.176 2.21414 4.34543 0
M  V30 1673 H 146.181 4.3178 3.40362 0
M  V30 1674 H 147.406 5.28668 4.26248 0
M  V30 1675 H 145.352 3.46369 5.57104 0
M  V30 1676 H 145.269 5.19313 5.49409 0
M  V30 1677 H 146.537 4.43507 6.41032 0
M  V30 1678 N 150.766 -0.704594 1.40972 0
M  V30 1679 C 151.713 -1.81862 1.42109 0
M  V30 1680 C 152.683 -1.63781 0.276593 0
M  V30 1681 O 153.868 -1.84759 0.4763 0
M  V30 1682 C 151.008 -3.19669 1.30022 0
M  V30 1683 C 150.121 -3.49246 2.54267 0
M  V30 1684 C 149.256 -4.76618 2.3454 0
M  V30 1685 C 148.295 -4.99133 3.54306 0
M  V30 1686 N 147.432 -6.17726 3.33706 0
M  V30 1687 H 152.272 -1.80226 2.37324 0
M  V30 1688 H 149.809 -0.880238 1.17857 0
M  V30 1689 H 151.767 -3.99263 1.21018 0
M  V30 1690 H 150.397 -3.20506 0.384192 0
M  V30 1691 H 149.449 -2.64125 2.73756 0
M  V30 1692 H 150.761 -3.61788 3.43381 0
M  V30 1693 H 149.915 -5.64249 2.22952 0
M  V30 1694 H 148.654 -4.66305 1.42867 0
M  V30 1695 H 147.659 -4.09953 3.66359 0
M  V30 1696 H 148.884 -5.11311 4.4692 0
M  V30 1697 H 146.83 -6.08642 2.44725 0
M  V30 1698 H 146.747 -6.30995 4.16391 0
M  V30 1699 H 148.015 -7.08115 3.25873 0
M  V30 1700 N 152.244 -1.26651 -0.937939 0
M  V30 1701 C 153.492 -1.12165 -1.68118 0
M  V30 1702 C 153.813 0.334983 -1.92101 0
M  V30 1703 O 153.083 1.23583 -1.52 0
M  V30 1704 H 151.663 -0.412093 -0.623048 0
M  V30 1705 H 154.325 -1.59027 -1.12678 0
M  V30 1706 H 153.421 -1.64289 -2.6536 0
M  V30 1707 N 153.722 1.14298 -1.08507 0
M  V30 1708 C 154.654 2.1907 -0.673859 0
M  V30 1709 C 155.667 1.60381 0.279577 0
M  V30 1710 O 156.856 1.78374 0.0670754 0
M  V30 1711 C 153.956 3.38888 0.0290979 0
M  V30 1712 C 153.129 4.27103 -0.943494 0
M  V30 1713 C 152.188 5.25477 -0.275676 0
M  V30 1714 O 151.214 5.61709 -0.920401 0
M  V30 1715 N 152.416 5.7227 0.974013 0
M  V30 1716 H 155.181 2.54965 -1.57521 0
M  V30 1717 H 152.742 1.29528 -0.971287 0
M  V30 1718 H 154.734 4.01761 0.48683 0
M  V30 1719 H 153.304 3.01309 0.832555 0
M  V30 1720 H 152.524 3.61149 -1.58004 0
M  V30 1721 H 153.812 4.82905 -1.60251 0
M  V30 1722 H 153.21 5.44965 1.51755 0
M  V30 1723 H 151.767 6.37127 1.37522 0
M  V30 1724 N 155.201 0.870884 1.31352 0
M  V30 1725 C 156.447 0.492314 1.97352 0
M  V30 1726 C 156.802 -0.945174 1.67583 0
M  V30 1727 O 156.095 -1.65674 0.962423 0
M  V30 1728 C 156.289 0.687157 3.50732 0
M  V30 1729 C 156.118 2.14203 3.95407 0
M  V30 1730 C 154.888 2.78382 4.21701 0
M  V30 1731 C 157.086 3.1144 4.09279 0
M  V30 1732 N 155.068 4.14611 4.52737 0
M  V30 1733 C 156.439 4.32702 4.44037 0
M  V30 1734 C 158.494 3.07418 3.91661 0
M  V30 1735 C 157.197 5.50463 4.63015 0
M  V30 1736 C 159.223 4.24438 4.11833 0
M  V30 1737 C 158.585 5.44463 4.46923 0
M  V30 1738 H 154.684 0.229206 0.747655 0
M  V30 1739 H 157.268 1.12568 1.5886 0
M  V30 1740 H 155.439 0.083384 3.8831 0
M  V30 1741 H 157.171 0.276883 4.03752 0
M  V30 1742 H 153.926 2.29326 4.14375 0
M  V30 1743 H 154.35 4.84928 4.72413 0
M  V30 1744 H 158.992 2.15732 3.6362 0
M  V30 1745 H 156.71 6.42666 4.89904 0
M  V30 1746 H 160.296 4.2278 3.99685 0
M  V30 1747 H 159.176 6.33504 4.62214 0
M  V30 1748 N 156.679 -1.44442 0.630414 0
M  V30 1749 C 157.909 -2.06115 0.141465 0
M  V30 1750 C 158.317 -1.47179 -1.1889 0
M  V30 1751 O 157.66 -0.588873 -1.74006 0
M  V30 1752 C 157.722 -3.59467 -0.0484355 0
M  V30 1753 C 157.386 -4.40864 1.20366 0
M  V30 1754 C 158.383 -4.74391 2.12719 0
M  V30 1755 C 156.068 -4.8125 1.43887 0
M  V30 1756 C 158.062 -5.47186 3.26904 0
M  V30 1757 C 155.749 -5.53795 2.5837 0
M  V30 1758 C 156.747 -5.86682 3.49705 0
M  V30 1759 O 156.435 -6.57749 4.62191 0
M  V30 1760 H 156.167 -0.671648 0.0765792 0
M  V30 1761 H 158.721 -1.86312 0.864695 0
M  V30 1762 H 156.951 -3.77758 -0.826803 0
M  V30 1763 H 158.64 -4.02909 -0.491849 0
M  V30 1764 H 159.406 -4.43728 1.95781 0
M  V30 1765 H 155.285 -4.55073 0.736853 0
M  V30 1766 H 158.829 -5.72773 3.98217 0
M  V30 1767 H 154.726 -5.83872 2.75251 0
M  V30 1768 H 155.494 -6.76217 4.61164 0
M  V30 1769 N 158.157 -0.370918 -1.53173 0
M  V30 1770 C 159.067 0.480823 -2.2962 0
M  V30 1771 C 160.083 1.08789 -1.35798 0
M  V30 1772 O 161.259 1.09768 -1.68858 0
M  V30 1773 C 158.324 1.60227 -3.07454 0
M  V30 1774 C 157.385 1.0222 -4.16953 0
M  V30 1775 C 156.618 2.0902 -4.91066 0
M  V30 1776 O 156.841 3.30222 -4.65091 0
M  V30 1777 O 155.775 1.71778 -5.76867 0
M  V30 1778 H 159.601 -0.141421 -3.03371 0
M  V30 1779 H 157.186 -0.135146 -1.48787 0
M  V30 1780 H 159.068 2.25417 -3.56041 0
M  V30 1781 H 157.743 2.20982 -2.36535 0
M  V30 1782 H 156.65 0.334064 -3.72605 0
M  V30 1783 H 157.983 0.459131 -4.90054 0
M  V30 1784 N 159.635 1.57281 -0.100228 0
M  V30 1785 C 160.884 1.93713 0.561984 0
M  V30 1786 C 161.197 0.984492 1.69018 0
M  V30 1787 O 162.403 1.24273 2.41389 0
M  V30 1788 C 160.859 3.4421 1.05106 0
M  V30 1789 C 160.467 4.47975 -0.0476628 0
M  V30 1790 C 162.211 3.89595 1.68571 0
M  V30 1791 C 160.118 5.89631 0.457055 0
M  V30 1792 H 159.048 0.723082 0.2137 0
M  V30 1793 H 161.699 1.82644 -0.177057 0
M  V30 1794 H 160.081 3.50449 1.84395 0
M  V30 1795 H 161.255 4.53385 -0.823333 0
M  V30 1796 H 159.57 4.1223 -0.587816 0
M  V30 1797 H 162.167 4.92832 2.07414 0
M  V30 1798 H 162.51 3.28526 2.55688 0
M  V30 1799 H 163.043 3.86078 0.958562 0
M  V30 1800 H 159.782 6.54411 -0.377616 0
M  V30 1801 H 159.302 5.87681 1.19962 0
M  V30 1802 H 160.981 6.40363 0.92437 0
M  V30 1803 N 161.113 -0.173488 1.56642 0
M  V30 1804 C 162.343 -0.904781 1.85734 0
M  V30 1805 C 162.751 -1.76431 0.68328 0
M  V30 1806 O 162.094 -1.802 -0.356865 0
M  V30 1807 C 162.156 -1.83382 3.09211 0
M  V30 1808 C 161.82 -1.15411 4.42187 0
M  V30 1809 C 162.817 -0.520609 5.17287 0
M  V30 1810 C 160.502 -1.15151 4.88923 0
M  V30 1811 C 162.496 0.106412 6.37311 0
M  V30 1812 C 160.183 -0.520664 6.08878 0
M  V30 1813 C 161.181 0.107196 6.82916 0
M  V30 1814 O 160.869 0.728102 8.00596 0
M  V30 1815 H 160.601 -0.268408 0.62043 0
M  V30 1816 H 163.155 -0.179096 2.04618 0
M  V30 1817 H 161.385 -2.59976 2.86268 0
M  V30 1818 H 163.074 -2.43476 3.24768 0
M  V30 1819 H 163.84 -0.514606 4.82262 0
M  V30 1820 H 159.719 -1.62961 4.31236 0
M  V30 1821 H 163.263 0.597081 6.9504 0
M  V30 1822 H 159.16 -0.524242 6.43368 0
M  V30 1823 H 159.928 0.627138 8.16094 0
M  V30 1824 N 162.591 -1.51276 -0.441967 0
M  V30 1825 C 163.868 -1.54252 -1.20273 0
M  V30 1826 C 164.248 -0.30408 -2.08898 0
M  V30 1827 O 163.596 0.711084 -2.17154 0
M  V30 1828 C 163.806 -2.85406 -2.00859 0
M  V30 1829 C 165.154 -3.37181 -2.58059 0
M  V30 1830 O 166.178 -2.86925 -2.11074 0
M  V30 1831 O 165.037 -4.24858 -3.43741 0
M  V30 1832 H 162.131 -0.619969 -0.547328 0
M  V30 1833 H 164.677 -1.63586 -0.451413 0
M  V30 1834 H 163.449 -3.67003 -1.35736 0
M  V30 1835 H 163.072 -2.79213 -2.83065 0
M  V30 1836 N 164.069 0.697108 -1.41344 0
M  V30 1837 C 165.016 1.81106 -1.43071 0
M  V30 1838 C 165.986 1.63632 -0.285275 0
M  V30 1839 O 167.171 1.84504 -0.486091 0
M  V30 1840 C 164.311 3.18975 -1.31715 0
M  V30 1841 C 163.424 3.47892 -2.56115 0
M  V30 1842 C 162.559 4.75367 -2.37064 0
M  V30 1843 C 161.598 4.97247 -3.56948 0
M  V30 1844 N 160.735 6.15947 -3.36977 0
M  V30 1845 H 165.575 1.78965 -2.38276 0
M  V30 1846 H 163.112 0.873975 -1.18322 0
M  V30 1847 H 165.07 3.98615 -1.23133 0
M  V30 1848 H 163.7 3.20297 -0.401183 0
M  V30 1849 H 162.752 2.62669 -2.75153 0
M  V30 1850 H 164.064 3.59962 -3.45295 0
M  V30 1851 H 163.218 5.63059 -2.25941 0
M  V30 1852 H 161.957 4.65541 -1.45338 0
M  V30 1853 H 160.962 4.08004 -3.68527 0
M  V30 1854 H 162.187 5.08934 -4.49626 0
M  V30 1855 H 160.133 6.07336 -2.47949 0
M  V30 1856 H 160.05 6.28777 -4.19732 0
M  V30 1857 H 161.318 7.06377 -3.29623 0
M  V30 1858 N 165.547 1.27147 0.931209 0
M  V30 1859 C 166.777 1.15914 1.71019 0
M  V30 1860 C 167.185 -0.287112 1.87009 0
M  V30 1861 O 166.528 -1.20761 1.38429 0
M  V30 1862 C 166.59 1.76647 3.13107 0
M  V30 1863 C 166.254 3.25807 3.20467 0
M  V30 1864 C 167.251 4.22489 3.02983 0
M  V30 1865 C 164.936 3.66452 3.43538 0
M  V30 1866 C 166.93 5.57794 3.08454 0
M  V30 1867 C 164.617 5.01888 3.48643 0
M  V30 1868 C 165.615 5.97369 3.31119 0
M  V30 1869 O 165.303 7.30337 3.35952 0
M  V30 1870 H 165.035 0.404062 0.54195 0
M  V30 1871 H 167.589 1.68457 1.17521 0
M  V30 1872 H 165.819 1.18578 3.68071 0
M  V30 1873 H 167.508 1.60179 3.72958 0
M  V30 1874 H 168.274 3.92425 2.85004 0
M  V30 1875 H 164.153 2.92611 3.5623 0
M  V30 1876 H 167.697 6.32298 2.94694 0
M  V30 1877 H 163.594 5.31609 3.66145 0
M  V30 1878 H 164.362 7.38739 3.5243 0
M  V30 1879 N 167.025 -1.13721 1.09112 0
M  V30 1880 C 167.957 -2.1871 0.685467 0
M  V30 1881 C 168.97 -1.60527 -0.271068 0
M  V30 1882 O 170.159 -1.78407 -0.0576148 0
M  V30 1883 C 167.259 -3.38898 -0.0111255 0
M  V30 1884 C 166.432 -4.26597 0.966131 0
M  V30 1885 C 165.491 -5.25324 0.303539 0
M  V30 1886 O 164.517 -5.61213 0.950177 0
M  V30 1887 N 165.719 -5.72779 -0.943651 0
M  V30 1888 H 168.484 -2.54126 1.58871 0
M  V30 1889 H 166.045 -1.29012 0.978143 0
M  V30 1890 H 168.037 -4.02014 -0.465517 0
M  V30 1891 H 166.607 -3.01747 -0.816565 0
M  V30 1892 H 165.827 -3.60306 1.59917 0
M  V30 1893 H 167.115 -4.82048 1.6281 0
M  V30 1894 H 166.513 -5.45762 -1.48862 0
M  V30 1895 H 165.07 -6.37847 -1.34142 0
M  V30 1896 N 168.503 -0.877838 -1.30888 0
M  V30 1897 C 169.749 -0.493426 -1.96706 0
M  V30 1898 C 170.082 0.953504 -1.6918 0
M  V30 1899 O 169.357 1.67266 -0.992594 0
M  V30 1900 C 169.64 -0.760429 -3.51979 0
M  V30 1901 C 169.493 -2.25747 -3.89048 0
M  V30 1902 C 170.812 -0.232148 -4.39487 0
M  V30 1903 H 167.931 -0.180746 -0.714493 0
M  V30 1904 H 170.573 -1.10052 -1.54882 0
M  V30 1905 H 168.723 -0.243715 -3.87735 0
M  V30 1906 H 170.395 -2.84204 -3.63354 0
M  V30 1907 H 168.638 -2.72694 -3.37373 0
M  V30 1908 H 169.309 -2.39491 -4.97341 0
M  V30 1909 H 171.785 -0.674314 -4.106 0
M  V30 1910 H 170.661 -0.448355 -5.47066 0
M  V30 1911 H 170.922 0.866297 -4.33529 0
M  V30 1912 N 169.982 1.44106 -0.638065 0
M  V30 1913 C 171.228 2.02277 -0.145546 0
M  V30 1914 C 171.561 1.50125 1.23191 0
M  V30 1915 O 170.836 0.688133 1.8192 0
M  V30 1916 C 171.119 3.59829 -0.139791 0
M  V30 1917 C 170.972 4.22247 -1.55008 0
M  V30 1918 C 172.291 4.36873 0.531966 0
M  V30 1919 H 169.41 0.734992 -0.0543632 0
M  V30 1920 H 172.052 1.71592 -0.815863 0
M  V30 1921 H 170.202 3.86102 0.431007 0
M  V30 1922 H 171.874 4.07057 -2.1703 0
M  V30 1923 H 170.117 3.79476 -2.10191 0
M  V30 1924 H 170.788 5.31284 -1.49804 0
M  V30 1925 H 173.264 4.16074 0.0464781 0
M  V30 1926 H 172.14 5.4657 0.505206 0
M  V30 1927 H 172.401 4.11995 1.60352 0
M  V30 1928 N 171.46 0.379036 1.52974 0
M  V30 1929 C 172.392 -0.495963 2.2377 0
M  V30 1930 C 173.405 -1.03517 1.25651 0
M  V30 1931 O 174.594 -0.939249 1.51791 0
M  V30 1932 C 171.694 -1.69894 2.93239 0
M  V30 1933 C 170.867 -1.2889 4.17979 0
M  V30 1934 C 169.926 -2.35543 4.70538 0
M  V30 1935 O 168.952 -1.97375 5.33883 0
M  V30 1936 N 170.154 -3.67318 4.49508 0
M  V30 1937 H 172.919 0.110523 2.99496 0
M  V30 1938 H 170.48 0.204878 1.60598 0
M  V30 1939 H 172.472 -2.40747 3.25304 0
M  V30 1940 H 171.042 -2.212 2.20883 0
M  V30 1941 H 170.262 -0.409676 3.92065 0
M  V30 1942 H 171.55 -0.991443 4.99047 0
M  V30 1943 H 170.948 -4.01095 3.98923 0
M  V30 1944 H 169.505 -4.34235 4.8609 0
M  V30 1945 N 172.938 -1.57226 0.108567 0
M  V30 1946 C 174.166 -1.99179 -0.559954 0
M  V30 1947 C 174.581 -0.988022 -1.60884 0
M  V30 1948 O 173.938 0.0205512 -1.82488 0
M  V30 1949 C 173.989 -3.41159 -1.19552 0
M  V30 1950 O 173.71 -4.37694 -0.188577 0
M  V30 1951 C 175.211 -3.98188 -1.94837 0
M  V30 1952 H 172.431 -0.654228 -0.149088 0
M  V30 1953 H 174.975 -2.03598 0.19183 0
M  V30 1954 H 173.13 -3.37711 -1.89815 0
M  V30 1955 H 173.544 -5.20469 -0.649014 0
M  V30 1956 H 175.018 -4.99644 -2.34648 0
M  V30 1957 H 175.495 -3.3675 -2.81951 0
M  V30 1958 H 176.101 -4.0515 -1.2936 0
M  V30 1959 N 174.416 0.165178 -1.56732 0
M  V30 1960 C 175.346 1.20651 -1.99914 0
M  V30 1961 C 176.327 1.45827 -0.875705 0
M  V30 1962 O 177.512 1.57057 -1.14223 0
M  V30 1963 C 174.642 2.54401 -2.36427 0
M  V30 1964 C 173.596 2.43782 -3.51787 0
M  V30 1965 C 172.922 3.82078 -3.7406 0
M  V30 1966 C 174.222 1.93732 -4.85041 0
M  V30 1967 H 175.916 0.847534 -2.87154 0
M  V30 1968 H 173.462 0.40625 -1.38151 0
M  V30 1969 H 175.415 3.27458 -2.65234 0
M  V30 1970 H 174.139 2.92098 -1.46103 0
M  V30 1971 H 172.798 1.73178 -3.23117 0
M  V30 1972 H 172.446 4.17179 -2.81017 0
M  V30 1973 H 172.146 3.7584 -4.51684 0
M  V30 1974 H 173.67 4.56712 -4.05274 0
M  V30 1975 H 175.084 2.56569 -5.12684 0
M  V30 1976 H 173.481 1.98428 -5.66345 0
M  V30 1977 H 174.551 0.891962 -4.76626 0
M  V30 1978 N 175.894 1.51508 0.433938 0
M  V30 1979 C 177.171 1.54888 1.19453 0
M  V30 1980 C 177.551 0.315154 2.08734 0
M  V30 1981 O 176.899 -0.699558 2.17528 0
M  V30 1982 C 177.109 2.86467 1.99342 0
M  V30 1983 C 178.457 3.38545 2.56267 0
M  V30 1984 O 179.481 2.88041 2.0955 0
M  V30 1985 O 178.34 4.26675 3.41483 0
M  V30 1986 H 175.434 0.622863 0.544032 0
M  V30 1987 H 177.98 1.63823 0.442732 0
M  V30 1988 H 176.752 3.67718 1.33788 0
M  V30 1989 H 176.375 2.8071 2.8158 0
M  V30 1990 N 177.372 -0.689602 1.41712 0
M  V30 1991 C 178.612 -1.46184 1.42862 0
M  V30 1992 C 178.976 -1.91962 0.0382204 0
M  V30 1993 O 180.177 -2.68694 -0.0755019 0
M  V30 1994 C 178.448 -2.6371 2.4123 0
M  V30 1995 S 180.007 -3.52768 2.6096 0
M  V30 1996 H 176.825 -0.49947 0.506015 0
M  V30 1997 H 179.427 -0.804107 1.78198 0
M  V30 1998 H 178.131 -2.28293 3.41044 0
M  V30 1999 H 177.662 -3.3437 2.07269 0
M  V30 2000 H 179.677 -4.59146 1.88148 0
M  V30 2001 N 178.85 -1.27639 -0.924453 0
M  V30 2002 C 179.78 -1.13166 -2.04244 0
M  V30 2003 C 180.761 -0.032256 -1.70069 0
M  V30 2004 O 181.946 -0.207328 -1.9309 0
M  V30 2005 C 179.076 -0.781496 -3.38393 0
M  V30 2006 C 178.03 -1.83449 -3.86692 0
M  V30 2007 C 177.356 -1.33822 -5.17683 0
M  V30 2008 C 178.656 -3.23917 -4.09726 0
M  V30 2009 H 180.35 -2.06689 -2.1661 0
M  V30 2010 H 177.896 -0.995136 -1.04082 0
M  V30 2011 H 179.849 -0.667057 -4.16087 0
M  V30 2012 H 178.573 0.189439 -3.2605 0
M  V30 2013 H 177.232 -1.93789 -3.11193 0
M  V30 2014 H 176.88 -0.35665 -5.01734 0
M  V30 2015 H 176.58 -2.04224 -5.50968 0
M  V30 2016 H 178.104 -1.23679 -5.97943 0
M  V30 2017 H 179.518 -3.16559 -4.77978 0
M  V30 2018 H 177.915 -3.92059 -4.54324 0
M  V30 2019 H 178.985 -3.68729 -3.14908 0
M  V30 2020 N 180.328 1.1314 -1.09713 0
M  V30 2021 C 181.744 1.36477 -0.827423 0
M  V30 2022 C 181.944 1.93654 0.556817 0
M  V30 2023 O 181 2.15791 1.31112 0
M  V30 2024 C 182.313 2.31334 -1.92106 0
M  V30 2025 C 183.861 2.44943 -1.94864 0
M  V30 2026 C 184.336 3.4311 -3.0338 0
M  V30 2027 N 185.827 3.50662 -3.02639 0
M  V30 2028 C 186.562 4.2651 -3.83246 0
M  V30 2029 N 186.058 5.05485 -4.73768 0
M  V30 2030 N 187.851 4.2184 -3.71493 0
M  V30 2031 H 180.002 0.743807 -1.9895 0
M  V30 2032 H 182.265 0.389823 -0.864143 0
M  V30 2033 H 181.971 1.96483 -2.91698 0
M  V30 2034 H 181.845 3.31381 -1.80184 0
M  V30 2035 H 184.232 2.79079 -0.959099 0
M  V30 2036 H 184.313 1.4481 -2.10864 0
M  V30 2037 H 183.957 3.09704 -4.02549 0
M  V30 2038 H 183.887 4.43055 -2.84622 0
M  V30 2039 H 186.378 2.94315 -2.37039 0
M  V30 2040 H 186.691 5.60675 -5.3185 0
M  V30 2041 H 185.036 5.04708 -4.77802 0
M  V30 2042 H 188.227 3.5922 -3.00131 0
M  V30 2043 H 188.4 4.80697 -4.3455 0
M  V30 2044 N 181.806 0.884767 1.30421 0
M  V30 2045 C 183.036 0.517293 2.00019 0
M  V30 2046 C 183.444 -0.898632 1.66497 0
M  V30 2047 O 182.787 -1.60245 0.898181 0
M  V30 2048 C 182.849 0.612025 3.54252 0
M  V30 2049 C 182.513 1.99222 4.1129 0
M  V30 2050 C 183.51 2.9616 4.273 0
M  V30 2051 C 181.195 2.29755 4.46674 0
M  V30 2052 C 183.189 4.21764 4.77906 0
M  V30 2053 C 180.876 3.55606 4.96979 0
M  V30 2054 C 181.874 4.51425 5.12547 0
M  V30 2055 O 181.562 5.75043 5.61766 0
M  V30 2056 H 181.294 0.198529 0.64619 0
M  V30 2057 H 183.848 1.1919 1.67281 0
M  V30 2058 H 182.078 -0.119561 3.86515 0
M  V30 2059 H 183.767 0.255859 4.05093 0
M  V30 2060 H 184.533 2.73882 4.00267 0
M  V30 2061 H 180.412 1.55942 4.33824 0
M  V30 2062 H 183.956 4.96561 4.89972 0
M  V30 2063 H 179.853 3.7772 5.23448 0
M  V30 2064 H 180.621 5.77422 5.80109 0
M  V30 2065 N 183.284 -1.43765 0.645699 0
M  V30 2066 C 184.53 -2.02731 0.164844 0
M  V30 2067 C 184.885 -1.49983 -1.2051 0
M  V30 2068 O 184.178 -0.680208 -1.79119 0
M  V30 2069 C 184.372 -3.57238 0.107679 0
M  V30 2070 C 184.201 -4.24977 1.47054 0
M  V30 2071 C 182.971 -4.61356 2.06103 0
M  V30 2072 C 185.169 -4.54476 2.40741 0
M  V30 2073 N 183.151 -5.14132 3.35473 0
M  V30 2074 C 184.522 -5.08489 3.54737 0
M  V30 2075 C 186.577 -4.36438 2.39637 0
M  V30 2076 C 185.28 -5.46364 4.67845 0
M  V30 2077 C 187.306 -4.7537 3.5182 0
M  V30 2078 C 186.668 -5.2951 4.64541 0
M  V30 2079 H 182.767 -0.774976 0.104578 0
M  V30 2080 H 185.351 -1.75051 0.852367 0
M  V30 2081 H 183.522 -3.84498 -0.549165 0
M  V30 2082 H 185.254 -4.0288 -0.383351 0
M  V30 2083 H 182.009 -4.46151 1.58892 0
M  V30 2084 H 182.433 -5.4498 4.01654 0
M  V30 2085 H 187.075 -3.93861 1.53731 0
M  V30 2086 H 184.793 -5.87888 5.54448 0
M  V30 2087 H 188.379 -4.63115 3.52159 0
M  V30 2088 H 187.259 -5.59077 5.49911 0
M  V30 2089 N 184.763 -0.387143 -1.52771 0
M  V30 2090 C 185.71 0.449048 -2.26389 0
M  V30 2091 C 186.68 1.05961 -1.27912 0
M  V30 2092 O 187.865 1.08804 -1.56737 0
M  V30 2093 C 185.005 1.57155 -3.0724 0
M  V30 2094 C 184.118 0.984066 -4.20643 0
M  V30 2095 C 183.253 2.07745 -4.88892 0
M  V30 2096 C 182.292 1.46574 -5.94292 0
M  V30 2097 N 181.429 2.49834 -6.56146 0
M  V30 2098 H 186.269 -0.185205 -2.97424 0
M  V30 2099 H 183.806 -0.103164 -1.46738 0
M  V30 2100 H 185.764 2.23309 -3.52405 0
M  V30 2101 H 184.394 2.17615 -2.38419 0
M  V30 2102 H 183.446 0.212193 -3.79808 0
M  V30 2103 H 184.758 0.497029 -4.96318 0
M  V30 2104 H 183.912 2.81673 -5.3735 0
M  V30 2105 H 182.651 2.59807 -4.12737 0
M  V30 2106 H 181.656 0.711696 -5.45174 0
M  V30 2107 H 182.881 0.953088 -6.72379 0
M  V30 2108 H 180.827 3.0107 -5.82832 0
M  V30 2109 H 180.744 2.05879 -7.27427 0
M  V30 2110 H 182.012 3.23399 -7.09249 0
M  V30 2111 N 186.241 1.57166 -0.116904 0
M  V30 2112 C 187.204 2.14039 0.819742 0
M  V30 2113 C 188.204 1.07477 1.19605 0
M  V30 2114 O 189.394 1.33263 1.1219 0
M  V30 2115 C 186.526 2.67891 2.10826 0
M  V30 2116 H 187.719 2.98128 0.325511 0
M  V30 2117 H 185.272 1.55739 0.132312 0
M  V30 2118 H 186.007 1.87384 2.64685 0
M  V30 2119 H 185.792 3.45823 1.84793 0
M  V30 2120 H 187.282 3.11809 2.77785 0
M  V30 2121 N 187.719 -0.156864 1.56817 0
M  V30 2122 C 188.947 -0.886316 1.86955 0
M  V30 2123 C 189.362 -1.75185 0.703975 0
M  V30 2124 O 188.719 -1.79555 -0.326552 0
M  V30 2125 C 188.77 -1.75117 3.16253 0
M  V30 2126 O 188.491 -0.920537 4.2832 0
M  V30 2127 C 189.992 -2.58905 3.59837 0
M  V30 2128 H 187.212 -0.25678 0.619923 0
M  V30 2129 H 189.756 -0.152615 2.0393 0
M  V30 2130 H 187.911 -2.43805 3.01062 0
M  V30 2131 H 188.325 -1.51337 5.02192 0
M  V30 2132 H 189.799 -3.1518 4.53172 0
M  V30 2133 H 190.276 -3.34472 2.84649 0
M  V30 2134 H 190.882 -1.95526 3.7769 0
M  V30 2135 N 189.197 -1.51736 -0.425897 0
M  V30 2136 C 190.147 -1.70258 -1.51645 0
M  V30 2137 C 191.131 -0.556488 -1.5097 0
M  V30 2138 O 192.323 -0.812879 -1.5723 0
M  V30 2139 C 189.452 -1.84143 -2.89735 0
M  V30 2140 C 188.538 -3.04572 -2.95122 0
M  V30 2141 N 188.929 -4.2756 -2.70233 0
M  V30 2142 C 187.227 -3.04061 -3.26286 0
M  V30 2143 C 187.928 -5.08908 -2.81757 0
M  V30 2144 N 186.904 -4.43797 -3.13919 0
M  V30 2145 H 190.706 -2.63004 -1.31172 0
M  V30 2146 H 188.22 -1.4954 -0.633375 0
M  V30 2147 H 190.217 -1.95525 -3.68206 0
M  V30 2148 H 188.877 -0.925857 -3.1122 0
M  V30 2149 H 189.888 -4.56315 -2.44943 0
M  V30 2150 H 186.565 -2.22179 -3.53473 0
M  V30 2151 H 187.955 -6.16843 -2.66372 0
M  V30 2152 N 190.675 0.682077 -1.42076 0
M  V30 2153 C 192.091 0.994324 -1.24841 0
M  V30 2154 C 192.291 2.0096 -0.147389 0
M  V30 2155 O 191.347 2.47822 0.483782 0
M  V30 2156 C 192.66 1.50607 -2.60265 0
M  V30 2157 C 194.208 1.62421 -2.6756 0
M  V30 2158 C 194.683 2.16994 -4.03333 0
M  V30 2159 N 196.174 2.24337 -4.0525 0
M  V30 2160 C 196.909 2.67621 -5.07116 0
M  V30 2161 N 196.405 3.1041 -6.19368 0
M  V30 2162 N 198.198 2.67305 -4.94474 0
M  V30 2163 H 190.349 0.00973908 -2.12398 0
M  V30 2164 H 192.612 0.0668593 -0.945639 0
M  V30 2165 H 192.318 0.834583 -3.41654 0
M  V30 2166 H 192.192 2.48602 -2.83684 0
M  V30 2167 H 194.579 2.28678 -1.86521 0
M  V30 2168 H 194.66 0.629352 -2.47937 0
M  V30 2169 H 194.304 1.51349 -4.84826 0
M  V30 2170 H 194.234 3.17258 -4.20304 0
M  V30 2171 H 196.725 1.94158 -3.24209 0
M  V30 2172 H 197.038 3.42103 -6.92954 0
M  V30 2173 H 195.383 3.08286 -6.22884 0
M  V30 2174 H 198.574 2.33233 -4.05857 0
M  V30 2175 H 198.747 3.00718 -5.73997 0
M  V30 2176 N 192.153 1.28127 0.917671 0
M  V30 2177 C 193.378 1.18007 1.70555 0
M  V30 2178 C 193.803 -0.258257 1.86319 0
M  V30 2179 O 193.161 -1.1869 1.37049 0
M  V30 2180 C 193.209 1.87948 3.07746 0
M  V30 2181 O 192.313 1.18427 3.9503 0
M  V30 2182 H 191.654 0.409867 0.522403 0
M  V30 2183 H 194.184 1.69379 1.1477 0
M  V30 2184 H 194.194 1.95701 3.58001 0
M  V30 2185 H 192.869 2.92573 2.95591 0
M  V30 2186 H 191.446 1.18811 3.53466 0
M  V30 2187 N 193.631 -1.12557 1.10312 0
M  V30 2188 C 195.042 -1.65574 0.862678 0
M  V30 2189 C 195.393 -1.86566 -0.607256 0
M  V30 2190 O 194.518 -1.59121 -1.46662 0
M  V30 2191 C 195.113 -3.00776 1.55947 0
M  V30 2192 C 193.672 -3.50748 1.36576 0
M  V30 2193 C 192.819 -2.25797 1.60968 0
M  V30 2194 H 195.77 -0.963552 1.26101 0
M  V30 2195 H 195.791 -3.67185 0.997753 0
M  V30 2196 H 195.303 -2.85465 2.62928 0
M  V30 2197 H 193.404 -3.71245 0.317531 0
M  V30 2198 H 193.517 -4.30289 2.10686 0
M  V30 2199 H 191.881 -2.32841 1.03234 0
M  V30 2200 H 192.664 -2.13043 2.69198 0
M  V30 2201 N 195.109 -0.891671 -1.2995 0
M  V30 2202 C 196.357 -0.512486 -1.95494 0
M  V30 2203 C 196.678 0.942776 -1.70695 0
M  V30 2204 O 195.948 1.66374 -1.03424 0
M  V30 2205 H 194.528 -0.186533 -0.723336 0
M  V30 2206 H 197.19 -1.13621 -1.58355 0
M  V30 2207 H 196.286 -0.688342 -3.04415 0
M  V30 2208 N 196.587 1.43421 -0.653314 0
M  V30 2209 C 197.519 2.29071 0.0769134 0
M  V30 2210 C 198.532 1.42513 0.787017 0
M  V30 2211 O 199.721 1.66449 0.644757 0
M  V30 2212 C 196.821 3.19436 1.13199 0
M  V30 2213 C 195.994 4.34533 0.500006 0
M  V30 2214 C 195.053 5.05771 1.45198 0
M  V30 2215 O 194.079 5.61037 0.960538 0
M  V30 2216 N 195.281 5.0928 2.78594 0
M  V30 2217 H 198.046 2.92382 -0.658235 0
M  V30 2218 H 195.607 1.54112 -0.496104 0
M  V30 2219 H 197.599 3.63958 1.76964 0
M  V30 2220 H 196.169 2.57724 1.7691 0
M  V30 2221 H 195.389 3.92925 -0.316738 0
M  V30 2222 H 196.677 5.08766 0.0588345 0
M  V30 2223 H 196.075 4.65751 3.2108 0
M  V30 2224 H 194.632 5.57519 3.37662 0
M  V30 2225 N 198.065 0.39524 1.52563 0
M  V30 2226 C 199.314 -0.186321 2.00838 0
M  V30 2227 C 199.627 -1.47402 1.28577 0
M  V30 2228 O 200.833 -2.13599 1.67593 0
M  V30 2229 C 199.289 -0.382595 3.57861 0
M  V30 2230 C 198.897 0.892202 4.39026 0
M  V30 2231 C 200.641 -0.9202 4.14406 0
M  V30 2232 C 198.548 0.66388 5.87662 0
M  V30 2233 H 197.478 -0.0734041 0.750418 0
M  V30 2234 H 200.129 0.518552 1.76021 0
M  V30 2235 H 198.511 -1.14946 3.7895 0
M  V30 2236 H 199.685 1.66414 4.29701 0
M  V30 2237 H 198 1.35519 3.9373 0
M  V30 2238 H 200.597 -1.10683 5.23119 0
M  V30 2239 H 200.94 -1.89096 3.70875 0
M  V30 2240 H 201.473 -0.212751 3.97231 0
M  V30 2241 H 198.212 1.6058 6.35527 0
M  V30 2242 H 197.732 -0.0690193 5.9976 0
M  V30 2243 H 199.411 0.300699 6.46301 0
M  V30 2244 N 199.544 -1.57102 0.125237 0
M  V30 2245 C 200.494 -2.12202 -0.833936 0
M  V30 2246 C 201.478 -1.04433 -1.22403 0
M  V30 2247 O 202.67 -1.30655 -1.19408 0
M  V30 2248 C 199.799 -2.72994 -2.08157 0
M  V30 2249 C 198.885 -3.87852 -1.71556 0
M  V30 2250 N 199.276 -4.9464 -1.05662 0
M  V30 2251 C 197.574 -3.98153 -2.00973 0
M  V30 2252 C 198.275 -5.74953 -0.883376 0
M  V30 2253 N 197.251 -5.24985 -1.41036 0
M  V30 2254 H 201.053 -2.92141 -0.321035 0
M  V30 2255 H 198.567 -1.62217 -0.0770315 0
M  V30 2256 H 200.564 -3.10816 -2.77847 0
M  V30 2257 H 199.224 -1.9452 -2.59985 0
M  V30 2258 H 200.235 -5.12872 -0.719878 0
M  V30 2259 H 196.912 -3.30728 -2.54804 0
M  V30 2260 H 198.302 -6.70904 -0.365675 0
M  V30 2261 N 201.022 0.148545 -1.56898 0
M  V30 2262 C 201.952 1.18524 -2.01182 0
M  V30 2263 C 202.933 1.4489 -0.891123 0
M  V30 2264 O 204.118 1.55836 -1.15882 0
M  V30 2265 C 201.248 2.51879 -2.39112 0
M  V30 2266 C 200.202 2.40038 -3.54353 0
M  V30 2267 C 199.528 3.78089 -3.78091 0
M  V30 2268 C 200.828 1.88577 -4.87069 0
M  V30 2269 H 202.522 0.817029 -2.88036 0
M  V30 2270 H 200.068 0.391575 -1.38574 0
M  V30 2271 H 202.021 3.24627 -2.68692 0
M  V30 2272 H 200.745 2.90532 -1.49193 0
M  V30 2273 H 199.404 1.69742 -3.24936 0
M  V30 2274 H 199.052 4.14175 -2.85426 0
M  V30 2275 H 198.752 3.71028 -4.55645 0
M  V30 2276 H 200.276 4.52387 -4.10095 0
M  V30 2277 H 201.69 2.51117 -5.15377 0
M  V30 2278 H 200.087 1.9241 -5.68417 0
M  V30 2279 H 201.157 0.84136 -4.77545 0
M  V30 2280 N 202.5 1.5196 0.417844 0
M  V30 2281 C 203.746 1.65836 1.16732 0
M  V30 2282 C 204.079 0.382881 1.90388 0
M  V30 2283 O 203.354 -0.618368 1.84408 0
M  V30 2284 C 203.637 2.87466 2.16876 0
M  V30 2285 C 203.49 4.25041 1.47174 0
M  V30 2286 C 204.809 3.04613 3.17646 0
M  V30 2287 H 201.928 0.603515 0.423011 0
M  V30 2288 H 204.57 1.84494 0.454105 0
M  V30 2289 H 202.72 2.71689 2.777 0
M  V30 2290 H 204.392 4.52527 0.895376 0
M  V30 2291 H 202.635 4.26843 0.773806 0
M  V30 2292 H 203.306 5.06176 2.20204 0
M  V30 2293 H 205.782 3.1923 2.66892 0
M  V30 2294 H 204.658 3.91247 3.8499 0
M  V30 2295 H 204.919 2.17541 3.84874 0
M  V30 2296 N 203.978 -0.674533 1.42435 0
M  V30 2297 C 204.91 -1.80005 1.41883 0
M  V30 2298 C 205.923 -1.59667 0.31787 0
M  V30 2299 O 207.112 -1.68781 0.580973 0
M  V30 2300 C 204.212 -3.17114 1.19549 0
M  V30 2301 C 203.385 -3.64299 2.42084 0
M  V30 2302 C 202.444 -4.80142 2.15291 0
M  V30 2303 O 201.47 -4.90673 2.88493 0
M  V30 2304 N 202.672 -5.68869 1.1562 0
M  V30 2305 H 205.437 -1.80964 2.38898 0
M  V30 2306 H 202.998 -0.857633 1.37318 0
M  V30 2307 H 204.99 -3.92267 0.995417 0
M  V30 2308 H 203.56 -3.11053 0.310569 0
M  V30 2309 H 202.78 -2.79822 2.77657 0
M  V30 2310 H 204.068 -3.92567 3.23679 0
M  V30 2311 H 203.466 -5.63012 0.550765 0
M  V30 2312 H 202.023 -6.43833 1.016 0
M  V30 2313 N 205.456 -1.28612 -0.910864 0
M  V30 2314 C 206.872 -1.06381 -1.18976 0
M  V30 2315 C 207.072 0.191998 -2.00583 0
M  V30 2316 O 206.128 0.892869 -2.36187 0
M  V30 2317 C 207.441 -2.31295 -1.92154 0
M  V30 2318 C 208.989 -2.36503 -2.05025 0
M  V30 2319 C 209.464 -3.61191 -2.81612 0
M  V30 2320 N 210.955 -3.61847 -2.89172 0
M  V30 2321 C 211.69 -4.55004 -3.4894 0
M  V30 2322 N 211.186 -5.58482 -4.09963 0
M  V30 2323 N 212.979 -4.42594 -3.46506 0
M  V30 2324 H 205.13 -2.09221 -0.366094 0
M  V30 2325 H 207.393 -0.921003 -0.224629 0
M  V30 2326 H 207.099 -3.228 -1.39618 0
M  V30 2327 H 206.973 -2.37934 -2.9269 0
M  V30 2328 H 209.36 -1.45494 -2.5674 0
M  V30 2329 H 209.441 -2.33857 -1.03657 0
M  V30 2330 H 209.085 -4.52545 -2.30576 0
M  V30 2331 H 209.015 -3.61092 -3.83302 0
M  V30 2332 H 211.506 -2.87022 -2.45819 0
M  V30 2333 H 211.819 -6.25704 -4.53557 0
M  V30 2334 H 210.164 -5.62305 -4.08459 0
M  V30 2335 H 213.355 -3.60953 -2.98045 0
M  V30 2336 H 213.528 -5.15381 -3.92793 0
M  V30 2337 N 206.934 1.1197 -1.10907 0
M  V30 2338 C 207.884 2.15946 -0.731538 0
M  V30 2339 C 208.868 1.58758 0.261699 0
M  V30 2340 O 210.06 1.76863 0.0696722 0
M  V30 2341 C 207.189 3.42877 -0.170299 0
M  V30 2342 C 206.275 4.07037 -1.19087 0
M  V30 2343 N 206.666 4.46135 -2.38322 0
M  V30 2344 C 204.964 4.33884 -1.03252 0
M  V30 2345 C 205.665 4.96331 -3.03366 0
M  V30 2346 N 204.641 4.9214 -2.30865 0
M  V30 2347 H 208.443 2.43947 -1.63912 0
M  V30 2348 H 205.957 1.28927 -0.987505 0
M  V30 2349 H 207.954 4.16732 0.118271 0
M  V30 2350 H 206.614 3.16343 0.731935 0
M  V30 2351 H 207.625 4.38345 -2.75815 0
M  V30 2352 H 204.302 4.17084 -0.186256 0
M  V30 2353 H 205.692 5.36257 -4.04818 0
M  V30 2354 N 208.412 0.89855 1.29475 0
M  V30 2355 C 209.823 0.572537 1.77705 0
M  V30 2356 C 210.174 -0.911778 1.73727 0
M  V30 2357 O 209.299 -1.71288 1.32247 0
M  V30 2358 C 209.894 1.03252 3.22683 0
M  V30 2359 C 208.453 0.757687 3.68695 0
M  V30 2360 C 207.6 1.20787 2.49612 0
M  V30 2361 H 210.551 1.08139 1.16153 0
M  V30 2362 H 210.572 0.367307 3.78723 0
M  V30 2363 H 210.084 2.11285 3.25546 0
M  V30 2364 H 208.185 -0.310079 3.71308 0
M  V30 2365 H 208.298 1.35476 4.59547 0
M  V30 2366 H 206.662 0.626888 2.46865 0
M  V30 2367 H 207.445 2.29622 2.55203 0
M  V30 2368 N 209.89 -1.43072 0.660911 0
M  V30 2369 C 211.301 -1.84932 0.256348 0
M  V30 2370 C 211.652 -1.55325 -1.19868 0
M  V30 2371 O 210.777 -1.00607 -1.91591 0
M  V30 2372 C 211.372 -3.35684 0.458475 0
M  V30 2373 C 209.931 -3.76245 0.108161 0
M  V30 2374 C 209.078 -2.66749 0.757641 0
M  V30 2375 H 212.029 -1.33116 0.864051 0
M  V30 2376 H 212.05 -3.79365 -0.293683 0
M  V30 2377 H 211.562 -3.572 1.51755 0
M  V30 2378 H 209.663 -3.60338 -0.948014 0
M  V30 2379 H 209.776 -4.76058 0.538992 0
M  V30 2380 H 208.14 -2.53989 0.190185 0
M  V30 2381 H 208.923 -2.91092 1.81989 0
M  V30 2382 N 211.368 -0.403325 -1.52352 0
M  V30 2383 C 212.593 0.176499 -2.06648 0
M  V30 2384 C 213.018 1.38577 -1.27193 0
M  V30 2385 O 212.376 1.7879 -0.300637 0
M  V30 2386 C 212.424 0.511061 -3.5696 0
M  V30 2387 O 211.528 1.60294 -3.79973 0
M  V30 2388 H 210.869 0.0167337 -0.663789 0
M  V30 2389 H 213.399 -0.574848 -1.96359 0
M  V30 2390 H 213.409 0.771362 -4.00642 0
M  V30 2391 H 212.084 -0.37296 -4.14224 0
M  V30 2392 H 210.661 1.33526 -3.48174 0
M  V30 2393 N 212.846 1.57033 -0.133567 0
M  V30 2394 C 213.756 2.19632 0.824564 0
M  V30 2395 C 214.772 1.17666 1.28182 0
M  V30 2396 O 215.948 1.50193 1.3418 0
M  V30 2397 C 213.013 2.79499 2.05137 0
M  V30 2398 C 212.074 3.96548 1.64464 0
M  V30 2399 C 211.307 4.5355 2.81297 0
M  V30 2400 O 211.53 4.09438 3.97136 0
M  V30 2401 O 210.464 5.44018 2.57542 0
M  V30 2402 H 214.29 3.01991 0.321766 0
M  V30 2403 H 211.875 1.49112 0.0927889 0
M  V30 2404 H 213.757 3.17602 2.7696 0
M  V30 2405 H 212.432 2.00162 2.54395 0
M  V30 2406 H 211.339 3.63186 0.897048 0
M  V30 2407 H 212.672 4.77364 1.19934 0
M  V30 2408 N 214.325 -0.140222 1.56975 0
M  V30 2409 C 215.235 -1.19223 2.02047 0
M  V30 2410 C 216.251 -1.46612 0.937062 0
M  V30 2411 O 217.427 -1.58148 1.24704 0
M  V30 2412 C 214.492 -2.50414 2.39778 0
M  V30 2413 C 213.553 -2.30612 3.621 0
M  V30 2414 C 212.786 -3.55547 3.98023 0
M  V30 2415 O 213.009 -4.62004 3.34528 0
M  V30 2416 O 211.943 -3.47808 4.91237 0
M  V30 2417 H 215.769 -0.839559 2.91865 0
M  V30 2418 H 213.354 -0.349453 1.45256 0
M  V30 2419 H 215.236 -3.27747 2.64877 0
M  V30 2420 H 213.911 -2.85198 1.53114 0
M  V30 2421 H 212.818 -1.51207 3.4218 0
M  V30 2422 H 214.151 -2.00741 4.49404 0
M  V30 2423 N 215.803 -1.52179 -0.40978 0
M  V30 2424 C 217.028 -1.70347 -1.18308 0
M  V30 2425 C 217.453 -0.411887 -1.83535 0
M  V30 2426 O 216.811 0.630587 -1.6998 0
M  V30 2427 C 216.859 -2.83977 -2.22238 0
M  V30 2428 O 215.963 -2.495 -3.28365 0
M  V30 2429 H 215.304 -0.567103 -0.345384 0
M  V30 2430 H 217.834 -1.98879 -0.480445 0
M  V30 2431 H 217.844 -3.0887 -2.66577 0
M  V30 2432 H 216.519 -3.77685 -1.74146 0
M  V30 2433 H 215.096 -2.35277 -2.89308 0
M  V30 2434 N 217.281 0.66697 -1.42791 0
M  V30 2435 C 218.213 1.7925 -1.42836 0
M  V30 2436 C 219.226 1.59496 -0.326333 0
M  V30 2437 O 220.415 1.6847 -0.589916 0
M  V30 2438 C 217.515 3.16476 -1.21229 0
M  V30 2439 C 216.688 3.63011 -2.44013 0
M  V30 2440 C 215.747 4.78993 -2.17834 0
M  V30 2441 O 214.773 4.89137 -2.91091 0
M  V30 2442 N 215.975 5.68248 -1.18635 0
M  V30 2443 H 218.74 1.79695 -2.39854 0
M  V30 2444 H 216.301 0.850338 -1.37771 0
M  V30 2445 H 218.293 3.91734 -1.01621 0
M  V30 2446 H 216.863 3.10884 -0.32706 0
M  V30 2447 H 216.083 2.78346 -2.79137 0
M  V30 2448 H 217.371 3.90845 -3.25757 0
M  V30 2449 H 216.769 5.62712 -0.580615 0
M  V30 2450 H 215.326 6.43285 -1.05013 0
M  V30 2451 N 218.759 1.29093 0.90403 0
M  V30 2452 C 219.722 1.1386 1.98919 0
M  V30 2453 C 220.722 0.0753457 1.60623 0
M  V30 2454 O 221.912 0.321931 1.71199 0
M  V30 2455 C 219.044 0.740198 3.32767 0
M  V30 2456 H 220.237 2.10246 2.13861 0
M  V30 2457 H 217.79 1.12218 1.08797 0
M  V30 2458 H 218.525 -0.223997 3.23525 0
M  V30 2459 H 218.31 1.50838 3.61926 0
M  V30 2460 H 219.8 0.656546 4.12407 0
M  V30 2461 N 220.237 -1.11381 1.11499 0
M  V30 2462 C 221.484 -1.83132 0.864231 0
M  V30 2463 C 221.812 -1.84683 -0.610114 0
M  V30 2464 O 221.067 -1.29589 -1.46646 0
M  V30 2465 C 221.366 -3.30026 1.37177 0
M  V30 2466 C 221.032 -3.48634 2.85946 0
M  V30 2467 C 219.694 -3.53421 3.26569 0
M  V30 2468 C 222.046 -3.54837 3.81759 0
M  V30 2469 C 219.374 -3.61967 4.61733 0
M  V30 2470 C 221.726 -3.64915 5.1674 0
M  V30 2471 C 220.39 -3.67962 5.5692 0
M  V30 2472 H 219.66 -0.670127 0.316245 0
M  V30 2473 H 222.307 -1.31354 1.3935 0
M  V30 2474 H 220.612 -3.84304 0.762753 0
M  V30 2475 H 222.309 -3.84034 1.15408 0
M  V30 2476 H 218.899 -3.45579 2.53521 0
M  V30 2477 H 223.083 -3.50399 3.51474 0
M  V30 2478 H 218.339 -3.62603 4.92269 0
M  V30 2479 H 222.513 -3.68658 5.90816 0
M  V30 2480 H 220.14 -3.74336 6.61647 0
M  V30 2481 N 221.715 -0.905404 -1.28997 0
M  V30 2482 C 222.647 -0.344748 -2.26592 0
M  V30 2483 C 223.66 0.512135 -1.54535 0
M  V30 2484 O 224.849 0.328368 -1.75454 0
M  V30 2485 C 221.949 0.526587 -3.34784 0
M  V30 2486 C 221.122 -0.305871 -4.36329 0
M  V30 2487 C 220.181 0.499209 -5.23827 0
M  V30 2488 O 219.207 -0.0853004 -5.69136 0
M  V30 2489 N 220.409 1.80408 -5.51755 0
M  V30 2490 H 223.174 -1.18359 -2.75338 0
M  V30 2491 H 220.735 -0.770481 -1.42391 0
M  V30 2492 H 222.727 1.07171 -3.90252 0
M  V30 2493 H 221.297 1.26613 -2.85811 0
M  V30 2494 H 220.517 -1.0324 -3.80441 0
M  V30 2495 H 221.805 -0.875773 -5.01206 0
M  V30 2496 H 221.203 2.3016 -5.16762 0
M  V30 2497 H 219.76 2.29621 -6.10014 0
M  V30 2498 N 223.193 1.4272 -0.668489 0
M  V30 2499 C 224.609 1.55992 -0.33745 0
M  V30 2500 C 224.809 1.64933 1.15756 0
M  V30 2501 O 223.865 1.61278 1.94282 0
M  V30 2502 C 225.178 2.81314 -1.06222 0
M  V30 2503 C 226.726 2.95078 -1.04394 0
M  V30 2504 C 227.201 4.23252 -1.74991 0
M  V30 2505 N 228.692 4.3015 -1.71829 0
M  V30 2506 C 229.427 5.28127 -2.23315 0
M  V30 2507 N 228.923 6.32293 -2.83156 0
M  V30 2508 N 230.716 5.19882 -2.13726 0
M  V30 2509 H 222.867 1.3516 -1.63846 0
M  V30 2510 H 225.13 0.650174 -0.689912 0
M  V30 2511 H 224.836 2.80823 -2.11734 0
M  V30 2512 H 224.71 3.72012 -0.62344 0
M  V30 2513 H 227.097 2.951 0.0028244 0
M  V30 2514 H 227.178 2.05627 -1.52155 0
M  V30 2515 H 226.822 4.2399 -2.79633 0
M  V30 2516 H 226.752 5.11626 -1.24685 0
M  V30 2517 H 229.243 3.55499 -1.28175 0
M  V30 2518 H 229.556 7.03398 -3.20079 0
M  V30 2519 H 227.901 6.32873 -2.87223 0
M  V30 2520 H 231.092 4.37423 -1.66669 0
M  V30 2521 H 231.265 5.96077 -2.54158 0
M  V30 2522 N 224.671 0.411399 1.52136 0
M  V30 2523 C 225.603 -0.448386 2.24771 0
M  V30 2524 C 226.616 -1.00828 1.27818 0
M  V30 2525 O 227.805 -0.906841 1.53749 0
M  V30 2526 C 224.905 -1.63636 2.96777 0
M  V30 2527 C 224.078 -1.19995 4.20618 0
M  V30 2528 C 223.137 -2.25509 4.75428 0
M  V30 2529 O 222.163 -1.86007 5.3795 0
M  V30 2530 N 223.365 -3.577 4.57199 0
M  V30 2531 H 226.13 0.174025 2.99194 0
M  V30 2532 H 223.691 0.238897 1.60128 0
M  V30 2533 H 225.683 -2.33793 3.30338 0
M  V30 2534 H 224.253 -2.16465 2.25526 0
M  V30 2535 H 223.473 -0.326421 3.92846 0
M  V30 2536 H 224.761 -0.885365 5.01038 0
M  V30 2537 H 224.159 -3.92543 4.07341 0
M  V30 2538 H 222.716 -4.23827 4.95191 0
M  V30 2539 N 226.149 -1.5696 0.141893 0
M  V30 2540 C 227.079 -2.19516 -0.795936 0
M  V30 2541 C 228.06 -1.14187 -1.26077 0
M  V30 2542 O 229.245 -1.42511 -1.31925 0
M  V30 2543 C 226.375 -2.81272 -2.03723 0
M  V30 2544 C 225.329 -3.92384 -1.70936 0
M  V30 2545 C 224.655 -4.41052 -3.02287 0
M  V30 2546 C 225.955 -5.13403 -0.959954 0
M  V30 2547 H 227.649 -2.98138 -0.274596 0
M  V30 2548 H 225.195 -1.43406 -0.130636 0
M  V30 2549 H 227.148 -3.237 -2.69808 0
M  V30 2550 H 225.872 -1.99973 -2.58221 0
M  V30 2551 H 224.531 -3.50566 -1.07232 0
M  V30 2552 H 224.179 -3.56582 -3.54765 0
M  V30 2553 H 223.879 -5.15993 -2.81114 0
M  V30 2554 H 225.403 -4.86146 -3.69451 0
M  V30 2555 H 226.817 -5.52706 -1.52279 0
M  V30 2556 H 225.214 -5.94073 -0.848357 0
M  V30 2557 H 226.284 -4.84875 0.0492434 0
M  V30 2558 N 227.627 0.131896 -1.57047 0
M  V30 2559 C 228.855 0.856461 -1.88341 0
M  V30 2560 C 229.27 1.74042 -0.731757 0
M  V30 2561 O 228.627 1.80051 0.297945 0
M  V30 2562 C 228.678 1.70064 -3.18999 0
M  V30 2563 O 228.399 0.852278 -4.2973 0
M  V30 2564 C 229.9 2.53148 -3.63911 0
M  V30 2565 H 227.12 0.246885 -0.62393 0
M  V30 2566 H 229.664 0.120152 -2.04147 0
M  V30 2567 H 227.819 2.38984 -3.04902 0
M  V30 2568 H 228.233 1.43329 -5.04537 0
M  V30 2569 H 229.707 3.07931 -4.58129 0
M  V30 2570 H 230.184 3.29901 -2.89935 0
M  V30 2571 H 230.79 1.89492 -3.80753 0
M  V30 2572 N 229.106 1.52395 0.401703 0
M  V30 2573 C 230.069 1.75636 1.47257 0
M  V30 2574 C 231.069 0.62628 1.48103 0
M  V30 2575 O 232.259 0.894227 1.49497 0
M  V30 2576 C 229.391 1.84553 2.86624 0
M  V30 2577 H 230.584 2.71241 1.27938 0
M  V30 2578 H 228.137 1.42923 0.632662 0
M  V30 2579 H 228.872 0.908882 3.11303 0
M  V30 2580 H 228.657 2.66715 2.87412 0
M  V30 2581 H 230.147 2.04251 3.64241 0
M  V30 2582 N 230.584 -0.659388 1.43143 0
M  V30 2583 C 231.514 -1.78422 1.50625 0
M  V30 2584 C 232.495 -1.66216 0.361443 0
M  V30 2585 O 233.68 -1.85404 0.577834 0
M  V30 2586 C 230.81 -3.16815 1.42287 0
M  V30 2587 C 229.764 -3.43777 2.54954 0
M  V30 2588 C 229.09 -4.81905 2.31671 0
M  V30 2589 C 230.39 -3.39134 3.97222 0
M  V30 2590 H 232.084 -1.72417 2.44771 0
M  V30 2591 H 229.63 -0.828084 1.17808 0
M  V30 2592 H 231.583 -3.95253 1.46127 0
M  V30 2593 H 230.307 -3.23534 0.446435 0
M  V30 2594 H 228.966 -2.67707 2.50457 0
M  V30 2595 H 228.614 -4.85294 1.32284 0
M  V30 2596 H 228.314 -5.00906 3.07192 0
M  V30 2597 H 229.838 -5.62609 2.37284 0
M  V30 2598 H 231.252 -4.07518 4.03239 0
M  V30 2599 H 229.649 -3.69671 4.72719 0
M  V30 2600 H 230.719 -2.37426 4.22797 0
M  V30 2601 N 232.062 -1.29571 -0.897171 0
M  V30 2602 C 233.311 -1.1706 -1.64256 0
M  V30 2603 C 233.624 0.276476 -1.93636 0
M  V30 2604 O 234.83 0.52294 -2.66416 0
M  V30 2605 C 233.286 -2.0475 -2.95982 0
M  V30 2606 C 232.894 -3.54295 -2.74187 0
M  V30 2607 C 234.638 -2.0097 -3.73914 0
M  V30 2608 C 232.545 -4.34081 -4.01656 0
M  V30 2609 H 231.475 -0.43452 -0.616205 0
M  V30 2610 H 234.126 -1.54229 -0.994268 0
M  V30 2611 H 232.508 -1.60452 -3.62038 0
M  V30 2612 H 233.682 -4.06662 -2.1671 0
M  V30 2613 H 231.997 -3.59773 -2.09648 0
M  V30 2614 H 234.594 -2.57838 -4.68427 0
M  V30 2615 H 234.937 -0.990273 -4.0435 0
M  V30 2616 H 235.47 -2.43325 -3.14703 0
M  V30 2617 H 232.209 -5.36671 -3.76384 0
M  V30 2618 H 231.729 -3.86483 -4.58684 0
M  V30 2619 H 233.408 -4.44877 -4.69781 0
M  V30 2620 N 233.54 1.10788 -1.12088 0
M  V30 2621 C 234.788 1.8231 -0.872205 0
M  V30 2622 C 235.109 1.85419 0.603709 0
M  V30 2623 O 234.379 1.32963 1.43867 0
M  V30 2624 H 232.959 0.675137 -0.319686 0
M  V30 2625 H 235.621 1.34068 -1.41463 0
M  V30 2626 H 234.717 2.85955 -1.25045 0
M  V30 2627 N 235.018 0.912232 1.28515 0
M  V30 2628 C 236.248 0.559604 1.98877 0
M  V30 2629 C 236.656 -0.863113 1.68366 0
M  V30 2630 O 235.999 -1.58304 0.931969 0
M  V30 2631 C 236.061 0.68703 3.52874 0
M  V30 2632 C 235.725 2.07901 4.06972 0
M  V30 2633 C 236.722 3.05157 4.20922 0
M  V30 2634 C 234.407 2.39178 4.417 0
M  V30 2635 C 236.401 4.31806 4.68852 0
M  V30 2636 C 234.088 3.66068 4.89324 0
M  V30 2637 C 235.086 4.62195 5.02856 0
M  V30 2638 O 234.774 5.86829 5.49442 0
M  V30 2639 H 234.506 0.212191 0.641834 0
M  V30 2640 H 237.06 1.22712 1.64715 0
M  V30 2641 H 235.29 -0.0375486 3.86682 0
M  V30 2642 H 236.979 0.341727 4.04459 0
M  V30 2643 H 237.745 2.82311 3.94367 0
M  V30 2644 H 233.624 1.65109 4.30418 0
M  V30 2645 H 237.168 5.06842 4.79329 0
M  V30 2646 H 233.065 3.88739 5.15318 0
M  V30 2647 H 233.833 5.89597 5.6773 0
M  V30 2648 N 236.496 -1.42363 0.676048 0
M  V30 2649 C 237.773 -1.95183 0.127726 0
M  V30 2650 C 238.153 -1.61641 -1.35777 0
M  V30 2651 O 237.501 -0.913216 -2.09458 0
M  V30 2652 C 237.711 -3.46721 0.398199 0
M  V30 2653 C 239.059 -4.23427 0.315383 0
M  V30 2654 O 240.083 -3.54649 0.332016 0
M  V30 2655 O 238.942 -5.45888 0.25865 0
M  V30 2656 H 236.036 -0.826992 0.00359427 0
M  V30 2657 H 238.582 -1.52184 0.750864 0
M  V30 2658 H 237.354 -3.64344 1.4272 0
M  V30 2659 H 236.977 -3.96769 -0.256885 0
M  V30 2660 N 237.974 -0.419461 -1.51915 0
M  V30 2661 C 239.22 0.153166 -2.02221 0
M  V30 2662 C 239.553 1.43907 -1.30401 0
M  V30 2663 O 238.828 1.90055 -0.413438 0
M  V30 2664 C 239.111 0.390291 -3.57979 0
M  V30 2665 C 238.964 -0.913014 -4.40436 0
M  V30 2666 C 240.283 1.16794 -4.2432 0
M  V30 2667 H 237.402 0.0541924 -0.735005 0
M  V30 2668 H 240.044 -0.554955 -1.81715 0
M  V30 2669 H 238.194 0.993491 -3.75582 0
M  V30 2670 H 239.866 -1.54882 -4.34522 0
M  V30 2671 H 238.109 -1.52168 -4.06236 0
M  V30 2672 H 238.78 -0.701361 -5.47526 0
M  V30 2673 H 241.256 0.657161 -4.10878 0
M  V30 2674 H 240.132 1.3026 -5.3322 0
M  V30 2675 H 240.393 2.19132 -3.83971 0
M  V30 2676 N 239.452 1.56882 -0.150215 0
M  V30 2677 C 240.68 2.00593 0.506948 0
M  V30 2678 C 241.095 1.03033 1.58208 0
M  V30 2679 O 240.452 0.0278396 1.82479 0
M  V30 2680 C 240.503 3.44209 1.10465 0
M  V30 2681 O 240.224 4.3804 0.0724636 0
M  V30 2682 C 241.725 4.03214 1.84211 0
M  V30 2683 H 238.945 0.65795 0.13169 0
M  V30 2684 H 241.489 2.03018 -0.245743 0
M  V30 2685 H 239.644 3.42625 1.80795 0
M  V30 2686 H 240.058 5.22007 0.510793 0
M  V30 2687 H 241.532 5.0569 2.21318 0
M  V30 2688 H 242.009 3.44107 2.72923 0
M  V30 2689 H 242.615 4.08437 1.18572 0
M  V30 2690 N 240.93 -0.123565 1.57115 0
M  V30 2691 C 242.207 -0.862196 1.75572 0
M  V30 2692 C 242.587 -1.98279 0.724475 0
M  V30 2693 O 241.935 -2.27102 -0.252407 0
M  V30 2694 C 242.145 -1.38309 3.20424 0
M  V30 2695 C 243.493 -1.83724 3.82793 0
M  V30 2696 O 244.517 -1.47999 3.23998 0
M  V30 2697 O 243.376 -2.49685 4.86127 0
M  V30 2698 H 240.47 -0.409113 0.718718 0
M  V30 2699 H 243.016 -0.107661 1.69358 0
M  V30 2700 H 241.788 -0.578889 3.86994 0
M  V30 2701 H 241.411 -2.20046 3.31158 0
M  V30 2702 N 242.408 -1.52605 -0.393616 0
M  V30 2703 C 243.654 -1.67672 -1.14079 0
M  V30 2704 C 243.987 -0.413121 -1.89755 0
M  V30 2705 O 243.262 0.588952 -1.85369 0
M  V30 2706 C 243.545 -2.9088 -2.12276 0
M  V30 2707 C 243.398 -4.27329 -1.40394 0
M  V30 2708 C 244.717 -3.09628 -3.12759 0
M  V30 2709 H 241.836 -0.610168 -0.413356 0
M  V30 2710 H 244.478 -1.85193 -0.424696 0
M  V30 2711 H 242.628 -2.76073 -2.73342 0
M  V30 2712 H 244.3 -4.53894 -0.82327 0
M  V30 2713 H 242.543 -4.2802 -0.705801 0
M  V30 2714 H 243.214 -5.09615 -2.12123 0
M  V30 2715 H 245.69 -3.23436 -2.61779 0
M  V30 2716 H 244.566 -3.97322 -3.78717 0
M  V30 2717 H 244.827 -2.23637 -3.81365 0
M  V30 2718 N 243.887 0.651787 -1.4349 0
M  V30 2719 C 245.112 1.44434 -1.48841 0
M  V30 2720 C 245.537 1.8779 -0.107955 0
M  V30 2721 O 244.895 1.57464 0.898602 0
M  V30 2722 C 244.943 2.65458 -2.44059 0
M  V30 2723 O 244.047 3.64566 -1.92784 0
M  V30 2724 H 243.388 0.433005 -0.503391 0
M  V30 2725 H 245.918 0.797451 -1.88419 0
M  V30 2726 H 245.928 3.13255 -2.6141 0
M  V30 2727 H 244.603 2.33244 -3.4434 0
M  V30 2728 H 243.18 3.23716 -1.851 0
M  V30 2729 N 245.365 1.30045 0.890287 0
M  V30 2730 C 246.313 1.15873 2.01683 0
M  V30 2731 C 247.307 0.0719403 1.69247 0
M  V30 2732 O 248.513 0.232414 1.78493 0
M  V30 2733 H 244.888 0.358203 0.661207 0
M  V30 2734 H 246.859 2.11229 2.10772 0
M  V30 2735 C 245.608 0.861842 3.36849 0
M  V30 2736 H 244.931 1.69016 3.62317 0
M  V30 2737 H 246.371 0.802762 4.16331 0
M  V30 2738 C 244.83 -0.435132 3.34078 0
M  V30 2739 O 245.36 -1.4583 3.74295 0
M  V30 2740 N 243.566 -0.444377 2.87182 0
M  V30 2741 H 243.113 0.388723 2.5465 0
M  V30 2742 H 243.071 -1.31213 2.85711 0
M  V30 2743 N 246.843 -1.10192 1.12674 0
M  V30 2744 C 248.089 -1.82475 0.884915 0
M  V30 2745 C 248.422 -1.85093 -0.58773 0
M  V30 2746 O 247.697 -1.3134 -1.43457 0
M  V30 2747 C 247.98 -3.29018 1.46353 0
M  V30 2748 C 247.833 -3.34718 3.00473 0
M  V30 2749 C 249.152 -4.25473 1.12519 0
M  V30 2750 H 246.271 -0.662492 0.322915 0
M  V30 2751 H 248.913 -1.2913 1.39375 0
M  V30 2752 H 247.063 -3.74576 1.03077 0
M  V30 2753 H 248.735 -2.97622 3.52447 0
M  V30 2754 H 246.978 -2.74541 3.35872 0
M  V30 2755 H 247.649 -4.37918 3.36053 0
M  V30 2756 H 250.125 -3.88161 1.499 0
M  V30 2757 H 249.001 -5.26365 1.55663 0
M  V30 2758 H 249.262 -4.42084 0.0377407 0
M  V30 2759 N 248.321 -0.919034 -1.28029 0
M  V30 2760 C 249.271 -0.382574 -2.24767 0
M  V30 2761 C 250.255 0.508286 -1.52661 0
M  V30 2762 O 251.447 0.347145 -1.73562 0
M  V30 2763 C 248.576 0.371432 -3.41285 0
M  V30 2764 C 247.662 -0.535449 -4.20706 0
M  V30 2765 N 248.053 -1.65141 -4.78082 0
M  V30 2766 C 246.351 -0.336824 -4.44726 0
M  V30 2767 C 247.052 -2.21475 -5.37888 0
M  V30 2768 N 246.028 -1.50537 -5.22341 0
M  V30 2769 H 249.83 -1.23477 -2.66703 0
M  V30 2770 H 247.344 -0.772299 -1.42861 0
M  V30 2771 H 249.341 0.772638 -4.09678 0
M  V30 2772 H 248.001 1.22066 -3.00882 0
M  V30 2773 H 249.012 -2.03392 -4.7629 0
M  V30 2774 H 245.689 0.47246 -4.14818 0
M  V30 2775 H 247.079 -3.15379 -5.93284 0
M  V30 2776 N 249.799 1.42003 -0.683588 0
M  V30 2777 C 251.076 1.95112 -0.138075 0
M  V30 2778 C 251.456 1.62359 1.34918 0
M  V30 2779 O 250.804 0.924311 2.08971 0
M  V30 2780 C 251.014 3.46505 -0.416581 0
M  V30 2781 C 252.362 4.23254 -0.337834 0
M  V30 2782 O 253.386 3.54468 -0.35082 0
M  V30 2783 O 252.245 5.45743 -0.287596 0
M  V30 2784 H 249.339 0.826961 -0.00797996 0
M  V30 2785 H 251.885 1.51784 -0.758924 0
M  V30 2786 H 250.657 3.63582 -1.4465 0
M  V30 2787 H 250.28 3.969 0.235839 0
M  V30 2788 N 251.277 0.427512 1.51691 0
M  V30 2789 C 252.554 -0.201684 1.94557 0
M  V30 2790 C 252.934 -1.60981 1.36559 0
M  V30 2791 O 252.282 -2.21814 0.548702 0
M  V30 2792 C 252.492 -0.189394 3.48486 0
M  V30 2793 C 253.84 -0.39978 4.22714 0
M  V30 2794 O 254.864 -0.267945 3.55191 0
M  V30 2795 O 253.723 -0.661249 5.42485 0
M  V30 2796 H 250.817 -0.135261 0.815864 0
M  V30 2797 H 253.363 0.484782 1.62628 0
M  V30 2798 H 252.135 0.795431 3.8313 0
M  V30 2799 H 251.758 -0.919187 3.86829 0
M  V30 2800 N 252.755 -1.56801 0.158532 0
M  V30 2801 C 253.665 -2.20916 -0.789518 0
M  V30 2802 C 254.681 -1.1969 -1.26294 0
M  V30 2803 O 255.857 -1.52308 -1.31773 0
M  V30 2804 C 252.922 -2.82727 -2.00665 0
M  V30 2805 C 251.983 -3.99114 -1.58134 0
M  V30 2806 C 251.216 -4.57968 -2.74045 0
M  V30 2807 O 251.439 -4.15704 -3.90572 0
M  V30 2808 O 250.373 -5.48047 -2.48855 0
M  V30 2809 H 254.199 -3.02464 -0.273681 0
M  V30 2810 H 251.784 -1.4924 -0.0690548 0
M  V30 2811 H 253.666 -3.21968 -2.71872 0
M  V30 2812 H 252.341 -2.04184 -2.51179 0
M  V30 2813 H 251.248 -3.64567 -0.839155 0
M  V30 2814 H 252.581 -4.79212 -1.12325 0
M  V30 2815 N 254.233 0.115231 -1.57178 0
M  V30 2816 C 255.163 1.1423 -2.03651 0
M  V30 2817 C 256.144 1.42967 -0.921655 0
M  V30 2818 O 257.329 1.53343 -1.19162 0
M  V30 2819 C 254.459 2.4675 -2.44401 0
M  V30 2820 C 253.413 2.32467 -3.59365 0
M  V30 2821 C 252.739 3.69984 -3.86026 0
M  V30 2822 C 254.039 1.78203 -4.90959 0
M  V30 2823 H 255.733 0.755749 -2.89705 0
M  V30 2824 H 253.279 0.362093 -1.39373 0
M  V30 2825 H 255.232 3.18854 -2.75517 0
M  V30 2826 H 253.956 2.87302 -1.55322 0
M  V30 2827 H 252.615 1.62811 -3.28463 0
M  V30 2828 H 252.263 4.08028 -2.94147 0
M  V30 2829 H 251.963 3.61279 -4.63412 0
M  V30 2830 H 253.487 4.43587 -4.19599 0
M  V30 2831 H 254.901 2.40128 -5.20587 0
M  V30 2832 H 253.298 1.8031 -5.72371 0
M  V30 2833 H 254.368 0.739876 -4.79222 0
M  V30 2834 N 255.711 1.52812 0.385517 0
M  V30 2835 C 256.621 1.80766 1.49535 0
M  V30 2836 C 257.637 0.694651 1.59532 0
M  V30 2837 O 258.813 0.982611 1.75803 0
M  V30 2838 C 255.878 1.97381 2.85029 0
M  V30 2839 C 254.939 3.21295 2.84724 0
M  V30 2840 C 254.172 3.37108 4.13756 0
M  V30 2841 O 254.395 2.5765 5.08893 0
M  V30 2842 O 253.329 4.30378 4.20783 0
M  V30 2843 H 257.155 2.75015 1.28842 0
M  V30 2844 H 254.74 1.37946 0.573697 0
M  V30 2845 H 256.622 2.09996 3.65349 0
M  V30 2846 H 255.297 1.06322 3.05741 0
M  V30 2847 H 254.204 3.1412 2.03174 0
M  V30 2848 H 255.537 4.12212 2.68965 0
M  V30 2849 N 257.189 -0.644168 1.43834 0
M  V30 2850 C 258.436 -1.40395 1.4593 0
M  V30 2851 C 258.764 -1.94305 0.0869658 0
M  V30 2852 O 258.019 -1.73288 -0.909378 0
M  V30 2853 C 258.318 -2.59615 2.45631 0
M  V30 2854 C 257.984 -2.2407 3.91284 0
M  V30 2855 C 256.646 -2.14089 4.30952 0
M  V30 2856 C 258.998 -1.95775 4.83034 0
M  V30 2857 C 256.326 -1.73981 5.6031 0
M  V30 2858 C 258.678 -1.57163 6.12766 0
M  V30 2859 C 257.342 -1.45713 6.51402 0
M  V30 2860 H 256.612 -0.513741 0.533995 0
M  V30 2861 H 259.259 -0.731724 1.76969 0
M  V30 2862 H 257.564 -3.32011 2.08028 0
M  V30 2863 H 259.261 -3.17834 2.44504 0
M  V30 2864 H 255.851 -2.32753 3.59895 0
M  V30 2865 H 260.035 -2.02403 4.53152 0
M  V30 2866 H 255.291 -1.63709 5.89075 0
M  V30 2867 H 259.465 -1.34303 6.83327 0
M  V30 2868 H 257.092 -1.14406 7.51542 0
M  V30 2869 N 258.668 -1.30515 -0.883378 0
M  V30 2870 C 259.896 -1.22359 -1.66841 0
M  V30 2871 C 260.311 0.213296 -1.87591 0
M  V30 2872 O 259.668 1.14075 -1.42454 0
M  V30 2873 C 259.719 -1.95011 -3.04389 0
M  V30 2874 O 259.44 -3.3309 -2.84575 0
M  V30 2875 C 260.941 -1.93532 -3.98824 0
M  V30 2876 H 258.161 -0.423371 -0.520575 0
M  V30 2877 H 260.705 -1.72167 -1.10357 0
M  V30 2878 H 258.86 -1.48997 -3.57601 0
M  V30 2879 H 259.274 -3.69907 -3.71846 0
M  V30 2880 H 260.748 -2.48902 -4.92699 0
M  V30 2881 H 261.225 -0.914627 -4.29571 0
M  V30 2882 H 261.831 -2.39364 -3.51547 0
M  V30 2883 N 260.146 1.09593 -1.13257 0
M  V30 2884 C 261.562 1.33775 -0.870423 0
M  V30 2885 C 261.762 1.95327 0.494926 0
M  V30 2886 O 260.818 2.19853 1.2418 0
M  V30 2887 C 262.131 2.25106 -1.99369 0
M  V30 2888 C 263.679 2.3862 -2.02558 0
M  V30 2889 C 264.154 3.33285 -3.14142 0
M  V30 2890 N 265.645 3.40857 -3.13641 0
M  V30 2891 C 266.38 4.14101 -3.96621 0
M  V30 2892 N 265.876 4.90157 -4.8961 0
M  V30 2893 N 267.669 4.09808 -3.84726 0
M  V30 2894 H 259.82 0.680136 -2.01216 0
M  V30 2895 H 262.083 0.362133 -0.876107 0
M  V30 2896 H 261.789 1.87103 -2.97801 0
M  V30 2897 H 261.663 3.25481 -1.90635 0
M  V30 2898 H 264.05 2.75887 -1.0474 0
M  V30 2899 H 264.131 1.38028 -2.15364 0
M  V30 2900 H 263.775 2.96741 -4.12198 0
M  V30 2901 H 263.705 4.33776 -2.98574 0
M  V30 2902 H 266.196 2.86624 -2.46282 0
M  V30 2903 H 266.509 5.4347 -5.49418 0
M  V30 2904 H 264.854 4.89251 -4.93617 0
M  V30 2905 H 268.045 3.4949 -3.11408 0
M  V30 2906 H 268.218 4.66629 -4.49623 0
M  V30 2907 N 261.624 0.925811 1.2754 0
M  V30 2908 C 263.04 0.625767 1.46821 0
M  V30 2909 C 263.24 -0.825506 1.83814 0
M  V30 2910 O 262.296 -1.60356 1.95044 0
M  V30 2911 C 263.609 1.57402 2.56213 0
M  V30 2912 C 265.157 1.58204 2.70075 0
M  V30 2913 C 265.632 2.51721 3.82623 0
M  V30 2914 N 267.123 2.49917 3.89994 0
M  V30 2915 C 267.858 3.18968 4.76494 0
M  V30 2916 N 267.354 3.97391 5.67496 0
M  V30 2917 N 269.147 3.07996 4.70208 0
M  V30 2918 H 261.298 1.86409 1.01811 0
M  V30 2919 H 263.561 0.800213 0.508295 0
M  V30 2920 H 263.267 2.60925 2.35819 0
M  V30 2921 H 263.141 1.31428 3.53563 0
M  V30 2922 H 265.528 0.554124 2.89851 0
M  V30 2923 H 265.609 1.88226 1.73218 0
M  V30 2924 H 265.253 3.54622 3.63601 0
M  V30 2925 H 265.183 2.18996 4.78903 0
M  V30 2926 H 267.674 1.9296 3.24923 0
M  V30 2927 H 267.987 4.4707 6.30356 0
M  V30 2928 H 266.332 4.01495 5.67298 0
M  V30 2929 H 269.523 2.46223 3.9811 0
M  V30 2930 H 269.696 3.6208 5.37403 0
M  V30 2931 N 263.102 -1.41638 0.69111 0
M  V30 2932 C 264.35 -2.00902 0.219758 0
M  V30 2933 C 264.671 -1.54994 -1.18329 0
M  V30 2934 O 263.941 -0.778628 -1.79762 0
M  V30 2935 H 262.521 -0.74289 0.0782558 0
M  V30 2936 H 265.183 -1.73327 0.891271 0
M  V30 2937 H 264.279 -3.11224 0.233708 0
M  V30 2938 N 264.58 -0.43555 -1.51462 0
M  V30 2939 C 265.51 0.367376 -2.30592 0
M  V30 2940 C 266.491 1.02263 -1.35928 0
M  V30 2941 O 267.676 1.02661 -1.64847 0
M  V30 2942 C 264.806 1.46983 -3.14664 0
M  V30 2943 C 263.76 0.938161 -4.17591 0
M  V30 2944 C 263.086 2.13622 -4.90173 0
M  V30 2945 C 264.386 -0.0261621 -5.22293 0
M  V30 2946 H 266.08 -0.292969 -2.97963 0
M  V30 2947 H 263.626 -0.14234 -1.43295 0
M  V30 2948 H 265.579 2.03873 -3.688 0
M  V30 2949 H 264.303 2.15843 -2.4511 0
M  V30 2950 H 262.962 0.391481 -3.64504 0
M  V30 2951 H 262.61 2.81098 -4.17124 0
M  V30 2952 H 262.31 1.78688 -5.59772 0
M  V30 2953 H 263.834 2.7107 -5.47132 0
M  V30 2954 H 265.248 0.452384 -5.71512 0
M  V30 2955 H 263.645 -0.287992 -5.99409 0
M  V30 2956 H 264.715 -0.963391 -4.75233 0
M  V30 2957 N 266.058 1.56714 -0.166846 0
M  V30 2958 C 267.304 1.97039 0.479962 0
M  V30 2959 C 267.637 1.05264 1.63197 0
M  V30 2960 O 266.912 0.0988833 1.94248 0
M  V30 2961 C 267.195 3.46867 0.967212 0
M  V30 2962 C 267.048 4.49421 -0.18466 0
M  V30 2963 C 268.367 3.9968 1.84238 0
M  V30 2964 H 265.486 0.71641 0.172992 0
M  V30 2965 H 268.128 1.8832 -0.252079 0
M  V30 2966 H 266.278 3.54428 1.59101 0
M  V30 2967 H 267.95 4.53924 -0.821621 0
M  V30 2968 H 266.193 4.25573 -0.840837 0
M  V30 2969 H 266.864 5.51644 0.198317 0
M  V30 2970 H 269.34 3.94723 1.31655 0
M  V30 2971 H 268.216 5.04941 2.15234 0
M  V30 2972 H 268.477 3.43226 2.78654 0
M  V30 2973 N 267.536 -0.106894 1.57237 0
M  V30 2974 C 268.764 -0.826389 1.8968 0
M  V30 2975 C 269.179 -1.72856 0.759353 0
M  V30 2976 O 268.536 -1.80503 -0.269263 0
M  V30 2977 C 268.587 -1.64967 3.21665 0
M  V30 2978 O 268.308 -0.783804 4.31031 0
M  V30 2979 C 269.809 -2.47326 3.67892 0
M  V30 2980 H 267.029 -0.236927 0.627779 0
M  V30 2981 H 269.573 -0.0876593 2.04312 0
M  V30 2982 H 267.728 -2.34103 3.08666 0
M  V30 2983 H 268.142 -1.35284 5.06753 0
M  V30 2984 H 269.616 -3.00604 4.6297 0
M  V30 2985 H 270.093 -3.25247 2.95146 0
M  V30 2986 H 270.699 -1.83411 3.83719 0
M  V30 2987 N 269.014 -1.53014 -0.377408 0
M  V30 2988 C 270.425 -1.60438 -0.954798 0
M  V30 2989 C 270.776 -0.464418 -1.90624 0
M  V30 2990 O 269.901 0.41087 -2.12464 0
M  V30 2991 C 270.496 -2.90797 -1.73847 0
M  V30 2992 C 269.055 -3.00595 -2.26538 0
M  V30 2993 C 268.202 -2.55645 -1.07429 0
M  V30 2994 H 271.153 -1.57926 -0.156575 0
M  V30 2995 H 271.174 -2.77935 -2.5987 0
M  V30 2996 H 270.686 -3.73746 -1.04574 0
M  V30 2997 H 268.787 -2.22208 -2.99089 0
M  V30 2998 H 268.9 -4.05456 -2.5523 0
M  V30 2999 H 267.264 -2.10239 -1.43777 0
M  V30 3000 H 268.047 -3.41 -0.396728 0
M  V30 3001 N 270.492 0.636531 -1.44174 0
M  V30 3002 C 271.908 0.954104 -1.27941 0
M  V30 3003 C 272.108 2.0039 -0.211248 0
M  V30 3004 O 271.164 2.49236 0.404695 0
M  V30 3005 C 272.477 1.4225 -2.64925 0
M  V30 3006 C 274.025 1.53827 -2.72592 0
M  V30 3007 C 274.5 2.04053 -4.10032 0
M  V30 3008 N 275.991 2.11331 -4.12182 0
M  V30 3009 C 276.726 2.51352 -5.15374 0
M  V30 3010 N 276.222 2.90549 -6.2893 0
M  V30 3011 N 278.015 2.51438 -5.02728 0
M  V30 3012 H 270.166 -0.0578386 -2.12321 0
M  V30 3013 H 272.429 0.0367406 -0.947288 0
M  V30 3014 H 272.135 0.725466 -3.44136 0
M  V30 3015 H 272.009 2.39451 -2.9145 0
M  V30 3016 H 274.396 2.22628 -1.93702 0
M  V30 3017 H 274.477 0.550154 -2.49814 0
M  V30 3018 H 274.121 1.35848 -4.89395 0
M  V30 3019 H 274.051 3.03726 -4.30184 0
M  V30 3020 H 276.542 1.83745 -3.30222 0
M  V30 3021 H 276.855 3.19884 -7.03487 0
M  V30 3022 H 275.2 2.88313 -6.32377 0
M  V30 3023 H 278.391 2.20203 -4.13072 0
M  V30 3024 H 278.564 2.82304 -5.83274 0
M  V30 3025 N 271.97 1.30982 0.876444 0
M  V30 3026 C 272.903 1.12414 1.98591 0
M  V30 3027 C 273.881 0.0294078 1.62573 0
M  V30 3028 O 275.065 0.184598 1.87594 0
M  V30 3029 C 272.192 0.716276 3.3104 0
M  V30 3030 C 271.238 1.81311 3.86042 0
M  V30 3031 S 272.071 3.41727 4.1229 0
M  V30 3032 C 273.227 3.02863 5.47745 0
M  V30 3033 H 273.46 2.06338 2.14037 0
M  V30 3034 H 270.993 1.15393 1.02586 0
M  V30 3035 H 272.951 0.487697 4.07593 0
M  V30 3036 H 271.612 -0.203749 3.13438 0
M  V30 3037 H 270.805 1.48021 4.81774 0
M  V30 3038 H 270.407 1.99641 3.16259 0
M  V30 3039 H 272.699 2.51353 6.29148 0
M  V30 3040 H 273.642 3.97533 5.8598 0
M  V30 3041 H 274.05 2.40487 5.10711 0
M  V30 3042 N 273.449 -1.08991 1.13837 0
M  V30 3043 C 274.412 -2.13925 0.822715 0
M  V30 3044 C 275.412 -1.599 -0.1699 0
M  V30 3045 O 276.602 -1.74104 0.0577251 0
M  V30 3046 C 273.734 -3.40155 0.225318 0
M  V30 3047 H 274.927 -2.43358 1.75262 0
M  V30 3048 H 272.48 -1.24603 0.943594 0
M  V30 3049 H 273.215 -3.16352 -0.713594 0
M  V30 3050 H 273 -3.80661 0.940193 0
M  V30 3051 H 274.49 -4.17594 0.0214784 0
M  V30 3052 N 274.927 -0.932562 -1.27047 0
M  V30 3053 C 275.837 -0.441219 -2.30414 0
M  V30 3054 C 276.853 0.480525 -1.67233 0
M  V30 3055 O 278.029 0.362151 -1.98117 0
M  V30 3056 C 275.094 0.293651 -3.45454 0
M  V30 3057 C 274.155 -0.663601 -4.2414 0
M  V30 3058 C 273.388 0.0362932 -5.33688 0
M  V30 3059 O 273.611 1.2548 -5.56427 0
M  V30 3060 O 272.545 -0.638015 -5.98509 0
M  V30 3061 H 276.371 -1.29962 -2.74488 0
M  V30 3062 H 273.956 -0.6981 -1.32087 0
M  V30 3063 H 275.838 0.707951 -4.15411 0
M  V30 3064 H 274.513 1.12758 -3.03426 0
M  V30 3065 H 273.42 -1.12768 -3.56699 0
M  V30 3066 H 274.753 -1.46489 -4.69896 0
M  V30 3067 N 276.405 1.4127 -0.698611 0
M  V30 3068 C 277.651 2.01478 -0.231207 0
M  V30 3069 C 277.984 1.55215 1.16713 0
M  V30 3070 O 277.259 0.764672 1.78838 0
M  V30 3071 C 277.542 3.58912 -0.292281 0
M  V30 3072 C 277.395 4.15293 -1.72778 0
M  V30 3073 C 278.714 4.38736 0.346194 0
M  V30 3074 H 275.833 0.732025 -0.0854878 0
M  V30 3075 H 278.475 1.67977 -0.887906 0
M  V30 3076 H 276.625 3.87582 0.26686 0
M  V30 3077 H 278.297 3.97486 -2.341 0
M  V30 3078 H 276.54 3.7022 -2.26096 0
M  V30 3079 H 277.211 5.24452 -1.72202 0
M  V30 3080 H 279.687 4.15897 -0.130035 0
M  V30 3081 H 278.563 5.48221 0.272932 0
M  V30 3082 H 278.824 4.18425 1.42734 0
M  V30 3083 N 277.883 0.443576 1.51229 0
M  V30 3084 C 278.846 -0.353132 2.26463 0
M  V30 3085 C 279.846 -0.944338 1.3015 0
M  V30 3086 O 281.036 -0.817813 1.5381 0
M  V30 3087 C 278.168 -1.50023 3.06114 0
M  V30 3088 H 279.361 0.3063 2.98332 0
M  V30 3089 H 276.914 0.196902 1.55055 0
M  V30 3090 H 277.649 -2.19553 2.38677 0
M  V30 3091 H 277.434 -1.08241 3.76864 0
M  V30 3092 H 278.924 -2.06296 3.63087 0
M  V30 3093 N 279.361 -1.56624 0.175154 0
M  V30 3094 C 280.586 -2.01813 -0.478137 0
M  V30 3095 C 281.011 -1.05457 -1.55757 0
M  V30 3096 O 280.369 -0.0347439 -1.81267 0
M  V30 3097 C 280.417 -3.45581 -1.02987 0
M  V30 3098 O 279.521 -3.52305 -2.14371 0
M  V30 3099 H 278.862 -0.65413 -0.114059 0
M  V30 3100 H 281.392 -2.02673 0.280173 0
M  V30 3101 H 281.402 -3.84965 -1.35151 0
M  V30 3102 H 280.077 -4.1521 -0.239556 0
M  V30 3103 H 278.654 -3.24783 -1.83222 0
M  V30 3104 N 280.839 0.0985539 -1.57292 0
M  V30 3105 C 282.255 0.45267 -1.53046 0
M  V30 3106 C 282.455 1.80713 -0.891342 0
M  V30 3107 O 281.511 2.4785 -0.482375 0
M  V30 3108 C 282.824 0.418341 -2.97776 0
M  V30 3109 C 284.372 0.500443 -3.08973 0
M  V30 3110 C 284.847 0.496297 -4.55303 0
M  V30 3111 N 286.338 0.557151 -4.59837 0
M  V30 3112 C 287.073 0.575726 -5.70502 0
M  V30 3113 N 286.569 0.550714 -6.90608 0
M  V30 3114 N 288.362 0.620277 -5.58667 0
M  V30 3115 H 280.513 -0.788673 -1.97215 0
M  V30 3116 H 282.776 -0.293188 -0.901524 0
M  V30 3117 H 282.482 -0.509659 -3.47988 0
M  V30 3118 H 282.356 1.2386 -3.56284 0
M  V30 3119 H 284.743 1.41886 -2.58751 0
M  V30 3120 H 284.824 -0.347894 -2.53423 0
M  V30 3121 H 284.468 -0.418162 -5.06176 0
M  V30 3122 H 284.398 1.3618 -5.08687 0
M  V30 3123 H 286.889 0.581816 -3.73394 0
M  V30 3124 H 287.202 0.568075 -7.70709 0
M  V30 3125 H 285.547 0.517816 -6.93068 0
M  V30 3126 H 288.738 0.637322 -4.63741 0
M  V30 3127 H 288.911 0.631283 -6.44918 0
M  V30 3128 N 282.317 1.53212 0.369288 0
M  V30 3129 C 283.594 1.59815 1.12776 0
M  V30 3130 C 283.974 0.403402 2.0721 0
M  V30 3131 O 283.322 -0.606667 2.20299 0
M  V30 3132 C 283.532 2.94664 1.87013 0
M  V30 3133 C 284.88 3.49109 2.41677 0
M  V30 3134 O 285.904 2.96669 1.97144 0
M  V30 3135 O 284.763 4.40775 3.23079 0
M  V30 3136 H 281.857 0.645376 0.517125 0
M  V30 3137 H 284.403 1.65553 0.37285 0
M  V30 3138 H 283.175 3.73061 1.18071 0
M  V30 3139 H 282.798 2.92401 2.69421 0
M  V30 3140 N 283.795 -0.628877 1.44509 0
M  V30 3141 C 285.206 -1.21054 1.42137 0
M  V30 3142 C 285.557 -1.95715 0.137881 0
M  V30 3143 O 284.682 -2.02554 -0.761645 0
M  V30 3144 C 285.277 -2.20189 2.57493 0
M  V30 3145 C 283.836 -2.73777 2.58308 0
M  V30 3146 C 282.983 -1.48813 2.33987 0
M  V30 3147 H 285.934 -0.41942 1.53057 0
M  V30 3148 H 285.955 -3.02833 2.30375 0
M  V30 3149 H 285.467 -1.6582 3.50892 0
M  V30 3150 H 283.568 -3.32142 1.68856 0
M  V30 3151 H 283.681 -3.19662 3.56865 0
M  V30 3152 H 282.045 -1.77024 1.83124 0
M  V30 3153 H 282.828 -0.963442 3.29504 0
M  V30 3154 N 285.273 -1.31445 -0.869486 0
M  V30 3155 C 286.22 -1.19135 -1.97675 0
M  V30 3156 C 287.19 -0.0770266 -1.65921 0
M  V30 3157 O 288.375 -0.249972 -1.89155 0
M  V30 3158 C 285.515 -0.905149 -3.33018 0
M  V30 3159 C 284.628 -2.10285 -3.77365 0
M  V30 3160 C 283.763 -1.75339 -5.01427 0
M  V30 3161 C 282.802 -2.91515 -5.38224 0
M  V30 3162 N 281.939 -2.56762 -6.53466 0
M  V30 3163 H 286.779 -2.13853 -2.07535 0
M  V30 3164 H 284.316 -1.06379 -1.01597 0
M  V30 3165 H 286.274 -0.719765 -4.10944 0
M  V30 3166 H 284.904 0.00519624 -3.228 0
M  V30 3167 H 283.956 -2.39899 -2.95216 0
M  V30 3168 H 285.268 -2.97237 -4.00564 0
M  V30 3169 H 284.422 -1.53266 -5.87022 0
M  V30 3170 H 283.161 -0.855801 -4.80133 0
M  V30 3171 H 282.166 -3.14237 -4.51149 0
M  V30 3172 H 283.391 -3.81985 -5.61484 0
M  V30 3173 H 281.337 -1.69526 -6.33717 0
M  V30 3174 H 281.254 -3.37243 -6.76612 0
M  V30 3175 H 282.522 -2.38083 -7.42251 0
M  V30 3176 N 286.751 1.08385 -1.14413 0
M  V30 3177 C 287.681 2.17321 -0.854044 0
M  V30 3178 C 288.662 1.69024 0.191049 0
M  V30 3179 O 289.847 1.94141 0.0476779 0
M  V30 3180 C 286.977 3.45719 -0.330983 0
M  V30 3181 C 285.931 4.07409 -1.31155 0
M  V30 3182 C 285.257 5.30762 -0.64778 0
M  V30 3183 C 286.557 4.48665 -2.67388 0
M  V30 3184 H 288.251 2.41845 -1.76498 0
M  V30 3185 H 285.797 1.16233 -0.850051 0
M  V30 3186 H 287.75 4.21241 -0.115645 0
M  V30 3187 H 286.474 3.2075 0.615381 0
M  V30 3188 H 285.133 3.33919 -1.51306 0
M  V30 3189 H 284.781 5.02078 0.304398 0
M  V30 3190 H 284.481 5.72992 -1.30207 0
M  V30 3191 H 286.005 6.08998 -0.441972 0
M  V30 3192 H 287.419 5.15364 -2.51143 0
M  V30 3193 H 285.816 5.01814 -3.29093 0
M  V30 3194 H 286.886 3.60543 -3.24248 0
M  V30 3195 N 288.23 0.939286 1.26551 0
M  V30 3196 C 289.46 0.601663 1.97645 0
M  V30 3197 C 289.868 -0.827206 1.70159 0
M  V30 3198 O 289.211 -1.56291 0.965338 0
M  V30 3199 C 289.273 0.761725 3.51337 0
M  V30 3200 C 288.937 2.16487 4.0247 0
M  V30 3201 C 289.934 3.14016 4.14355 0
M  V30 3202 C 287.619 2.48494 4.36527 0
M  V30 3203 C 289.613 4.41654 4.59587 0
M  V30 3204 C 287.3 3.76364 4.81449 0
M  V30 3205 C 288.298 4.72758 4.92939 0
M  V30 3206 O 287.986 5.98352 5.36871 0
M  V30 3207 H 287.718 0.225758 0.637189 0
M  V30 3208 H 290.272 1.26178 1.62075 0
M  V30 3209 H 288.502 0.0444808 3.86674 0
M  V30 3210 H 290.191 0.427442 4.03643 0
M  V30 3211 H 290.957 2.90613 3.8829 0
M  V30 3212 H 286.836 1.74202 4.26819 0
M  V30 3213 H 290.38 5.16896 4.68471 0
M  V30 3214 H 286.277 3.99582 5.06956 0
M  V30 3215 H 287.045 6.01507 5.55096 0
M  V30 3216 N 289.708 -1.40897 0.706093 0
M  V30 3217 C 290.671 -2.29131 0.0562841 0
M  V30 3218 C 291.671 -1.44901 -0.697166 0
M  V30 3219 O 292.861 -1.65926 -0.530484 0
M  V30 3220 C 289.993 -3.27957 -0.93043 0
M  V30 3221 H 291.186 -2.88091 0.833284 0
M  V30 3222 H 288.739 -1.4906 0.470192 0
M  V30 3223 H 289.474 -2.73997 -1.73482 0
M  V30 3224 H 289.259 -3.90124 -0.393166 0
M  V30 3225 H 290.749 -3.94049 -1.38256 0
M  V30 3226 N 291.186 -0.45159 -1.50991 0
M  V30 3227 C 292.119 0.398179 -2.24699 0
M  V30 3228 C 293.097 1.01276 -1.27208 0
M  V30 3229 O 294.281 1.05247 -1.56382 0
M  V30 3230 C 291.408 1.55618 -3.00833 0
M  V30 3231 C 290.454 1.0609 -4.13095 0
M  V30 3232 S 291.287 -0.00865136 -5.35499 0
M  V30 3233 C 292.443 1.15369 -6.15175 0
M  V30 3234 H 292.676 -0.227555 -2.96428 0
M  V30 3235 H 290.209 -0.236251 -1.52582 0
M  V30 3236 H 292.167 2.21997 -3.45293 0
M  V30 3237 H 290.828 2.15337 -2.28667 0
M  V30 3238 H 290.021 1.92726 -4.65696 0
M  V30 3239 H 289.623 0.47513 -3.7097 0
M  V30 3240 H 291.915 2.06925 -6.45126 0
M  V30 3241 H 292.858 0.667344 -7.04948 0
M  V30 3242 H 293.266 1.3987 -5.46897 0
M  V30 3243 N 292.664 1.56529 -0.183458 0
M  V30 3244 C 293.614 2.1515 0.754605 0
M  V30 3245 C 294.598 1.08904 1.18443 0
M  V30 3246 O 295.79 1.34997 1.14476 0
M  V30 3247 C 292.919 2.80531 1.97881 0
M  V30 3248 C 292.005 3.93952 1.57043 0
M  V30 3249 N 292.396 4.98221 0.87231 0
M  V30 3250 C 290.694 4.05338 1.86057 0
M  V30 3251 C 291.395 5.77836 0.669377 0
M  V30 3252 N 290.371 5.29858 1.21454 0
M  V30 3253 H 294.173 2.93132 0.212387 0
M  V30 3254 H 291.687 1.62391 0.0167725 0
M  V30 3255 H 293.684 3.20914 2.6612 0
M  V30 3256 H 292.344 2.04035 2.52586 0
M  V30 3257 H 293.355 5.15191 0.529033 0
M  V30 3258 H 290.032 3.39957 2.42354 0
M  V30 3259 H 291.422 6.71799 0.116422 0
M  V30 3260 N 294.142 -0.090211 1.57342 0
M  V30 3261 C 295.553 -0.644173 1.75235 0
M  V30 3262 C 295.904 -1.78865 0.806335 0
M  V30 3263 O 295.029 -2.16395 -0.0140128 0
M  V30 3264 C 295.624 -1.17532 3.1776 0
M  V30 3265 C 294.183 -1.67531 3.37061 0
M  V30 3266 C 293.33 -0.58693 2.71017 0
M  V30 3267 H 296.281 0.135884 1.58117 0
M  V30 3268 H 296.302 -2.04455 3.20902 0
M  V30 3269 H 295.814 -0.342138 3.86589 0
M  V30 3270 H 293.915 -2.53234 2.73319 0
M  V30 3271 H 294.028 -1.76493 4.45406 0
M  V30 3272 H 292.392 -1.02756 2.33052 0
M  V30 3273 H 293.175 0.235758 3.4249 0
M  V30 3274 N 295.62 -1.53406 -0.361157 0
M  V30 3275 C 296.866 -1.70999 -1.1014 0
M  V30 3276 C 297.221 -0.458425 -1.86859 0
M  V30 3277 O 296.514 0.548654 -1.83577 0
M  V30 3278 C 296.708 -2.90211 -2.08596 0
M  V30 3279 C 296.537 -4.26841 -1.41553 0
M  V30 3280 C 295.307 -4.91621 -1.16778 0
M  V30 3281 C 297.505 -5.07212 -0.850915 0
M  V30 3282 N 295.487 -6.12164 -0.461312 0
M  V30 3283 C 296.858 -6.19394 -0.274046 0
M  V30 3284 C 298.913 -4.92218 -0.750036 0
M  V30 3285 C 297.616 -7.18221 0.393868 0
M  V30 3286 C 299.642 -5.91322 -0.095894 0
M  V30 3287 C 299.004 -7.0283 0.470081 0
M  V30 3288 H 295.103 -0.678939 -0.388028 0
M  V30 3289 H 297.687 -1.90811 -0.38722 0
M  V30 3290 H 295.858 -2.71931 -2.77323 0
M  V30 3291 H 297.59 -2.96606 -2.7533 0
M  V30 3292 H 294.345 -4.50849 -1.45024 0
M  V30 3293 H 294.769 -6.76888 -0.123312 0
M  V30 3294 H 299.411 -4.06192 -1.17337 0
M  V30 3295 H 297.129 -8.03835 0.82914 0
M  V30 3296 H 300.715 -5.81797 -0.0187075 0
M  V30 3297 H 299.595 -7.782 0.968241 0
M  V30 3298 N 297.098 0.621204 -1.44841 0
M  V30 3299 C 298.344 1.3826 -1.48365 0
M  V30 3300 C 298.677 1.93831 -0.119624 0
M  V30 3301 O 297.952 1.74251 0.864111 0
M  V30 3302 C 298.235 2.54058 -2.55199 0
M  V30 3303 C 298.088 2.03772 -4.00995 0
M  V30 3304 C 299.407 3.56225 -2.58442 0
M  V30 3305 H 296.526 0.501374 -0.540179 0
M  V30 3306 H 299.168 0.7015 -1.76576 0
M  V30 3307 H 297.318 3.12162 -2.31274 0
M  V30 3308 H 298.99 1.50423 -4.36086 0
M  V30 3309 H 297.233 1.34876 -4.12299 0
M  V30 3310 H 297.904 2.87185 -4.71411 0
M  V30 3311 H 300.38 3.07939 -2.79844 0
M  V30 3312 H 299.256 4.34756 -3.3508 0
M  V30 3313 H 299.517 4.10949 -1.63013 0
M  V30 3314 N 298.576 1.31904 0.862503 0
M  V30 3315 C 299.804 1.24998 1.64873 0
M  V30 3316 C 300.219 -0.183425 1.87907 0
M  V30 3317 O 299.576 -1.11794 1.44251 0
M  V30 3318 C 299.627 1.99829 3.01248 0
M  V30 3319 O 299.348 3.37575 2.79239 0
M  V30 3320 C 300.849 1.99852 3.95694 0
M  V30 3321 H 298.069 0.431599 0.513773 0
M  V30 3322 H 300.613 1.73901 1.07604 0
M  V30 3323 H 298.768 1.54668 3.55185 0
M  V30 3324 H 299.182 3.75776 3.65914 0
M  V30 3325 H 300.656 2.56709 4.88676 0
M  V30 3326 H 301.133 0.982852 4.28062 0
M  V30 3327 H 301.739 2.44926 3.47694 0
M  V30 3328 N 300.054 -1.07777 1.14986 0
M  V30 3329 C 301.279 -1.84558 0.946213 0
M  V30 3330 C 301.704 -1.81323 -0.500362 0
M  V30 3331 O 301.062 -1.20301 -1.35637 0
M  V30 3332 C 301.11 -3.29736 1.45968 0
M  V30 3333 O 300.214 -4.07149 0.65601 0
M  V30 3334 H 299.555 -0.571641 0.33782 0
M  V30 3335 H 302.085 -1.35991 1.52865 0
M  V30 3336 H 302.095 -3.80574 1.47063 0
M  V30 3337 H 300.77 -3.31406 2.51283 0
M  V30 3338 H 299.347 -3.65994 0.714322 0
M  V30 3339 N 301.532 -0.945985 -1.26051 0
M  V30 3340 C 302.479 -0.45809 -2.26208 0
M  V30 3341 C 303.449 0.484816 -1.58867 0
M  V30 3342 O 304.634 0.399969 -1.86561 0
M  V30 3343 C 301.774 0.266131 -3.44072 0
M  V30 3344 C 300.887 -0.713005 -4.26075 0
M  V30 3345 C 300.022 0.0329013 -5.3119 0
M  V30 3346 C 299.061 -0.93774 -6.04874 0
M  V30 3347 N 298.198 -0.223274 -7.01745 0
M  V30 3348 H 303.038 -1.3171 -2.67313 0
M  V30 3349 H 300.575 -0.66069 -1.31428 0
M  V30 3350 H 302.533 0.702514 -4.11243 0
M  V30 3351 H 301.163 1.08925 -3.03867 0
M  V30 3352 H 300.215 -1.26789 -3.58648 0
M  V30 3353 H 301.527 -1.45406 -4.77136 0
M  V30 3354 H 300.681 0.528335 -6.04395 0
M  V30 3355 H 299.42 0.806801 -4.8098 0
M  V30 3356 H 298.425 -1.44425 -5.30492 0
M  V30 3357 H 299.65 -1.71172 -6.57173 0
M  V30 3358 H 297.596 0.532046 -6.53839 0
M  V30 3359 H 297.513 -0.90357 -7.50581 0
M  V30 3360 H 298.781 0.250907 -7.79096 0
M  V30 3361 N 303.011 1.40521 -0.713556 0
M  V30 3362 C 304.422 1.83853 -0.324807 0
M  V30 3363 C 304.773 1.59667 1.14021 0
M  V30 3364 O 303.898 1.07649 1.87725 0
M  V30 3365 C 304.493 3.33751 -0.582746 0
M  V30 3366 C 303.052 3.75584 -0.247727 0
M  V30 3367 C 302.199 2.63753 -0.856121 0
M  V30 3368 H 305.15 1.29817 -0.91286 0
M  V30 3369 H 305.171 3.80194 0.152682 0
M  V30 3370 H 304.683 3.51322 -1.64908 0
M  V30 3371 H 302.784 3.63608 0.813624 0
M  V30 3372 H 302.897 4.7373 -0.715307 0
M  V30 3373 H 301.261 2.53108 -0.28432 0
M  V30 3374 H 302.044 2.84137 -1.92668 0
M  V30 3375 N 304.489 0.459591 1.5075 0
M  V30 3376 C 305.419 -0.330644 2.31147 0
M  V30 3377 C 306.4 -1.00087 1.37538 0
M  V30 3378 O 307.585 -1.00025 1.66459 0
M  V30 3379 C 304.715 -1.41958 3.16962 0
M  V30 3380 C 303.669 -0.871608 4.19031 0
M  V30 3381 C 302.995 -2.05797 4.9351 0
M  V30 3382 C 304.295 0.109251 5.22186 0
M  V30 3383 H 305.989 0.340336 2.97459 0
M  V30 3384 H 303.535 0.165119 1.4305 0
M  V30 3385 H 305.488 -1.9798 3.71997 0
M  V30 3386 H 304.212 -2.11917 2.48513 0
M  V30 3387 H 302.871 -0.333442 3.6508 0
M  V30 3388 H 302.519 -2.74427 4.21544 0
M  V30 3389 H 302.219 -1.6976 5.62544 0
M  V30 3390 H 303.743 -2.62331 5.51375 0
M  V30 3391 H 305.157 -0.361405 5.7216 0
M  V30 3392 H 303.554 0.383316 5.98875 0
M  V30 3393 H 304.624 1.03887 4.73641 0
M  V30 3394 N 305.967 -1.56429 0.191757 0
M  V30 3395 C 307.378 -1.83912 -0.321428 0
M  V30 3396 C 307.729 -1.11231 -1.61623 0
M  V30 3397 O 306.854 -0.37202 -2.13178 0
M  V30 3398 C 307.449 -3.33624 -0.589961 0
M  V30 3399 C 306.008 -3.6153 -1.04753 0
M  V30 3400 C 305.155 -2.7714 -0.0943327 0
M  V30 3401 H 308.106 -1.53161 0.415612 0
M  V30 3402 H 308.127 -3.52213 -1.43966 0
M  V30 3403 H 307.639 -3.86495 0.352588 0
M  V30 3404 H 305.74 -3.14089 -2.00447 0
M  V30 3405 H 305.853 -4.69737 -0.942549 0
M  V30 3406 H 304.217 -2.47638 -0.595589 0
M  V30 3407 H 305 -3.32799 0.842601 0
M  V30 3408 N 307.445 0.0818655 -1.57387 0
M  V30 3409 C 308.355 1.11642 -2.06333 0
M  V30 3410 C 309.371 1.43033 -0.99083 0
M  V30 3411 O 310.547 1.53411 -1.30488 0
M  V30 3412 C 307.612 2.41342 -2.48907 0
M  V30 3413 C 306.673 2.17014 -3.7041 0
M  V30 3414 C 305.906 3.4053 -4.10944 0
M  V30 3415 O 306.129 4.4927 -3.51444 0
M  V30 3416 O 305.063 3.29336 -5.03807 0
M  V30 3417 H 308.889 0.730657 -2.9478 0
M  V30 3418 H 306.474 0.295301 -1.46452 0
M  V30 3419 H 308.356 3.17691 -2.76858 0
M  V30 3420 H 307.031 2.79319 -1.63593 0
M  V30 3421 H 305.938 1.38403 -3.47556 0
M  V30 3422 H 307.271 1.83923 -4.56545 0
M  V30 3423 N 308.923 1.53595 0.353017 0
M  V30 3424 C 310.153 1.74058 1.11299 0
M  V30 3425 C 310.561 0.475205 1.83135 0
M  V30 3426 O 309.904 -0.562344 1.74881 0
M  V30 3427 C 309.966 2.85994 2.17825 0
M  V30 3428 C 309.63 4.25923 1.65647 0
M  V30 3429 C 310.627 5.07829 1.11383 0
M  V30 3430 C 308.312 4.72377 1.7078 0
M  V30 3431 C 310.306 6.34285 0.629439 0
M  V30 3432 C 307.993 5.98808 1.21953 0
M  V30 3433 C 308.991 6.79594 0.681265 0
M  V30 3434 O 308.679 8.03651 0.200248 0
M  V30 3435 H 308.411 0.585327 0.338183 0
M  V30 3436 H 310.965 2.01186 0.413927 0
M  V30 3437 H 309.195 2.54368 2.91262 0
M  V30 3438 H 310.884 2.94515 2.79313 0
M  V30 3439 H 311.65 4.73107 1.06746 0
M  V30 3440 H 307.529 4.0956 2.11617 0
M  V30 3441 H 311.073 6.97288 0.208636 0
M  V30 3442 H 306.97 6.33026 1.26287 0
M  V30 3443 H 307.738 8.1788 0.318416 0
M  V30 3444 N 310.401 -0.613514 1.45168 0
M  V30 3445 C 311.331 -1.7354 1.56225 0
M  V30 3446 C 312.312 -1.64981 0.41414 0
M  V30 3447 O 313.497 -1.83472 0.636526 0
M  V30 3448 C 310.627 -3.12128 1.52295 0
M  V30 3449 C 309.581 -3.35491 2.65762 0
M  V30 3450 C 308.907 -4.74291 2.46885 0
M  V30 3451 C 310.207 -3.26325 4.0781 0
M  V30 3452 H 311.901 -1.64543 2.50132 0
M  V30 3453 H 309.447 -0.790185 1.20383 0
M  V30 3454 H 311.4 -3.90404 1.58628 0
M  V30 3455 H 310.124 -3.2195 0.549139 0
M  V30 3456 H 308.783 -2.59603 2.58847 0
M  V30 3457 H 308.431 -4.80839 1.47657 0
M  V30 3458 H 308.131 -4.9088 3.22972 0
M  V30 3459 H 309.655 -5.54775 2.55063 0
M  V30 3460 H 311.069 -3.94483 4.16 0
M  V30 3461 H 309.466 -3.54445 4.8424 0
M  V30 3462 H 310.536 -2.23855 4.30136 0
M  V30 3463 N 311.879 -1.3236 -0.855495 0
M  V30 3464 C 313.125 -1.24064 -1.61182 0
M  V30 3465 C 313.48 0.195914 -1.914 0
M  V30 3466 O 312.773 1.13345 -1.54478 0
M  V30 3467 C 312.967 -2.03275 -2.93963 0
M  V30 3468 C 312.796 -3.54486 -2.76712 0
M  V30 3469 C 311.566 -4.23824 -2.75139 0
M  V30 3470 C 313.764 -4.49154 -2.50531 0
M  V30 3471 N 311.746 -5.61095 -2.4909 0
M  V30 3472 C 313.117 -5.74195 -2.3388 0
M  V30 3473 C 315.172 -4.3842 -2.35992 0
M  V30 3474 C 313.875 -6.89716 -2.04168 0
M  V30 3475 C 315.901 -5.53739 -2.0767 0
M  V30 3476 C 315.263 -6.77779 -1.9182 0
M  V30 3477 H 311.362 -0.509139 -0.59355 0
M  V30 3478 H 313.946 -1.66715 -1.00569 0
M  V30 3479 H 312.117 -1.6297 -3.52555 0
M  V30 3480 H 313.849 -1.86881 -3.58967 0
M  V30 3481 H 310.604 -3.75934 -2.88047 0
M  V30 3482 H 311.028 -6.33411 -2.38996 0
M  V30 3483 H 315.67 -3.43172 -2.46967 0
M  V30 3484 H 313.388 -7.84977 -1.9193 0
M  V30 3485 H 316.974 -5.4736 -1.97201 0
M  V30 3486 H 315.854 -7.65504 -1.70217 0
M  V30 3487 N 313.357 1.07166 -1.15556 0
M  V30 3488 C 314.304 2.14417 -0.854055 0
M  V30 3489 C 315.274 1.64965 0.193806 0
M  V30 3490 O 316.459 1.90703 0.0609443 0
M  V30 3491 C 313.599 3.43304 -0.351574 0
M  V30 3492 C 312.712 4.06537 -1.46123 0
M  V30 3493 C 311.847 5.23266 -0.914677 0
M  V30 3494 C 310.886 5.78464 -2.00114 0
M  V30 3495 N 310.023 6.86521 -1.47083 0
M  V30 3496 H 314.863 2.39548 -1.77259 0
M  V30 3497 H 312.4 1.17543 -0.884425 0
M  V30 3498 H 314.358 4.17179 -0.0419409 0
M  V30 3499 H 312.988 3.18419 0.530037 0
M  V30 3500 H 312.04 3.30297 -1.88701 0
M  V30 3501 H 313.352 4.43567 -2.28144 0
M  V30 3502 H 312.506 6.04131 -0.557698 0
M  V30 3503 H 311.245 4.87658 -0.0636583 0
M  V30 3504 H 310.25 4.96243 -2.36692 0
M  V30 3505 H 311.475 6.16126 -2.85597 0
M  V30 3506 H 309.421 6.52849 -0.642198 0
M  V30 3507 H 309.338 7.22446 -2.22729 0
M  V30 3508 H 310.606 7.71087 -1.14215 0
M  V30 3509 N 314.835 0.952656 1.25548 0
M  V30 3510 C 315.782 0.47008 2.25962 0
M  V30 3511 C 316.752 -0.476384 1.59122 0
M  V30 3512 O 317.937 -0.39007 1.8677 0
M  V30 3513 C 315.077 -0.247881 3.44209 0
M  V30 3514 C 314.19 0.735591 4.25691 0
M  V30 3515 C 313.325 -0.0047306 5.312 0
M  V30 3516 C 312.364 0.969805 6.04368 0
M  V30 3517 N 311.501 0.260486 7.01617 0
M  V30 3518 H 316.341 1.33126 2.66611 0
M  V30 3519 H 313.878 0.66765 1.31076 0
M  V30 3520 H 315.836 -0.680695 4.1161 0
M  V30 3521 H 314.466 -1.07312 3.0444 0
M  V30 3522 H 313.518 1.28689 3.57971 0
M  V30 3523 H 314.83 1.47934 4.76358 0
M  V30 3524 H 313.984 -0.496275 6.04667 0
M  V30 3525 H 312.723 -0.781282 4.81401 0
M  V30 3526 H 311.728 1.47237 5.29718 0
M  V30 3527 H 312.953 1.74655 6.56256 0
M  V30 3528 H 310.899 -0.497364 6.54112 0
M  V30 3529 H 310.816 0.943362 7.50091 0
M  V30 3530 H 312.084 -0.209587 7.79218 0
M  V30 3531 N 316.313 -1.40141 0.720998 0
M  V30 3532 C 317.562 -2.0002 0.259804 0
M  V30 3533 C 317.875 -1.57839 -1.15526 0
M  V30 3534 O 319.081 -2.10455 -1.71525 0
M  V30 3535 C 317.537 -3.57516 0.413566 0
M  V30 3536 C 317.145 -4.08667 1.83562 0
M  V30 3537 C 318.889 -4.24498 0.0134387 0
M  V30 3538 C 316.796 -5.58686 1.93968 0
M  V30 3539 H 315.726 -0.748195 0.0933806 0
M  V30 3540 H 318.377 -1.60313 0.892866 0
M  V30 3541 H 316.759 -3.9495 -0.288169 0
M  V30 3542 H 317.933 -3.82598 2.56817 0
M  V30 3543 H 316.248 -3.543 2.1877 0
M  V30 3544 H 318.845 -5.34654 0.0703954 0
M  V30 3545 H 319.188 -4.03375 -1.02927 0
M  V30 3546 H 319.721 -3.92188 0.665815 0
M  V30 3547 H 316.46 -5.8467 2.96379 0
M  V30 3548 H 315.98 -5.86602 1.25131 0
M  V30 3549 H 317.659 -6.23875 1.71431 0
M  V30 3550 N 317.792 -0.46758 -1.50504 0
M  V30 3551 C 318.755 0.317059 -2.26996 0
M  V30 3552 C 319.755 0.923513 -1.31635 0
M  V30 3553 O 320.945 0.793239 -1.55091 0
M  V30 3554 C 318.077 1.45134 -3.08462 0
M  V30 3555 H 319.27 -0.353723 -2.97807 0
M  V30 3556 H 316.823 -0.221545 -1.54722 0
M  V30 3557 H 317.558 2.15728 -2.4214 0
M  V30 3558 H 317.343 1.02232 -3.78538 0
M  V30 3559 H 318.833 2.00493 -3.66323 0
M  V30 3560 N 319.27 1.56325 -0.20005 0
M  V30 3561 C 320.218 2.20666 0.735482 0
M  V30 3562 C 321.212 1.17934 1.21605 0
M  V30 3563 O 322.418 1.36068 1.17837 0
M  V30 3564 H 318.793 0.70725 0.255542 0
M  V30 3565 H 320.764 2.9792 0.169166 0
M  V30 3566 C 319.513 2.88391 1.94232 0
M  V30 3567 H 318.836 3.67185 1.58161 0
M  V30 3568 H 320.276 3.3684 2.57517 0
M  V30 3569 C 318.735 1.89692 2.78421 0
M  V30 3570 O 319.265 1.40032 3.76502 0
M  V30 3571 N 317.471 1.57813 2.44015 0
M  V30 3572 H 317.018 1.9839 1.64314 0
M  V30 3573 H 316.976 0.920325 3.00628 0
M  V30 3574 N 320.748 -0.0735177 1.57428 0
M  V30 3575 C 321.696 -1.10628 2.04607 0
M  V30 3576 C 322.69 -1.40181 0.951088 0
M  V30 3577 O 323.896 -1.39608 1.1362 0
M  V30 3578 H 320.271 -0.374088 0.652351 0
M  V30 3579 H 322.242 -0.682218 2.90497 0
M  V30 3580 C 320.991 -2.41212 2.50423 0
M  V30 3581 H 320.314 -2.19322 3.34272 0
M  V30 3582 H 321.754 -3.11927 2.87189 0
M  V30 3583 C 320.213 -3.0705 1.38644 0
M  V30 3584 O 320.743 -3.95056 0.727582 0
M  V30 3585 N 318.949 -2.67645 1.132 0
M  V30 3586 H 318.496 -1.96169 1.66959 0
M  V30 3587 H 318.454 -3.1202 0.386147 0
M  V30 3588 N 322.226 -1.5378 -0.344866 0
M  V30 3589 C 323.466 -1.72677 -1.09371 0
M  V30 3590 C 323.83 -0.479084 -1.85927 0
M  V30 3591 O 325.031 -0.54505 -2.63216 0
M  V30 3592 C 323.302 -2.95457 -2.01097 0
M  V30 3593 S 324.861 -3.35158 -2.83222 0
M  V30 3594 H 321.679 -0.607402 -0.369573 0
M  V30 3595 H 324.281 -1.91922 -0.372307 0
M  V30 3596 H 322.985 -3.84437 -1.43655 0
M  V30 3597 H 322.516 -2.78673 -2.77678 0
M  V30 3598 H 324.531 -2.88789 -4.03504 0
M  V30 3599 N 323.704 0.605807 -1.45491 0
M  V30 3600 C 324.953 1.36086 -1.48874 0
M  V30 3601 C 325.266 1.95131 -0.135333 0
M  V30 3602 O 326.472 2.7146 -0.0468144 0
M  V30 3603 C 324.928 2.46518 -2.62215 0
M  V30 3604 C 324.536 1.93877 -4.03876 0
M  V30 3605 C 326.28 3.23512 -2.74846 0
M  V30 3606 C 324.187 3.01801 -5.08596 0
M  V30 3607 H 323.117 0.511497 -0.553974 0
M  V30 3608 H 325.768 0.649089 -1.71636 0
M  V30 3609 H 324.15 3.20388 -2.32739 0
M  V30 3610 H 325.324 1.26704 -4.43038 0
M  V30 3611 H 323.639 1.29622 -3.95711 0
M  V30 3612 H 326.236 4.04013 -3.50253 0
M  V30 3613 H 326.579 3.74631 -1.81542 0
M  V30 3614 H 327.112 2.56742 -3.03856 0
M  V30 3615 H 323.851 2.55597 -6.03614 0
M  V30 3616 H 323.371 3.67535 -4.74002 0
M  V30 3617 H 325.05 3.66152 -5.33424 0
M  V30 3618 N 325.182 1.32811 0.848464 0
M  V30 3619 C 326.429 1.23724 1.60308 0
M  V30 3620 C 326.757 -0.1994 1.93475 0
M  V30 3621 O 326.012 -1.15406 1.5805 0
M  V30 3622 C 326.311 2.04831 2.92881 0
M  V30 3623 C 325.977 3.54125 2.79117 0
M  V30 3624 C 324.639 3.94829 2.7507 0
M  V30 3625 C 326.991 4.49036 2.64606 0
M  V30 3626 C 324.319 5.28675 2.544 0
M  V30 3627 C 326.671 5.83033 2.4547 0
M  V30 3628 C 325.335 6.22931 2.39819 0
M  V30 3629 H 324.605 0.452737 0.586609 0
M  V30 3630 H 327.252 1.64301 0.983743 0
M  V30 3631 H 325.557 1.57001 3.58968 0
M  V30 3632 H 327.254 1.95164 3.50303 0
M  V30 3633 H 323.844 3.21801 2.83094 0
M  V30 3634 H 328.028 4.18505 2.66772 0
M  V30 3635 H 323.284 5.58637 2.48465 0
M  V30 3636 H 327.458 6.56186 2.33222 0
M  V30 3637 H 325.085 7.26584 2.23562 0
M  V30 3638 N 326.66 -1.06551 1.16123 0
M  V30 3639 C 327.909 -1.78687 0.935622 0
M  V30 3640 C 328.222 -1.88056 -0.538001 0
M  V30 3641 O 329.428 -2.56794 -0.88143 0
M  V30 3642 C 327.884 -3.21143 1.62466 0
M  V30 3643 C 327.492 -3.19949 3.13587 0
M  V30 3644 C 329.236 -3.9783 1.48092 0
M  V30 3645 C 327.143 -4.57108 3.75241 0
M  V30 3646 H 326.073 -0.669712 0.346412 0
M  V30 3647 H 328.724 -1.19534 1.39226 0
M  V30 3648 H 327.106 -3.80539 1.09572 0
M  V30 3649 H 328.28 -2.70151 3.73303 0
M  V30 3650 H 326.595 -2.5676 3.27816 0
M  V30 3651 H 329.192 -4.99217 1.91538 0
M  V30 3652 H 329.535 -4.14078 0.429507 0
M  V30 3653 H 330.068 -3.4495 1.98127 0
M  V30 3654 H 326.807 -4.46065 4.80319 0
M  V30 3655 H 326.327 -5.07111 3.20309 0
M  V30 3656 H 328.006 -5.26069 3.76644 0
M  V30 3657 N 328.138 -0.959301 -1.25041 0
M  V30 3658 C 329.384 -0.617525 -1.9317 0
M  V30 3659 C 329.717 0.843981 -1.74902 0
M  V30 3660 O 328.992 1.60615 -1.09696 0
M  V30 3661 C 329.275 -0.982736 -3.46431 0
M  V30 3662 C 329.128 -2.50032 -3.73904 0
M  V30 3663 C 330.447 -0.511176 -4.37121 0
M  V30 3664 H 327.566 -0.22582 -0.701552 0
M  V30 3665 H 330.208 -1.19679 -1.4757 0
M  V30 3666 H 328.358 -0.489806 -3.854 0
M  V30 3667 H 330.03 -3.06737 -3.44544 0
M  V30 3668 H 328.273 -2.93598 -3.19348 0
M  V30 3669 H 328.944 -2.70635 -4.81103 0
M  V30 3670 H 331.42 -0.934075 -4.0548 0
M  V30 3671 H 330.296 -0.795361 -5.43107 0
M  V30 3672 H 330.557 0.588834 -4.38161 0
M  V30 3673 N 329.616 1.39756 -0.72842 0
M  V30 3674 C 330.865 1.99879 -0.270407 0
M  V30 3675 C 331.178 1.58449 1.14688 0
M  V30 3676 O 332.384 2.11362 1.70407 0
M  V30 3677 C 330.84 3.57292 -0.43252 0
M  V30 3678 C 330.448 4.07688 -1.85727 0
M  V30 3679 C 332.192 4.24485 -0.0359507 0
M  V30 3680 C 330.099 5.5765 -1.96928 0
M  V30 3681 H 329.029 0.747689 -0.0973472 0
M  V30 3682 H 331.68 1.59837 -0.901355 0
M  V30 3683 H 330.062 3.95097 0.267219 0
M  V30 3684 H 331.236 3.81231 -2.58843 0
M  V30 3685 H 329.551 3.53135 -2.20646 0
M  V30 3686 H 332.148 5.34609 -0.0987484 0
M  V30 3687 H 332.491 4.03915 1.00787 0
M  V30 3688 H 333.024 3.9183 -0.686604 0
M  V30 3689 H 329.763 5.8309 -2.99476 0
M  V30 3690 H 329.283 5.8593 -1.28241 0
M  V30 3691 H 330.962 6.22957 -1.74737 0
M  V30 3692 N 331.094 0.475555 1.50254 0
M  V30 3693 C 332.044 -0.335025 2.25525 0
M  V30 3694 C 333.028 -0.957625 1.29299 0
M  V30 3695 O 334.22 -0.869436 1.54175 0
M  V30 3696 C 331.349 -1.41385 3.12834 0
M  V30 3697 C 330.435 -0.798762 4.1651 0
M  V30 3698 N 330.826 0.0835815 5.05731 0
M  V30 3699 C 329.124 -1.06221 4.33166 0
M  V30 3700 C 329.825 0.433113 5.80085 0
M  V30 3701 N 328.801 -0.1928 5.43258 0
M  V30 3702 H 332.603 0.344612 2.91873 0
M  V30 3703 H 330.117 0.289986 1.5979 0
M  V30 3704 H 332.114 -2.00777 3.65368 0
M  V30 3705 H 330.774 -2.09543 2.48036 0
M  V30 3706 H 331.785 0.452715 5.15918 0
M  V30 3707 H 328.462 -1.73844 3.79585 0
M  V30 3708 H 329.852 1.15346 6.61925 0
M  V30 3709 N 332.573 -1.56217 0.208337 0
M  V30 3710 C 333.989 -1.58919 -0.14729 0
M  V30 3711 C 334.189 -1.22486 -1.59998 0
M  V30 3712 O 333.245 -0.953849 -2.3379 0
M  V30 3713 C 334.558 -3.00236 0.167048 0
M  V30 3714 C 336.106 -3.12813 0.108219 0
M  V30 3715 C 336.581 -4.56284 0.396049 0
M  V30 3716 N 338.072 -4.61912 0.345142 0
M  V30 3717 C 338.807 -5.70837 0.541523 0
M  V30 3718 N 338.303 -6.88178 0.798968 0
M  V30 3719 N 340.096 -5.60091 0.474867 0
M  V30 3720 H 332.247 -1.78177 1.15614 0
M  V30 3721 H 334.51 -0.827555 0.462446 0
M  V30 3722 H 334.216 -3.31499 1.1748 0
M  V30 3723 H 334.09 -3.7354 -0.524184 0
M  V30 3724 H 336.477 -2.81354 -0.890157 0
M  V30 3725 H 336.558 -2.41866 0.832729 0
M  V30 3726 H 336.202 -4.88458 1.3918 0
M  V30 3727 H 336.132 -5.25439 -0.349502 0
M  V30 3728 H 338.623 -3.77589 0.153316 0
M  V30 3729 H 338.936 -7.67095 0.93727 0
M  V30 3730 H 337.281 -6.89953 0.836013 0
M  V30 3731 H 340.472 -4.67297 0.274064 0
M  V30 3732 H 340.645 -6.44917 0.631326 0
M  V30 3733 N 334.051 0.0651679 -1.57465 0
M  V30 3734 C 335.276 0.779605 -1.9219 0
M  V30 3735 C 335.701 1.69988 -0.805333 0
M  V30 3736 O 335.059 1.79685 0.241435 0
M  V30 3737 C 335.107 1.54364 -3.2589 0
M  V30 3738 O 334.211 2.65474 -3.1559 0
M  V30 3739 H 333.552 0.212249 -0.629163 0
M  V30 3740 H 336.082 0.0314294 -2.04576 0
M  V30 3741 H 336.092 1.92146 -3.59922 0
M  V30 3742 H 334.767 0.868457 -4.06732 0
M  V30 3743 H 333.344 2.30501 -2.93128 0
M  V30 3744 N 335.529 1.53961 0.336706 0
M  V30 3745 C 336.757 1.75483 1.09605 0
M  V30 3746 C 337.172 0.4972 1.82136 0
M  V30 3747 O 336.529 -0.53149 1.74589 0
M  V30 3748 C 336.58 2.93943 2.10428 0
M  V30 3749 O 336.301 4.14842 1.40846 0
M  V30 3750 C 337.802 3.27571 2.98684 0
M  V30 3751 H 335.022 0.586166 0.326574 0
M  V30 3752 H 337.566 2.00808 0.38683 0
M  V30 3753 H 335.721 2.70929 2.76905 0
M  V30 3754 H 336.135 4.81383 2.08255 0
M  V30 3755 H 337.609 4.13791 3.6535 0
M  V30 3756 H 338.086 2.44168 3.65074 0
M  V30 3757 H 338.692 3.52615 2.37787 0
M  V30 3758 N 337.007 -0.598083 1.45811 0
M  V30 3759 C 338.235 -1.38322 1.53866 0
M  V30 3760 C 338.65 -1.87992 0.174479 0
M  V30 3761 O 338.007 -1.62756 -0.825627 0
M  V30 3762 C 338.058 -2.58125 2.53089 0
M  V30 3763 O 337.779 -2.10516 3.84206 0
M  V30 3764 C 339.28 -3.50869 2.70935 0
M  V30 3765 H 336.5 -0.423093 0.520801 0
M  V30 3766 H 339.044 -0.728527 1.91083 0
M  V30 3767 H 337.199 -3.19615 2.18917 0
M  V30 3768 H 337.613 -2.88425 4.38077 0
M  V30 3769 H 339.087 -4.31451 3.44317 0
M  V30 3770 H 339.564 -4.01822 1.77301 0
M  V30 3771 H 340.17 -2.95225 3.06141 0
M  V30 3772 N 338.485 -1.33259 -0.841409 0
M  V30 3773 C 339.71 -1.2775 -1.63385 0
M  V30 3774 C 340.135 0.149188 -1.87507 0
M  V30 3775 O 339.493 1.10498 -1.43736 0
M  V30 3776 C 339.541 -2.05571 -2.96265 0
M  V30 3777 O 338.645 -1.41257 -3.87453 0
M  V30 3778 H 337.986 -0.439627 -0.497618 0
M  V30 3779 H 340.516 -1.75782 -1.04699 0
M  V30 3780 H 340.526 -2.16241 -3.45982 0
M  V30 3781 H 339.201 -3.09309 -2.7803 0
M  V30 3782 H 337.778 -1.39217 -3.45938 0
M  V30 3783 N 339.963 1.05934 -1.16686 0
M  V30 3784 C 340.895 2.13468 -0.834503 0
M  V30 3785 C 341.908 1.62013 0.15984 0
M  V30 3786 O 343.097 1.7838 -0.0654228 0
M  V30 3787 C 340.197 3.3817 -0.222361 0
M  V30 3788 C 339.37 4.18928 -1.25771 0
M  V30 3789 C 338.429 5.21985 -0.664703 0
M  V30 3790 O 337.455 5.53334 -1.33453 0
M  V30 3791 N 338.657 5.77919 0.546834 0
M  V30 3792 H 341.422 2.42578 -1.75999 0
M  V30 3793 H 338.983 1.21967 -1.06469 0
M  V30 3794 H 340.975 4.04266 0.187472 0
M  V30 3795 H 339.545 3.06655 0.606758 0
M  V30 3796 H 338.765 3.48433 -1.84358 0
M  V30 3797 H 340.053 4.69687 -1.95631 0
M  V30 3798 H 339.451 5.54721 1.10912 0
M  V30 3799 H 338.008 6.45573 0.898829 0
M  V30 3800 N 341.441 0.965919 1.2453 0
M  V30 3801 C 342.669 0.644385 1.96609 0
M  V30 3802 C 343.084 -0.785823 1.71669 0
M  V30 3803 O 342.441 -1.52703 0.999399 0
M  V30 3804 C 342.492 0.907375 3.49927 0
M  V30 3805 O 342.213 2.28136 3.74013 0
M  V30 3806 C 343.714 0.599784 4.39224 0
M  V30 3807 H 340.934 0.240588 0.626385 0
M  V30 3808 H 343.478 1.29337 1.58405 0
M  V30 3809 H 341.633 0.304631 3.862 0
M  V30 3810 H 342.047 2.36002 4.68405 0
M  V30 3811 H 343.521 0.834263 5.45659 0
M  V30 3812 H 343.998 -0.465921 4.36722 0
M  V30 3813 H 344.604 1.18235 4.08535 0
M  V30 3814 N 342.919 -1.39368 0.735821 0
M  V30 3815 C 344.168 -1.99733 0.281004 0
M  V30 3816 C 344.481 -1.59055 -1.13846 0
M  V30 3817 O 345.687 -2.12262 -1.69284 0
M  V30 3818 C 344.143 -3.57057 0.451462 0
M  V30 3819 C 343.751 -4.06697 1.87886 0
M  V30 3820 C 345.495 -4.2446 0.0584616 0
M  V30 3821 C 343.402 -5.56598 1.99883 0
M  V30 3822 H 342.332 -0.747163 0.101311 0
M  V30 3823 H 344.983 -1.59357 0.909819 0
M  V30 3824 H 343.365 -3.95234 -0.246263 0
M  V30 3825 H 344.539 -3.79853 2.60861 0
M  V30 3826 H 342.854 -3.5196 2.22515 0
M  V30 3827 H 345.451 -5.34549 0.127099 0
M  V30 3828 H 345.794 -4.04444 -0.986433 0
M  V30 3829 H 346.327 -3.9146 0.707374 0
M  V30 3830 H 343.066 -5.81494 3.02564 0
M  V30 3831 H 342.586 -5.85242 1.31346 0
M  V30 3832 H 344.265 -6.22022 1.78039 0
M  V30 3833 N 344.397 -0.483516 -1.5 0
M  V30 3834 C 345.344 0.304164 -2.28787 0
M  V30 3835 C 346.314 0.976114 -1.34392 0
M  V30 3836 O 347.499 0.986156 -1.63339 0
M  V30 3837 C 344.639 1.37298 -3.16612 0
M  V30 3838 C 343.752 0.714561 -4.26049 0
M  V30 3839 C 342.887 1.76232 -5.01114 0
M  V30 3840 C 341.926 1.08483 -6.0241 0
M  V30 3841 N 341.063 2.076 -6.70706 0
M  V30 3842 H 345.903 -0.373981 -2.95644 0
M  V30 3843 H 343.44 -0.196275 -1.45785 0
M  V30 3844 H 345.398 2.00445 -3.65893 0
M  V30 3845 H 344.028 2.02012 -2.51776 0
M  V30 3846 H 343.08 -0.0297798 -3.80388 0
M  V30 3847 H 344.392 0.180383 -4.98474 0
M  V30 3848 H 343.546 2.46929 -5.54176 0
M  V30 3849 H 342.285 2.33033 -4.28424 0
M  V30 3850 H 341.29 0.363545 -5.48597 0
M  V30 3851 H 342.515 0.523551 -6.77079 0
M  V30 3852 H 340.461 2.63394 -6.00799 0
M  V30 3853 H 340.378 1.59201 -7.39047 0
M  V30 3854 H 341.646 2.77639 -7.2838 0
M  V30 3855 N 345.875 1.56104 -0.216619 0
M  V30 3856 C 347.121 1.98466 0.417033 0
M  V30 3857 C 347.454 1.10403 1.59765 0
M  V30 3858 O 346.729 0.160632 1.93836 0
M  V30 3859 C 347.012 3.49769 0.85637 0
M  V30 3860 C 346.865 4.48606 -0.327546 0
M  V30 3861 C 348.184 4.05339 1.7143 0
M  V30 3862 H 345.303 0.721551 0.150112 0
M  V30 3863 H 347.945 1.87423 -0.311864 0
M  V30 3864 H 346.095 3.5931 1.47745 0
M  V30 3865 H 347.767 4.5108 -0.965618 0
M  V30 3866 H 346.01 4.22682 -0.975805 0
M  V30 3867 H 346.681 5.51995 0.0227149 0
M  V30 3868 H 349.157 3.98712 1.19031 0
M  V30 3869 H 348.033 5.11533 1.99061 0
M  V30 3870 H 348.294 3.51918 2.67593 0
M  V30 3871 N 347.353 -0.0568162 1.57498 0
M  V30 3872 C 348.578 -0.769402 1.92601 0
M  V30 3873 C 349.003 -1.69559 0.814336 0
M  V30 3874 O 348.361 -1.79811 -0.231903 0
M  V30 3875 C 348.409 -1.52634 3.26704 0
M  V30 3876 O 347.513 -2.63797 3.16994 0
M  V30 3877 H 346.854 -0.208909 0.63028 0
M  V30 3878 H 349.384 -0.0205798 2.0459 0
M  V30 3879 H 349.394 -1.90234 3.60936 0
M  V30 3880 H 348.069 -0.846875 4.07186 0
M  V30 3881 H 346.646 -2.28943 2.94346 0
M  V30 3882 N 348.832 -1.54138 -0.328536 0
M  V30 3883 C 350.243 -1.63395 -0.903272 0
M  V30 3884 C 350.594 -0.524828 -1.8905 0
M  V30 3885 O 349.719 0.343068 -2.13663 0
M  V30 3886 C 350.314 -2.9618 -1.64507 0
M  V30 3887 C 348.873 -3.0765 -2.1686 0
M  V30 3888 C 348.02 -2.58933 -0.992416 0
M  V30 3889 H 350.971 -1.58344 -0.106253 0
M  V30 3890 H 350.992 -2.86061 -2.50897 0
M  V30 3891 H 350.504 -3.76884 -0.926302 0
M  V30 3892 H 348.605 -2.31611 -2.91868 0
M  V30 3893 H 348.718 -4.1337 -2.42202 0
M  V30 3894 H 347.082 -2.14706 -1.37016 0
M  V30 3895 H 347.865 -3.42089 -0.288041 0
M  V30 3896 N 350.31 0.590341 -1.46126 0
M  V30 3897 C 351.587 1.35029 -1.41515 0
M  V30 3898 C 351.967 2.10888 -0.0946472 0
M  V30 3899 O 351.315 2.08998 0.923693 0
M  V30 3900 C 351.525 2.28269 -2.63997 0
M  V30 3901 C 352.873 2.90338 -3.09821 0
M  V30 3902 O 353.897 2.38585 -2.64492 0
M  V30 3903 O 352.756 3.84321 -3.88535 0
M  V30 3904 H 349.85 0.606317 -0.562413 0
M  V30 3905 H 352.396 0.611994 -1.58281 0
M  V30 3906 H 351.168 1.71591 -3.51671 0
M  V30 3907 H 350.791 3.0945 -2.49652 0
M  V30 3908 N 351.788 1.33704 0.83433 0
M  V30 3909 C 353.065 1.16011 1.57483 0
M  V30 3910 C 353.445 -0.27176 2.09343 0
M  V30 3911 O 352.793 -1.27146 1.89858 0
M  V30 3912 C 353.003 2.20507 2.70514 0
M  V30 3913 C 354.351 2.54898 3.39577 0
M  V30 3914 O 355.375 2.19209 2.80759 0
M  V30 3915 O 354.234 3.16158 4.45765 0
M  V30 3916 H 351.328 0.448992 0.694503 0
M  V30 3917 H 353.874 1.453 0.876691 0
M  V30 3918 H 352.646 3.16667 2.29865 0
M  V30 3919 H 352.269 1.92329 3.47987 0
M  V30 3920 N 353.266 -1.05314 1.17247 0
M  V30 3921 C 354.494 -1.81971 0.984593 0
M  V30 3922 C 354.909 -1.82929 -0.467166 0
M  V30 3923 O 354.266 -1.25564 -1.32438 0
M  V30 3924 C 354.317 -3.28143 1.51672 0
M  V30 3925 O 354.038 -3.27347 2.91163 0
M  V30 3926 C 355.539 -4.21493 1.37326 0
M  V30 3927 H 352.759 -0.573455 0.348411 0
M  V30 3928 H 355.303 -1.32808 1.55506 0
M  V30 3929 H 353.458 -3.74582 0.988302 0
M  V30 3930 H 353.872 -4.18824 3.15732 0
M  V30 3931 H 355.346 -5.22043 1.79375 0
M  V30 3932 H 355.823 -4.38031 0.320169 0
M  V30 3933 H 356.429 -3.80909 1.89178 0
M  V30 3934 N 354.744 -0.972509 -1.24016 0
M  V30 3935 C 356.155 -0.67517 -1.74064 0
M  V30 3936 C 356.506 0.808939 -1.78747 0
M  V30 3937 O 355.631 1.63286 -1.42009 0
M  V30 3938 C 356.226 -1.21889 -3.16115 0
M  V30 3939 C 354.785 -0.971358 -3.6365 0
M  V30 3940 C 353.932 -1.35134 -2.42145 0
M  V30 3941 H 356.883 -1.14727 -1.09651 0
M  V30 3942 H 356.904 -0.587489 -3.75937 0
M  V30 3943 H 356.416 -2.29906 -3.12674 0
M  V30 3944 H 354.517 0.0930686 -3.72484 0
M  V30 3945 H 354.63 -1.62039 -4.50866 0
M  V30 3946 H 352.994 -0.769751 -2.4279 0
M  V30 3947 H 353.777 -2.4411 -2.41381 0
M  V30 3948 N 356.222 1.38976 -0.743202 0
M  V30 3949 C 357.47 1.99948 -0.29417 0
M  V30 3950 C 357.791 1.59279 1.12495 0
M  V30 3951 O 357.061 0.844808 1.76748 0
M  V30 3952 H 355.641 0.739473 -0.105774 0
M  V30 3953 H 358.303 1.699 -0.954986 0
M  V30 3954 H 357.399 3.10142 -0.349056 0
M  V30 3955 N 357.7 0.491464 1.49741 0
M  V30 3956 C 358.663 -0.280906 2.27472 0
M  V30 3957 C 359.663 -0.902454 1.33088 0
M  V30 3958 O 360.853 -0.768465 1.56334 0
M  V30 3959 C 357.985 -1.40209 3.10732 0
M  V30 3960 H 359.178 0.401056 2.97206 0
M  V30 3961 H 356.731 0.246131 1.5435 0
M  V30 3962 H 357.466 -2.11849 2.45541 0
M  V30 3963 H 357.251 -0.961969 3.80117 0
M  V30 3964 H 358.741 -1.9464 3.69466 0
M  V30 3965 N 359.178 -1.55987 0.224894 0
M  V30 3966 C 360.427 -1.97566 -0.406273 0
M  V30 3967 C 360.74 -1.11569 -1.6066 0
M  V30 3968 O 361.946 -1.43062 -2.3075 0
M  V30 3969 C 360.402 -3.51474 -0.774207 0
M  V30 3970 C 360.01 -4.46179 0.403496 0
M  V30 3971 C 361.754 -4.01758 -1.37079 0
M  V30 3972 C 359.661 -5.91399 0.0129412 0
M  V30 3973 H 358.591 -0.737777 -0.155565 0
M  V30 3974 H 361.242 -1.80659 0.321635 0
M  V30 3975 H 359.624 -3.63994 -1.55963 0
M  V30 3976 H 360.798 -4.45409 1.18101 0
M  V30 3977 H 359.113 -4.06255 0.913536 0
M  V30 3978 H 361.71 -5.07756 -1.67596 0
M  V30 3979 H 362.053 -3.47805 -2.28773 0
M  V30 3980 H 362.586 -3.92475 -0.648733 0
M  V30 3981 H 359.325 -6.49341 0.896451 0
M  V30 3982 H 358.845 -5.95356 -0.728821 0
M  V30 3983 H 360.524 -6.45683 -0.412582 0
M  V30 3984 N 360.656 0.0484629 -1.57525 0
M  V30 3985 C 361.586 1.0549 -2.08313 0
M  V30 3986 C 362.567 1.38929 -0.981463 0
M  V30 3987 O 363.752 1.48151 -1.25558 0
M  V30 3988 C 360.882 2.36162 -2.54646 0
M  V30 3989 C 359.836 2.17016 -3.68901 0
M  V30 3990 C 359.162 3.53278 -4.01371 0
M  V30 3991 C 360.462 1.57219 -4.98076 0
M  V30 3992 H 362.156 0.632195 -2.92649 0
M  V30 3993 H 359.702 0.302654 -1.40784 0
M  V30 3994 H 361.655 3.06882 -2.88793 0
M  V30 3995 H 360.379 2.80456 -1.67368 0
M  V30 3996 H 359.038 1.48733 -3.35073 0
M  V30 3997 H 358.686 3.95185 -3.11188 0
M  V30 3998 H 358.386 3.41299 -4.78318 0
M  V30 3999 H 359.91 4.25391 -4.38035 0
M  V30 4000 H 361.324 2.17832 -5.30304 0
M  V30 4001 H 359.721 1.55871 -5.79503 0
M  V30 4002 H 360.791 0.535956 -4.81929 0
M  V30 4003 N 362.134 1.5431 0.320358 0
M  V30 4004 C 363.066 1.80262 1.41556 0
M  V30 4005 C 364.079 0.684723 1.477 0
M  V30 4006 O 365.268 0.961886 1.50366 0
M  V30 4007 C 362.368 1.90825 2.8007 0
M  V30 4008 C 361.541 3.21023 2.97091 0
M  V30 4009 C 360.6 3.22247 4.15985 0
M  V30 4010 O 359.626 3.95871 4.08992 0
M  V30 4011 N 360.828 2.46258 5.25678 0
M  V30 4012 H 363.593 2.74778 1.19655 0
M  V30 4013 H 361.154 1.53646 0.510358 0
M  V30 4014 H 363.146 1.89067 3.57821 0
M  V30 4015 H 361.716 1.03392 2.95006 0
M  V30 4016 H 360.936 3.35715 2.06614 0
M  V30 4017 H 362.224 4.0698 3.05361 0
M  V30 4018 H 361.622 1.86037 5.34235 0
M  V30 4019 H 360.179 2.50275 6.01835 0
M  V30 4020 N 363.613 -0.582584 1.46437 0
M  V30 4021 C 364.838 -1.37168 1.55563 0
M  V30 4022 C 365.263 -1.87061 0.19743 0
M  V30 4023 O 364.621 -1.61572 -0.822451 0
M  V30 4024 C 364.669 -2.53511 2.56446 0
M  V30 4025 O 363.773 -3.54953 2.09958 0
M  V30 4026 H 363.114 -0.408494 0.523477 0
M  V30 4027 H 365.644 -0.706646 1.9201 0
M  V30 4028 H 365.654 -3.00426 2.76058 0
M  V30 4029 H 364.329 -2.16549 3.55076 0
M  V30 4030 H 362.906 -3.14516 2.00334 0
M  V30 4031 N 365.091 -1.34144 -0.827227 0
M  V30 4032 C 366.338 -1.26258 -1.58319 0
M  V30 4033 C 366.666 0.168595 -1.93768 0
M  V30 4034 O 365.921 1.12877 -1.59866 0
M  V30 4035 C 366.22 -2.09464 -2.89585 0
M  V30 4036 C 365.886 -3.58521 -2.73448 0
M  V30 4037 C 364.548 -3.99155 -2.68754 0
M  V30 4038 C 366.9 -4.53189 -2.57428 0
M  V30 4039 C 364.228 -5.32656 -2.45957 0
M  V30 4040 C 366.58 -5.86864 -2.36163 0
M  V30 4041 C 365.244 -6.26667 -2.29879 0
M  V30 4042 H 364.514 -0.462013 -0.579332 0
M  V30 4043 H 367.161 -1.65845 -0.95748 0
M  V30 4044 H 365.466 -1.62692 -3.56425 0
M  V30 4045 H 367.163 -2.00712 -3.47154 0
M  V30 4046 H 363.753 -3.26264 -2.77939 0
M  V30 4047 H 367.937 -4.22696 -2.60081 0
M  V30 4048 H 363.193 -5.62519 -2.39546 0
M  V30 4049 H 367.367 -6.59813 -2.22754 0
M  V30 4050 H 364.994 -7.30049 -2.11975 0
M  V30 4051 N 366.569 1.04691 -1.17803 0
M  V30 4052 C 367.816 1.77782 -0.969532 0
M  V30 4053 C 368.144 1.87926 0.501401 0
M  V30 4054 O 367.399 1.37918 1.38842 0
M  V30 4055 C 367.698 3.21467 -1.56186 0
M  V30 4056 C 367.364 3.3137 -3.05786 0
M  V30 4057 C 366.026 3.3378 -3.46619 0
M  V30 4058 C 368.378 3.31976 -4.01797 0
M  V30 4059 C 365.706 3.34431 -4.82051 0
M  V30 4060 C 368.058 3.34167 -5.37136 0
M  V30 4061 C 366.722 3.34866 -5.77426 0
M  V30 4062 H 365.992 0.650549 -0.354777 0
M  V30 4063 H 368.639 1.23006 -1.46772 0
M  V30 4064 H 366.944 3.79203 -0.985515 0
M  V30 4065 H 368.641 3.76652 -1.37602 0
M  V30 4066 H 365.231 3.3021 -2.73238 0
M  V30 4067 H 369.415 3.29311 -3.71306 0
M  V30 4068 H 364.671 3.33285 -5.12573 0
M  V30 4069 H 368.845 3.33585 -6.11305 0
M  V30 4070 H 366.472 3.35124 -6.82346 0
M  V30 4071 N 368.047 0.979072 1.23499 0
M  V30 4072 C 369.275 0.665202 1.95915 0
M  V30 4073 C 369.69 -0.767571 1.72493 0
M  V30 4074 O 369.047 -1.51635 1.01554 0
M  V30 4075 C 369.098 0.944438 3.48945 0
M  V30 4076 O 368.819 2.3209 3.71572 0
M  V30 4077 C 370.32 0.646336 4.38563 0
M  V30 4078 H 367.54 0.247218 0.623798 0
M  V30 4079 H 370.084 1.31009 1.57025 0
M  V30 4080 H 368.239 0.345575 3.85856 0
M  V30 4081 H 368.653 2.40957 4.65876 0
M  V30 4082 H 370.127 0.892091 5.44744 0
M  V30 4083 H 370.604 -0.419575 4.37191 0
M  V30 4084 H 371.21 1.22562 4.07258 0
M  V30 4085 N 369.525 -1.3858 0.750561 0
M  V30 4086 C 370.472 -2.30483 0.120835 0
M  V30 4087 C 371.442 -1.50022 -0.712923 0
M  V30 4088 O 372.627 -1.78662 -0.669676 0
M  V30 4089 C 369.767 -3.36431 -0.768666 0
M  V30 4090 C 368.88 -4.31927 0.0793922 0
M  V30 4091 C 368.015 -5.24944 -0.81283 0
M  V30 4092 C 367.054 -6.12088 0.0390447 0
M  V30 4093 N 366.191 -6.97412 -0.809969 0
M  V30 4094 H 371.031 -2.83761 0.91015 0
M  V30 4095 H 368.568 -1.39707 0.460463 0
M  V30 4096 H 370.526 -3.96462 -1.29898 0
M  V30 4097 H 369.156 -2.8457 -1.5238 0
M  V30 4098 H 368.208 -3.73382 0.727303 0
M  V30 4099 H 369.52 -4.93319 0.737401 0
M  V30 4100 H 368.674 -5.90078 -1.41042 0
M  V30 4101 H 367.413 -4.63911 -1.50458 0
M  V30 4102 H 366.418 -5.45952 0.649328 0
M  V30 4103 H 367.643 -6.75189 0.727809 0
M  V30 4104 H 365.589 -6.38931 -1.48672 0
M  V30 4105 H 365.506 -7.55712 -0.208789 0
M  V30 4106 H 366.774 -7.66959 -1.39263 0
M  V30 4107 N 371.003 -0.499398 -1.49478 0
M  V30 4108 C 371.936 0.326491 -2.25852 0
M  V30 4109 C 372.914 0.971776 -1.30366 0
M  V30 4110 O 374.098 1.00219 -1.59651 0
M  V30 4111 C 371.225 1.45969 -3.05632 0
M  V30 4112 C 370.271 0.928938 -4.16261 0
M  V30 4113 S 371.104 -0.179012 -5.35201 0
M  V30 4114 C 372.26 0.957389 -6.18534 0
M  V30 4115 H 372.493 -0.321746 -2.95554 0
M  V30 4116 H 370.026 -0.284674 -1.51753 0
M  V30 4117 H 371.984 2.109 -3.52181 0
M  V30 4118 H 370.645 2.07953 -2.35402 0
M  V30 4119 H 369.838 1.77813 -4.71592 0
M  V30 4120 H 369.44 0.356869 -3.72293 0
M  V30 4121 H 371.732 1.86296 -6.51383 0
M  V30 4122 H 372.675 0.442733 -7.06715 0
M  V30 4123 H 373.083 1.224 -5.5107 0
M  V30 4124 N 372.481 1.55866 -0.233164 0
M  V30 4125 C 373.444 2.1953 0.658715 0
M  V30 4126 C 374.444 1.16053 1.11303 0
M  V30 4127 O 375.634 1.41218 1.01996 0
M  V30 4128 C 372.766 2.82791 1.90373 0
M  V30 4129 H 373.959 2.99721 0.10347 0
M  V30 4130 H 371.512 1.56291 0.0164245 0
M  V30 4131 H 372.247 2.06501 2.50056 0
M  V30 4132 H 372.032 3.58578 1.58632 0
M  V30 4133 H 373.522 3.31556 2.53891 0
M  V30 4134 N 373.959 -0.0401083 1.57549 0
M  V30 4135 C 374.906 -1.04413 2.05831 0
M  V30 4136 C 375.876 -1.36585 0.945184 0
M  V30 4137 O 377.061 -1.47112 1.21502 0
M  V30 4138 C 374.201 -2.34336 2.53339 0
M  V30 4139 C 373.314 -2.08419 3.78398 0
M  V30 4140 C 372.449 -3.32133 4.14561 0
M  V30 4141 C 371.488 -3.01721 5.3257 0
M  V30 4142 N 370.625 -4.17855 5.64218 0
M  V30 4143 H 375.465 -0.625442 2.91363 0
M  V30 4144 H 373.002 -0.297218 1.44066 0
M  V30 4145 H 374.96 -3.10234 2.78946 0
M  V30 4146 H 373.59 -2.73948 1.7074 0
M  V30 4147 H 372.642 -1.23069 3.59942 0
M  V30 4148 H 373.954 -1.81978 4.64419 0
M  V30 4149 H 373.108 -4.16406 4.41238 0
M  V30 4150 H 371.847 -3.61678 3.2717 0
M  V30 4151 H 370.852 -2.15849 5.05657 0
M  V30 4152 H 372.077 -2.73466 6.21605 0
M  V30 4153 H 370.023 -4.47372 4.79786 0
M  V30 4154 H 369.94 -3.94798 6.44725 0
M  V30 4155 H 371.208 -5.03033 5.95465 0
M  V30 4156 N 375.437 -1.54477 -0.31217 0
M  V30 4157 C 376.384 -1.84655 -1.38461 0
M  V30 4158 C 377.354 -0.694536 -1.50882 0
M  V30 4159 O 378.539 -0.942081 -1.6592 0
M  V30 4160 C 375.679 -2.0896 -2.74645 0
M  V30 4161 C 374.792 -3.36618 -2.70763 0
M  V30 4162 C 373.927 -3.50824 -3.98868 0
M  V30 4163 C 372.966 -4.72315 -3.89339 0
M  V30 4164 N 372.103 -4.83387 -5.09197 0
M  V30 4165 H 376.943 -2.76142 -1.12026 0
M  V30 4166 H 374.48 -1.36748 -0.542065 0
M  V30 4167 H 376.438 -2.21045 -3.53829 0
M  V30 4168 H 375.068 -1.20752 -2.99364 0
M  V30 4169 H 374.12 -3.33211 -1.83506 0
M  V30 4170 H 375.432 -4.25917 -2.59608 0
M  V30 4171 H 374.586 -3.62513 -4.86486 0
M  V30 4172 H 373.325 -2.59638 -4.12843 0
M  V30 4173 H 372.33 -4.6067 -3.00105 0
M  V30 4174 H 373.555 -5.64897 -3.76919 0
M  V30 4175 H 371.501 -3.9512 -5.23657 0
M  V30 4176 H 371.418 -5.66669 -5.00422 0
M  V30 4177 H 372.686 -4.9942 -5.98498 0
M  V30 4178 N 376.915 0.57481 -1.46744 0
M  V30 4179 C 377.862 1.68329 -1.57905 0
M  V30 4180 C 378.832 1.60625 -0.422927 0
M  V30 4181 O 380.017 1.79721 -0.640711 0
M  V30 4182 C 377.157 3.06665 -1.58274 0
M  V30 4183 C 376.27 3.24935 -2.84678 0
M  V30 4184 C 375.405 4.53566 -2.76499 0
M  V30 4185 C 374.444 4.65207 -3.97806 0
M  V30 4186 N 373.581 5.85172 -3.87967 0
M  V30 4187 H 378.421 1.58127 -2.52587 0
M  V30 4188 H 375.958 0.770552 -1.25303 0
M  V30 4189 H 377.916 3.86745 -1.56473 0
M  V30 4190 H 376.546 3.15745 -0.671194 0
M  V30 4191 H 375.598 2.38405 -2.96424 0
M  V30 4192 H 376.91 3.29403 -3.7456 0
M  V30 4193 H 376.064 5.41885 -2.72848 0
M  V30 4194 H 374.803 4.51548 -1.8427 0
M  V30 4195 H 373.808 3.75304 -4.0178 0
M  V30 4196 H 375.033 4.68997 -4.9114 0
M  V30 4197 H 372.979 5.84137 -2.98529 0
M  V30 4198 H 372.896 5.90943 -4.71511 0
M  V30 4199 H 374.164 6.759 -3.88303 0
M  V30 4200 N 378.394 1.34581 0.820102 0
M  V30 4201 C 379.619 1.30333 1.61332 0
M  V30 4202 C 380.044 -0.119339 1.87721 0
M  V30 4203 O 379.402 -1.08197 1.45475 0
M  V30 4204 C 379.45 2.10258 2.92957 0
M  V30 4205 O 378.554 1.47404 3.85157 0
M  V30 4206 H 377.895 0.447488 0.490561 0
M  V30 4207 H 380.425 1.77425 1.01889 0
M  V30 4208 H 380.435 2.21718 3.42498 0
M  V30 4209 H 379.11 3.13693 2.73074 0
M  V30 4210 H 377.687 1.44703 3.43679 0
M  V30 4211 N 379.872 -1.04064 1.18357 0
M  V30 4212 C 380.802 -2.14001 0.934113 0
M  V30 4213 C 381.783 -1.69616 -0.128186 0
M  V30 4214 O 382.968 -1.94185 0.0244093 0
M  V30 4215 C 380.098 -3.44253 0.459066 0
M  V30 4216 C 379.052 -4.02261 1.46185 0
M  V30 4217 C 378.378 -5.27992 0.844322 0
M  V30 4218 C 379.678 -4.38432 2.83856 0
M  V30 4219 H 381.372 -2.35127 1.85352 0
M  V30 4220 H 378.918 -1.12998 0.892604 0
M  V30 4221 H 380.871 -4.20522 0.271907 0
M  V30 4222 H 379.595 -3.22813 -0.495912 0
M  V30 4223 H 378.254 -3.28074 1.63595 0
M  V30 4224 H 377.902 -5.02862 -0.117845 0
M  V30 4225 H 377.602 -5.67765 1.51384 0
M  V30 4226 H 379.126 -6.06938 0.667693 0
M  V30 4227 H 380.54 -5.05688 2.70098 0
M  V30 4228 H 378.937 -4.89254 3.47491 0
M  V30 4229 H 380.007 -3.4826 3.37406 0
M  V30 4230 N 381.35 -0.985608 -1.22978 0
M  V30 4231 C 382.283 -0.47487 -2.23204 0
M  V30 4232 C 383.261 0.460865 -1.55932 0
M  V30 4233 O 384.445 0.388105 -1.84461 0
M  V30 4234 C 381.572 0.312427 -3.37256 0
M  V30 4235 C 380.618 -0.568219 -4.22698 0
M  V30 4236 S 381.451 -2.01919 -4.95973 0
M  V30 4237 C 382.607 -1.24118 -6.1347 0
M  V30 4238 H 382.84 -1.32419 -2.66181 0
M  V30 4239 H 380.373 -0.792005 -1.32539 0
M  V30 4240 H 382.331 0.760645 -4.03391 0
M  V30 4241 H 380.992 1.13693 -2.92801 0
M  V30 4242 H 380.185 0.0371657 -5.03986 0
M  V30 4243 H 379.787 -0.952897 -3.61657 0
M  V30 4244 H 382.079 -0.505121 -6.75614 0
M  V30 4245 H 383.022 -2.02907 -6.78406 0
M  V30 4246 H 383.43 -0.757669 -5.59392 0
M  V30 4247 N 382.828 1.3818 -0.7579 0
M  V30 4248 C 384.105 1.94106 -0.241306 0
M  V30 4249 C 384.485 1.69282 1.26122 0
M  V30 4250 O 383.833 1.03378 2.03777 0
M  V30 4251 C 384.043 3.43809 -0.59967 0
M  V30 4252 C 385.391 4.20868 -0.561717 0
M  V30 4253 O 386.415 3.5211 -0.538222 0
M  V30 4254 O 385.274 5.43451 -0.576478 0
M  V30 4255 H 382.368 0.825376 -0.0518042 0
M  V30 4256 H 384.914 1.47548 -0.838315 0
M  V30 4257 H 383.686 3.55403 -1.6372 0
M  V30 4258 H 383.309 3.97592 0.0251197 0
M  V30 4259 N 384.306 0.507319 1.49211 0
M  V30 4260 C 385.555 -0.0368315 2.01666 0
M  V30 4261 C 385.868 -1.37459 1.39156 0
M  V30 4262 O 387.074 -2.00579 1.82976 0
M  V30 4263 C 385.53 -0.116089 3.59713 0
M  V30 4264 C 385.138 1.2154 4.31198 0
M  V30 4265 C 386.882 -0.610268 4.2009 0
M  V30 4266 C 384.789 1.09796 5.81119 0
M  V30 4267 H 383.719 -0.0175376 0.753796 0
M  V30 4268 H 386.37 0.647691 1.71689 0
M  V30 4269 H 384.752 -0.8652 3.86433 0
M  V30 4270 H 385.926 1.9783 4.16173 0
M  V30 4271 H 384.241 1.64352 3.82593 0
M  V30 4272 H 386.838 -0.715742 5.29888 0
M  V30 4273 H 387.181 -1.61064 3.8388 0
M  V30 4274 H 387.714 0.0824916 3.97714 0
M  V30 4275 H 384.453 2.0728 6.21864 0
M  V30 4276 H 383.973 0.376058 5.9862 0
M  V30 4277 H 385.652 0.779281 6.4229 0
M  V30 4278 N 385.784 -1.5574 0.241426 0
M  V30 4279 C 387.195 -1.84842 -0.262755 0
M  V30 4280 C 387.546 -1.16317 -1.58003 0
M  V30 4281 O 386.671 -0.439653 -2.11887 0
M  V30 4282 C 387.266 -3.35332 -0.483523 0
M  V30 4283 C 385.825 -3.6468 -0.931977 0
M  V30 4284 C 384.972 -2.77299 -0.0061151 0
M  V30 4285 H 387.923 -1.51761 0.464129 0
M  V30 4286 H 387.944 -3.56615 -1.32688 0
M  V30 4287 H 387.456 -3.85178 0.47537 0
M  V30 4288 H 385.557 -3.20307 -1.90353 0
M  V30 4289 H 385.67 -4.72498 -0.792628 0
M  V30 4290 H 384.034 -2.49408 -0.516503 0
M  V30 4291 H 384.817 -3.2995 0.948052 0
M  V30 4292 N 387.262 0.0317525 -1.57568 0
M  V30 4293 C 388.172 1.05021 -2.0978 0
M  V30 4294 C 389.188 1.39809 -1.03583 0
M  V30 4295 O 390.364 1.49182 -1.35302 0
M  V30 4296 C 387.429 2.33301 -2.56459 0
M  V30 4297 C 386.49 2.0512 -3.77127 0
M  V30 4298 C 385.723 3.27283 -4.2157 0
M  V30 4299 O 385.946 4.37861 -3.65559 0
M  V30 4300 O 384.88 3.13141 -5.14029 0
M  V30 4301 H 388.706 0.636505 -2.96955 0
M  V30 4302 H 386.291 0.248559 -1.47318 0
M  V30 4303 H 388.173 3.08722 -2.86825 0
M  V30 4304 H 386.848 2.73973 -1.72397 0
M  V30 4305 H 385.755 1.27276 -3.51784 0
M  V30 4306 H 387.088 1.69305 -4.62165 0
M  V30 4307 N 388.74 1.54641 0.303973 0
M  V30 4308 C 389.965 1.78092 1.06292 0
M  V30 4309 C 390.39 0.537342 1.80262 0
M  V30 4310 O 389.748 -0.511993 1.7392 0
M  V30 4311 C 389.796 2.98612 2.02147 0
M  V30 4312 O 388.9 2.71528 3.10397 0
M  V30 4313 H 388.241 0.589548 0.305497 0
M  V30 4314 H 390.771 2.01716 0.3423 0
M  V30 4315 H 390.781 3.265 2.44667 0
M  V30 4316 H 389.456 3.88785 1.47714 0
M  V30 4317 H 388.033 2.54648 2.72413 0
M  V30 4318 N 390.218 -0.567019 1.47046 0
M  V30 4319 C 391.15 -1.68985 1.54844 0
M  V30 4320 C 392.163 -1.56869 0.435431 0
M  V30 4321 O 393.352 -1.64006 0.70457 0
M  V30 4322 C 390.452 -3.07373 1.42742 0
M  V30 4323 C 389.625 -3.45339 2.6844 0
M  V30 4324 C 388.684 -4.62849 2.50314 0
M  V30 4325 O 387.71 -4.67922 3.24095 0
M  V30 4326 N 388.912 -5.58726 1.57499 0
M  V30 4327 H 391.677 -1.62745 2.51663 0
M  V30 4328 H 389.238 -0.753411 1.43302 0
M  V30 4329 H 391.23 -3.83803 1.28365 0
M  V30 4330 H 389.8 -3.07893 0.540445 0
M  V30 4331 H 389.02 -2.58455 2.97648 0
M  V30 4332 H 390.308 -3.67476 3.51907 0
M  V30 4333 H 389.706 -5.57376 0.966876 0
M  V30 4334 H 388.263 -6.34523 1.49078 0
M  V30 4335 N 391.696 -1.35014 -0.812953 0
M  V30 4336 C 392.921 -1.31187 -1.60639 0
M  V30 4337 C 393.346 0.109382 -1.87782 0
M  V30 4338 O 392.704 1.07424 -1.46047 0
M  V30 4339 C 392.752 -2.11809 -2.91838 0
M  V30 4340 O 391.856 -1.49444 -3.8437 0
M  V30 4341 H 391.197 -0.450084 -0.488181 0
M  V30 4342 H 393.727 -1.77963 -1.00947 0
M  V30 4343 H 393.737 -2.23531 -3.41318 0
M  V30 4344 H 392.412 -3.15137 -2.71407 0
M  V30 4345 H 390.989 -1.46524 -3.42907 0
M  V30 4346 N 393.175 1.03435 -1.18907 0
M  V30 4347 C 394.085 2.15075 -0.937015 0
M  V30 4348 C 395.101 1.73706 0.101085 0
M  V30 4349 O 396.277 2.01232 -0.0822948 0
M  V30 4350 C 393.342 3.43458 -0.473057 0
M  V30 4351 C 392.403 3.99172 -1.57989 0
M  V30 4352 C 391.636 5.21427 -1.13797 0
M  V30 4353 O 391.859 5.704 0.000725941 0
M  V30 4354 O 390.793 5.69837 -1.9383 0
M  V30 4355 H 394.619 2.39198 -1.87131 0
M  V30 4356 H 392.204 1.13506 -0.971427 0
M  V30 4357 H 394.086 4.20811 -0.222702 0
M  V30 4358 H 392.761 3.20793 0.432869 0
M  V30 4359 H 391.668 3.23178 -1.88433 0
M  V30 4360 H 393.001 4.2619 -2.46217 0
M  V30 4361 N 394.653 0.992116 1.22453 0
M  V30 4362 C 395.585 0.500024 2.23679 0
M  V30 4363 C 396.598 -0.404463 1.57696 0
M  V30 4364 O 397.787 -0.206722 1.77299 0
M  V30 4365 C 394.887 -0.294711 3.37616 0
M  V30 4366 C 394.06 0.605723 4.33186 0
M  V30 4367 C 393.119 -0.13717 5.26021 0
M  V30 4368 O 392.145 0.477164 5.67196 0
M  V30 4369 N 393.347 -1.4197 5.62872 0
M  V30 4370 H 396.112 1.37045 2.66531 0
M  V30 4371 H 393.673 0.866741 1.36745 0
M  V30 4372 H 395.665 -0.800329 3.96707 0
M  V30 4373 H 394.235 -1.06623 2.93854 0
M  V30 4374 H 393.455 1.29202 3.72425 0
M  V30 4375 H 394.743 1.21896 4.93983 0
M  V30 4376 H 394.141 -1.94015 5.31389 0
M  V30 4377 H 392.698 -1.87052 6.24383 0
M  V30 4378 N 396.131 -1.37776 0.765217 0
M  V30 4379 C 397.408 -1.93975 0.251596 0
M  V30 4380 C 397.788 -1.69949 -1.25222 0
M  V30 4381 O 397.136 -1.04457 -2.03226 0
M  V30 4382 C 397.346 -3.43487 0.617895 0
M  V30 4383 C 398.694 -4.20564 0.584029 0
M  V30 4384 O 399.718 -3.5182 0.556888 0
M  V30 4385 O 398.577 -5.43138 0.605291 0
M  V30 4386 H 395.671 -0.82509 0.0561806 0
M  V30 4387 H 398.217 -1.47101 0.846128 0
M  V30 4388 H 396.989 -3.5453 1.65602 0
M  V30 4389 H 396.612 -3.976 -0.00403411 0
M  V30 4390 N 397.609 -0.515225 -1.4894 0
M  V30 4391 C 398.856 0.024215 -2.02486 0
M  V30 4392 C 399.184 1.35671 -1.39368 0
M  V30 4393 O 398.439 1.88566 -0.523574 0
M  V30 4394 C 398.738 0.210595 -3.56779 0
M  V30 4395 C 398.404 -1.04569 -4.38607 0
M  V30 4396 C 397.066 -1.39002 -4.60686 0
M  V30 4397 C 399.418 -1.88008 -4.86109 0
M  V30 4398 C 396.746 -2.568 -5.27514 0
M  V30 4399 C 399.098 -3.04972 -5.54234 0
M  V30 4400 C 397.762 -3.39768 -5.74555 0
M  V30 4401 H 397.032 0.00886088 -0.740947 0
M  V30 4402 H 399.679 -0.678263 -1.79086 0
M  V30 4403 H 397.984 0.99572 -3.78936 0
M  V30 4404 H 399.681 0.642659 -3.95817 0
M  V30 4405 H 396.271 -0.767497 -4.21672 0
M  V30 4406 H 400.455 -1.62719 -4.68867 0
M  V30 4407 H 395.711 -2.8398 -5.41447 0
M  V30 4408 H 399.885 -3.69943 -5.90013 0
M  V30 4409 H 397.512 -4.31148 -6.26112 0
M  V30 4410 N 399.087 1.5561 -0.249682 0
M  V30 4411 C 400.333 1.99306 0.374841 0
M  V30 4412 C 400.666 1.13767 1.57387 0
M  V30 4413 O 399.941 0.201711 1.93451 0
M  V30 4414 C 400.224 3.51507 0.781986 0
M  V30 4415 C 400.077 4.4781 -0.422629 0
M  V30 4416 C 401.396 4.08884 1.62793 0
M  V30 4417 H 398.515 0.724572 0.134773 0
M  V30 4418 H 401.157 1.86719 -0.351549 0
M  V30 4419 H 399.307 3.62363 1.4009 0
M  V30 4420 H 400.979 4.48931 -1.06108 0
M  V30 4421 H 399.222 4.20518 -1.06524 0
M  V30 4422 H 399.893 5.51919 -0.0943766 0
M  V30 4423 H 402.369 4.01147 1.10547 0
M  V30 4424 H 401.245 5.1564 1.88166 0
M  V30 4425 H 401.506 3.57515 2.60068 0
M  V30 4426 N 400.565 -0.0233959 1.57583 0
M  V30 4427 C 401.495 -1.02162 2.09965 0
M  V30 4428 C 402.476 -1.3735 1.00344 0
M  V30 4429 O 403.661 -1.46135 1.27899 0
M  V30 4430 C 400.791 -2.32081 2.58371 0
M  V30 4431 C 399.745 -2.1112 3.72307 0
M  V30 4432 C 399.071 -3.46848 4.06941 0
M  V30 4433 C 400.371 -1.49276 5.00514 0
M  V30 4434 H 402.065 -0.585557 2.93618 0
M  V30 4435 H 399.611 -0.280218 1.41247 0
M  V30 4436 H 401.564 -3.02249 2.93639 0
M  V30 4437 H 400.288 -2.77758 1.71808 0
M  V30 4438 H 398.947 -1.43384 3.37397 0
M  V30 4439 H 398.595 -3.90184 3.17436 0
M  V30 4440 H 398.295 -3.33646 4.83688 0
M  V30 4441 H 399.819 -4.18369 4.44747 0
M  V30 4442 H 401.233 -2.09368 5.33702 0
M  V30 4443 H 399.63 -1.46632 5.8191 0
M  V30 4444 H 400.7 -0.459217 4.82721 0
M  V30 4445 N 402.043 -1.548 -0.295768 0
M  V30 4446 C 403.459 -1.4613 -0.641722 0
M  V30 4447 C 403.659 -0.656771 -1.90496 0
M  V30 4448 O 402.715 -0.166547 -2.5195 0
M  V30 4449 C 404.028 -2.90141 -0.789852 0
M  V30 4450 C 405.576 -3.00216 -0.885396 0
M  V30 4451 C 406.051 -4.45434 -1.06548 0
M  V30 4452 N 407.542 -4.49166 -1.13156 0
M  V30 4453 C 408.277 -5.58717 -1.28929 0
M  V30 4454 N 407.773 -6.78182 -1.41567 0
M  V30 4455 N 409.566 -5.46415 -1.31859 0
M  V30 4456 H 401.717 -2.05574 0.534147 0
M  V30 4457 H 403.98 -0.931259 0.177372 0
M  V30 4458 H 403.686 -3.51635 0.0675598 0
M  V30 4459 H 403.56 -3.37859 -1.67724 0
M  V30 4460 H 405.947 -2.38833 -1.73329 0
M  V30 4461 H 406.028 -2.55787 0.0261185 0
M  V30 4462 H 405.672 -5.07413 -0.222335 0
M  V30 4463 H 405.602 -4.87499 -1.9913 0
M  V30 4464 H 408.093 -3.631 -1.04721 0
M  V30 4465 H 408.406 -7.57428 -1.53372 0
M  V30 4466 H 406.751 -6.81037 -1.38613 0
M  V30 4467 H 409.942 -4.5203 -1.21601 0
M  V30 4468 H 410.115 -6.31841 -1.43808 0
M  V30 4469 N 403.521 0.559213 -1.47345 0
M  V30 4470 C 404.767 1.31843 -1.54095 0
M  V30 4471 C 405.1 1.93149 -0.201726 0
M  V30 4472 O 404.375 1.77759 0.789428 0
M  V30 4473 C 404.658 2.43006 -2.65744 0
M  V30 4474 C 404.511 1.86581 -4.09277 0
M  V30 4475 C 405.83 3.44943 -2.73318 0
M  V30 4476 H 402.949 0.478012 -0.560957 0
M  V30 4477 H 405.591 0.625977 -1.79392 0
M  V30 4478 H 403.741 3.02072 -2.44305 0
M  V30 4479 H 405.413 1.31792 -4.42073 0
M  V30 4480 H 403.656 1.17268 -4.17649 0
M  V30 4481 H 404.327 2.66933 -4.83168 0
M  V30 4482 H 406.803 2.95793 -2.92653 0
M  V30 4483 H 405.679 4.20153 -3.53218 0
M  V30 4484 H 405.94 4.03665 -1.80296 0
M  V30 4485 N 404.999 1.35443 0.805782 0
M  V30 4486 C 406.239 1.30127 1.57627 0
M  V30 4487 C 406.603 -0.122567 1.91608 0
M  V30 4488 O 407.804 -0.300107 2.67119 0
M  V30 4489 C 406.075 2.18314 2.82973 0
M  V30 4490 S 407.634 2.30521 3.7337 0
M  V30 4491 H 404.452 0.462439 0.540066 0
M  V30 4492 H 407.054 1.70843 0.95042 0
M  V30 4493 H 405.758 3.20741 2.56034 0
M  V30 4494 H 405.289 1.78558 3.50543 0
M  V30 4495 H 407.304 1.49062 4.73281 0
M  V30 4496 N 406.477 -1.02803 1.19454 0
M  V30 4497 C 407.725 -1.75869 0.995722 0
M  V30 4498 C 408.046 -1.89138 -0.474543 0
M  V30 4499 O 407.316 -1.42558 -1.34366 0
M  V30 4500 H 405.896 -0.651511 0.365435 0
M  V30 4501 H 408.558 -1.24004 1.50363 0
M  V30 4502 H 407.654 -2.76661 1.44447 0
M  V30 4503 N 407.956 -0.998596 -1.21925 0
M  V30 4504 C 409.372 -0.710303 -1.42923 0
M  V30 4505 C 409.572 0.716933 -1.88314 0
M  V30 4506 O 408.628 1.48712 -2.04062 0
M  V30 4507 C 409.941 -1.72072 -2.466 0
M  V30 4508 C 411.489 -1.73681 -2.60392 0
M  V30 4509 C 411.964 -2.73601 -3.67296 0
M  V30 4510 N 413.455 -2.7223 -3.7476 0
M  V30 4511 C 414.19 -3.46206 -4.57087 0
M  V30 4512 N 413.686 -4.29802 -5.43362 0
M  V30 4513 N 415.479 -3.34886 -4.51451 0
M  V30 4514 H 407.63 -1.92028 -0.9077 0
M  V30 4515 H 409.893 -0.828487 -0.460775 0
M  V30 4516 H 409.599 -2.74231 -2.20206 0
M  V30 4517 H 409.473 -1.51818 -3.45299 0
M  V30 4518 H 411.86 -0.722173 -2.86127 0
M  V30 4519 H 411.941 -1.98005 -1.61949 0
M  V30 4520 H 411.585 -3.75217 -3.42307 0
M  V30 4521 H 411.515 -2.46545 -4.65321 0
M  V30 4522 H 414.006 -2.11576 -3.1312 0
M  V30 4523 H 414.319 -4.83061 -6.03218 0
M  V30 4524 H 412.664 -4.33887 -5.42925 0
M  V30 4525 H 415.855 -2.69015 -3.83078 0
M  V30 4526 H 416.028 -3.92796 -5.15379 0
M  V30 4527 N 409.434 1.37368 -0.772513 0
M  V30 4528 C 410.711 1.93839 -0.26188 0
M  V30 4529 C 411.091 1.7061 1.24319 0
M  V30 4530 O 410.439 1.05534 2.02669 0
M  V30 4531 C 410.649 3.43154 -0.636102 0
M  V30 4532 C 411.997 4.20249 -0.606324 0
M  V30 4533 O 413.021 3.5152 -0.575538 0
M  V30 4534 O 411.88 5.42809 -0.634086 0
M  V30 4535 H 408.974 0.82478 -0.0605555 0
M  V30 4536 H 411.52 1.4665 -0.853917 0
M  V30 4537 H 410.292 3.53647 -1.6748 0
M  V30 4538 H 409.915 3.97596 -0.0170516 0
M  V30 4539 N 410.912 0.523116 1.48665 0
M  V30 4540 C 411.822 -0.247406 2.33292 0
M  V30 4541 C 412.838 -0.945769 1.46052 0
M  V30 4542 O 414.014 -0.922253 1.79043 0
M  V30 4543 C 411.079 -1.28487 3.22012 0
M  V30 4544 C 410.14 -0.597592 4.2512 0
M  V30 4545 C 409.373 -1.58563 5.09601 0
M  V30 4546 O 409.596 -2.81763 4.95949 0
M  V30 4547 O 408.53 -1.12879 5.91221 0
M  V30 4548 H 412.356 0.445869 3.00409 0
M  V30 4549 H 409.941 0.284128 1.46673 0
M  V30 4550 H 411.823 -1.88459 3.7691 0
M  V30 4551 H 410.498 -1.96068 2.57564 0
M  V30 4552 H 409.405 0.0424407 3.74076 0
M  V30 4553 H 410.738 0.0361517 4.92187 0
M  V30 4554 N 412.39 -1.55475 0.257931 0
M  V30 4555 C 413.62 -2.03314 -0.367026 0
M  V30 4556 C 414.028 -1.13625 -1.51281 0
M  V30 4557 O 413.371 -0.145334 -1.83124 0
M  V30 4558 C 413.433 -3.47362 -0.926284 0
M  V30 4559 C 413.097 -4.56914 0.0886584 0
M  V30 4560 C 414.094 -5.12013 0.902123 0
M  V30 4561 C 411.779 -5.01827 0.217936 0
M  V30 4562 C 413.773 -6.10529 1.83122 0
M  V30 4563 C 411.46 -6.00172 1.15052 0
M  V30 4564 C 412.458 -6.54402 1.95568 0
M  V30 4565 O 412.146 -7.50827 2.87253 0
M  V30 4566 H 411.878 -0.669976 -0.0900443 0
M  V30 4567 H 414.432 -2.01804 0.382673 0
M  V30 4568 H 412.662 -3.46056 -1.72575 0
M  V30 4569 H 414.351 -3.78637 -1.46249 0
M  V30 4570 H 415.117 -4.78139 0.812891 0
M  V30 4571 H 410.996 -4.59272 -0.398721 0
M  V30 4572 H 414.54 -6.52783 2.46008 0
M  V30 4573 H 410.437 -6.33465 1.24064 0
M  V30 4574 H 411.205 -7.68483 2.81739 0
M  V30 4575 N 413.868 0.0150385 -1.57593 0
M  V30 4576 C 414.798 1.01047 -2.10503 0
M  V30 4577 C 415.779 1.36816 -1.01071 0
M  V30 4578 O 416.964 1.45455 -1.28672 0
M  V30 4579 C 414.094 2.30708 -2.59598 0
M  V30 4580 C 413.048 2.09142 -3.73421 0
M  V30 4581 C 412.374 3.44685 -4.08774 0
M  V30 4582 C 413.674 1.46619 -5.01298 0
M  V30 4583 H 415.368 0.569978 -2.93925 0
M  V30 4584 H 412.914 0.272724 -1.41394 0
M  V30 4585 H 414.867 3.00687 -2.95238 0
M  V30 4586 H 413.591 2.76843 -1.73279 0
M  V30 4587 H 412.25 1.41592 -3.38153 0
M  V30 4588 H 411.898 3.88495 -3.195 0
M  V30 4589 H 411.598 3.31077 -4.8545 0
M  V30 4590 H 413.122 4.16004 -4.4696 0
M  V30 4591 H 414.536 2.06535 -5.34805 0
M  V30 4592 H 412.933 1.43544 -5.82679 0
M  V30 4593 H 414.003 0.433611 -4.82957 0
M  V30 4594 N 415.346 1.54954 0.287554 0
M  V30 4595 C 416.592 1.75132 1.02257 0
M  V30 4596 C 416.925 0.542858 1.86458 0
M  V30 4597 O 416.2 -0.459856 1.88986 0
M  V30 4598 C 416.483 3.04812 1.91733 0
M  V30 4599 C 416.336 4.35985 1.10622 0
M  V30 4600 C 417.655 3.30438 2.90687 0
M  V30 4601 H 414.774 0.637194 0.370341 0
M  V30 4602 H 417.416 1.87678 0.296111 0
M  V30 4603 H 415.566 2.94247 2.53675 0
M  V30 4604 H 417.238 4.58487 0.508636 0
M  V30 4605 H 415.481 4.31865 0.409271 0
M  V30 4606 H 416.152 5.23017 1.76513 0
M  V30 4607 H 418.628 3.40701 2.38877 0
M  V30 4608 H 417.504 4.22467 3.50447 0
M  V30 4609 H 417.765 2.49377 3.65053 0
M  V30 4610 N 416.824 -0.551391 1.4764 0
M  V30 4611 C 418.072 -1.30572 1.54258 0
M  V30 4612 C 418.393 -1.93877 0.208963 0
M  V30 4613 O 417.663 -1.80234 -0.767619 0
M  V30 4614 H 416.243 -0.484894 0.568231 0
M  V30 4615 H 418.905 -0.643402 1.83974 0
M  V30 4616 H 418.001 -2.09621 2.31226 0
M  V30 4617 N 418.302 -1.35869 -0.798587 0
M  V30 4618 C 419.212 -1.31578 -1.94228 0
M  V30 4619 C 420.228 -0.21939 -1.72611 0
M  V30 4620 O 421.404 -0.450167 -1.96305 0
M  V30 4621 C 418.469 -1.09528 -3.28944 0
M  V30 4622 C 417.53 -2.28556 -3.63402 0
M  V30 4623 C 416.763 -2.07549 -4.9169 0
M  V30 4624 O 416.986 -1.046 -5.60727 0
M  V30 4625 O 415.92 -2.95106 -5.24591 0
M  V30 4626 H 419.746 -2.27847 -2.00796 0
M  V30 4627 H 417.331 -1.16322 -0.937526 0
M  V30 4628 H 419.213 -0.991127 -4.09579 0
M  V30 4629 H 417.888 -0.16315 -3.23289 0
M  V30 4630 H 416.795 -2.44538 -2.83112 0
M  V30 4631 H 418.128 -3.20244 -3.73771 0
M  V30 4632 N 419.78 1.02168 -1.19998 0
M  V30 4633 C 421.008 1.79296 -1.03249 0
M  V30 4634 C 421.423 1.84103 0.418502 0
M  V30 4635 O 420.78 1.29031 1.29063 0
M  V30 4636 C 420.831 3.24007 -1.60319 0
M  V30 4637 O 420.552 3.19512 -2.99739 0
M  V30 4638 C 422.053 4.17704 -1.48453 0
M  V30 4639 H 419.273 0.564016 -0.363493 0
M  V30 4640 H 421.817 1.28639 -1.58973 0
M  V30 4641 H 419.972 3.7183 -1.08727 0
M  V30 4642 H 420.386 4.10306 -3.26725 0
M  V30 4643 H 421.86 5.17104 -1.93153 0
M  V30 4644 H 422.337 4.37029 -0.436193 0
M  V30 4645 H 422.943 3.7576 -1.99211 0
M  V30 4646 N 421.258 1.00505 1.21394 0
M  V30 4647 C 422.669 0.721082 1.72213 0
M  V30 4648 C 423.02 -0.761263 1.80829 0
M  V30 4649 O 422.145 -1.59464 1.46288 0
M  V30 4650 C 422.74 1.30228 3.12772 0
M  V30 4651 C 421.299 1.06743 3.60947 0
M  V30 4652 C 420.446 1.41507 2.38477 0
M  V30 4653 H 423.397 1.17594 1.06571 0
M  V30 4654 H 423.418 0.686955 3.74247 0
M  V30 4655 H 422.93 2.38115 3.06468 0
M  V30 4656 H 421.031 0.00572162 3.726 0
M  V30 4657 H 421.144 1.73936 4.46411 0
M  V30 4658 H 419.508 0.833852 2.40664 0
M  V30 4659 H 420.291 2.50424 2.34824 0
M  V30 4660 N 422.737 -1.36956 0.779787 0
M  V30 4661 C 423.986 -1.98738 0.344405 0
M  V30 4662 C 424.299 -1.62596 -1.08728 0
M  V30 4663 O 425.505 -2.1754 -1.62445 0
M  V30 4664 C 423.961 -3.5544 0.564829 0
M  V30 4665 C 423.569 -4.00514 2.0073 0
M  V30 4666 C 425.313 -4.24059 0.193471 0
M  V30 4667 C 423.22 -5.49957 2.17489 0
M  V30 4668 H 422.15 -0.743561 0.12503 0
M  V30 4669 H 424.801 -1.56381 0.960057 0
M  V30 4670 H 423.183 -3.95817 -0.120397 0
M  V30 4671 H 424.357 -3.71362 2.72814 0
M  V30 4672 H 422.672 -3.44703 2.336 0
M  V30 4673 H 425.269 -5.33874 0.297097 0
M  V30 4674 H 425.612 -4.07378 -0.857263 0
M  V30 4675 H 426.145 -3.89012 0.831556 0
M  V30 4676 H 422.884 -5.71574 3.2091 0
M  V30 4677 H 422.404 -5.80767 1.49899 0
M  V30 4678 H 424.083 -6.16043 1.97738 0
M  V30 4679 N 424.215 -0.530993 -1.48385 0
M  V30 4680 C 425.162 0.231223 -2.29639 0
M  V30 4681 C 426.132 0.932864 -1.37429 0
M  V30 4682 O 427.317 0.933692 -1.66394 0
M  V30 4683 C 424.457 1.27155 -3.2082 0
M  V30 4684 C 423.57 0.578655 -4.28107 0
M  V30 4685 C 422.705 1.602 -5.06467 0
M  V30 4686 C 421.744 0.892625 -6.05556 0
M  V30 4687 N 420.881 1.86157 -6.76971 0
M  V30 4688 H 425.721 -0.467848 -2.94305 0
M  V30 4689 H 423.258 -0.242556 -1.45086 0
M  V30 4690 H 425.216 1.88703 -3.72085 0
M  V30 4691 H 423.846 1.939 -2.58075 0
M  V30 4692 H 422.898 -0.150782 -3.80101 0
M  V30 4693 H 424.21 0.0217065 -4.98795 0
M  V30 4694 H 423.364 2.29173 -5.61751 0
M  V30 4695 H 422.103 2.19285 -4.35621 0
M  V30 4696 H 421.108 0.188829 -5.49476 0
M  V30 4697 H 422.333 0.307878 -6.78402 0
M  V30 4698 H 420.279 2.44147 -6.08875 0
M  V30 4699 H 420.196 1.35608 -7.43738 0
M  V30 4700 H 421.464 2.54325 -7.36844 0
M  V30 4701 N 425.693 1.55336 -0.266172 0
M  V30 4702 C 426.641 2.23587 0.641228 0
M  V30 4703 C 427.635 1.22986 1.16494 0
M  V30 4704 O 428.841 1.40943 1.1196 0
M  V30 4705 H 425.216 0.717452 0.225315 0
M  V30 4706 H 427.187 2.9837 0.0426561 0
M  V30 4707 C 425.936 2.96369 1.81826 0
M  V30 4708 H 425.259 3.73563 1.42445 0
M  V30 4709 H 426.699 3.47459 2.42998 0
M  V30 4710 C 425.158 2.0133 2.70125 0
M  V30 4711 O 425.688 1.55875 3.70224 0
M  V30 4712 N 423.894 1.6802 2.37102 0
M  V30 4713 H 423.441 2.05181 1.55751 0
M  V30 4714 H 423.399 1.047 2.96454 0
M  V30 4715 N 427.171 -0.0066808 1.57599 0
M  V30 4716 C 428.418 -0.69292 1.90276 0
M  V30 4717 C 428.746 -1.74148 0.866192 0
M  V30 4718 O 428.001 -1.95268 -0.129933 0
M  V30 4719 C 428.3 -1.37939 3.29708 0
M  V30 4720 C 427.966 -0.464679 4.48499 0
M  V30 4721 C 426.628 -0.212809 4.80729 0
M  V30 4722 C 428.98 0.16551 5.20937 0
M  V30 4723 C 426.308 0.677653 5.82773 0
M  V30 4724 C 428.66 1.04381 6.23929 0
M  V30 4725 C 427.324 1.30492 6.54621 0
M  V30 4726 H 426.594 -0.253558 0.696268 0
M  V30 4727 H 429.241 0.0474123 1.91441 0
M  V30 4728 H 427.546 -2.1936 3.24636 0
M  V30 4729 H 429.243 -1.9163 3.52249 0
M  V30 4730 H 425.833 -0.671153 4.23313 0
M  V30 4731 H 430.017 -0.0160756 4.96297 0
M  V30 4732 H 425.273 0.88803 6.04917 0
M  V30 4733 H 429.447 1.53851 6.79193 0
M  V30 4734 H 427.074 1.99662 7.33512 0
M  V30 4735 N 428.649 -1.55105 -0.279332 0
M  V30 4736 C 429.581 -1.83952 -1.36727 0
M  V30 4737 C 430.594 -0.723642 -1.45833 0
M  V30 4738 O 431.783 -1.00141 -1.47763 0
M  V30 4739 C 428.883 -1.98183 -2.74912 0
M  V30 4740 C 428.056 -3.28787 -2.88475 0
M  V30 4741 C 427.115 -3.33162 -4.07295 0
M  V30 4742 O 426.141 -4.06576 -3.98353 0
M  V30 4743 N 427.343 -2.60109 -5.18964 0
M  V30 4744 H 430.108 -2.77853 -1.12328 0
M  V30 4745 H 427.669 -1.54945 -0.469442 0
M  V30 4746 H 429.661 -1.98488 -3.52682 0
M  V30 4747 H 428.231 -1.11177 -2.92162 0
M  V30 4748 H 427.451 -3.41075 -1.97641 0
M  V30 4749 H 428.739 -4.14933 -2.94463 0
M  V30 4750 H 428.137 -2.00136 -5.29115 0
M  V30 4751 H 426.694 -2.66143 -5.94988 0
M  V30 4752 N 430.127 0.543554 -1.4793 0
M  V30 4753 C 431.373 1.29961 -1.56466 0
M  V30 4754 C 431.728 1.91024 -0.229696 0
M  V30 4755 O 431.021 1.75619 0.766072 0
M  V30 4756 C 431.215 2.42078 -2.62932 0
M  V30 4757 C 431.044 1.92003 -4.06651 0
M  V30 4758 C 429.814 1.75223 -4.73946 0
M  V30 4759 C 432.012 1.45648 -4.93245 0
M  V30 4760 N 429.994 1.19632 -6.02131 0
M  V30 4761 C 431.365 1.01914 -6.11566 0
M  V30 4762 C 433.42 1.33826 -4.79578 0
M  V30 4763 C 432.123 0.475301 -7.17728 0
M  V30 4764 C 434.149 0.808427 -5.85848 0
M  V30 4765 C 433.511 0.381081 -7.03368 0
M  V30 4766 H 429.61 0.467086 -0.62718 0
M  V30 4767 H 432.194 0.614543 -1.84747 0
M  V30 4768 H 430.365 3.08098 -2.36496 0
M  V30 4769 H 432.097 3.09096 -2.61231 0
M  V30 4770 H 428.852 1.98345 -4.30065 0
M  V30 4771 H 429.276 0.93885 -6.70458 0
M  V30 4772 H 433.918 1.65474 -3.89074 0
M  V30 4773 H 431.636 0.146472 -8.07967 0
M  V30 4774 H 435.222 0.720315 -5.77324 0
M  V30 4775 H 434.102 -0.0225344 -7.84197 0
M  V30 4776 N 431.605 1.3629 0.791371 0
M  V30 4777 C 432.851 1.30605 1.55146 0
M  V30 4778 C 433.184 -0.115042 1.93859 0
M  V30 4779 O 432.459 -1.06798 1.62556 0
M  V30 4780 C 432.742 2.22692 2.82985 0
M  V30 4781 C 432.595 3.73489 2.50651 0
M  V30 4782 C 433.914 2.13588 3.84796 0
M  V30 4783 H 431.033 0.475761 0.562868 0
M  V30 4784 H 433.675 1.66825 0.909358 0
M  V30 4785 H 431.825 1.91933 3.37778 0
M  V30 4786 H 433.497 4.14758 2.01924 0
M  V30 4787 H 431.74 3.93021 1.83622 0
M  V30 4788 H 432.411 4.3333 3.41949 0
M  V30 4789 H 434.887 2.40659 3.39445 0
M  V30 4790 H 433.763 2.80195 4.71998 0
M  V30 4791 H 434.024 1.12256 4.27611 0
M  V30 4792 N 433.083 -1.0153 1.20538 0
M  V30 4793 C 434.499 -1.27461 0.96051 0
M  V30 4794 C 434.699 -1.98273 -0.359193 0
M  V30 4795 O 433.755 -2.27886 -1.0874 0
M  V30 4796 C 435.068 -2.10837 2.14402 0
M  V30 4797 C 436.616 -2.24099 2.18515 0
M  V30 4798 C 437.091 -3.10852 3.36355 0
M  V30 4799 N 438.582 -3.18441 3.36377 0
M  V30 4800 C 439.317 -3.85795 4.24205 0
M  V30 4801 N 438.813 -4.55264 5.22213 0
M  V30 4802 N 440.606 -3.82331 4.12043 0
M  V30 4803 H 432.757 -0.539907 2.05423 0
M  V30 4804 H 435.02 -0.30092 0.898972 0
M  V30 4805 H 434.726 -1.66144 3.09983 0
M  V30 4806 H 434.6 -3.11576 2.12604 0
M  V30 4807 H 436.987 -2.68016 1.23497 0
M  V30 4808 H 437.068 -1.22865 2.24361 0
M  V30 4809 H 436.712 -2.6764 4.31661 0
M  V30 4810 H 436.642 -4.12177 3.27746 0
M  V30 4811 H 439.133 -2.68978 2.65442 0
M  V30 4812 H 439.446 -5.04331 5.85551 0
M  V30 4813 H 437.791 -4.54085 5.26148 0
M  V30 4814 H 440.982 -3.27207 3.34743 0
M  V30 4815 H 441.155 -4.34547 4.807 0
M  V30 4816 N 434.561 -1.01147 -1.20859 0
M  V30 4817 C 435.511 -0.548247 -2.2131 0
M  V30 4818 C 436.495 0.393646 -1.5601 0
M  V30 4819 O 437.687 0.217445 -1.75659 0
M  V30 4820 C 434.816 0.117252 -3.431 0
M  V30 4821 C 433.902 -0.846043 -4.15575 0
M  V30 4822 N 434.293 -2.00149 -4.64515 0
M  V30 4823 C 432.591 -0.665783 -4.41003 0
M  V30 4824 C 433.292 -2.60764 -5.19978 0
M  V30 4825 N 432.268 -1.88868 -5.09735 0
M  V30 4826 H 436.07 -1.42921 -2.56809 0
M  V30 4827 H 433.584 -0.876142 -1.36739 0
M  V30 4828 H 435.581 0.46662 -4.1428 0
M  V30 4829 H 434.241 0.994115 -3.09107 0
M  V30 4830 H 435.252 -2.38162 -4.5989 0
M  V30 4831 H 431.929 0.163456 -4.1718 0
M  V30 4832 H 433.319 -3.58519 -5.68255 0
M  V30 4833 N 436.039 1.36541 -0.78704 0
M  V30 4834 C 437.279 2.01138 -0.363714 0
M  V30 4835 C 437.643 1.61114 1.04433 0
M  V30 4836 O 438.844 2.18285 1.56861 0
M  V30 4837 C 437.115 3.53603 -0.519582 0
M  V30 4838 S 438.674 4.38415 -0.183782 0
M  V30 4839 H 435.492 0.697263 -0.13909 0
M  V30 4840 H 438.094 1.66475 -1.02501 0
M  V30 4841 H 436.798 3.8022 -1.5447 0
M  V30 4842 H 436.329 3.93084 0.15773 0
M  V30 4843 H 438.344 4.85698 1.01547 0
M  V30 4844 N 437.518 0.538854 1.48102 0
M  V30 4845 C 438.448 -0.207654 2.32575 0
M  V30 4846 C 439.429 -0.926559 1.4265 0
M  V30 4847 O 440.614 -0.91061 1.71527 0
M  V30 4848 C 437.744 -1.24957 3.24042 0
M  V30 4849 C 436.698 -0.648263 4.23062 0
M  V30 4850 C 436.024 -1.79348 5.03725 0
M  V30 4851 C 437.324 0.385897 5.20872 0
M  V30 4852 H 439.018 0.497534 2.95237 0
M  V30 4853 H 436.564 0.240715 1.41974 0
M  V30 4854 H 438.517 -1.77983 3.81969 0
M  V30 4855 H 437.241 -1.98446 2.59397 0
M  V30 4856 H 435.9 -0.139452 3.66335 0
M  V30 4857 H 435.548 -2.51696 4.35498 0
M  V30 4858 H 435.248 -1.39702 5.70751 0
M  V30 4859 H 436.772 -2.32735 5.64506 0
M  V30 4860 H 438.186 -0.057607 5.73271 0
M  V30 4861 H 436.583 0.700227 5.96001 0
M  V30 4862 H 437.653 1.28848 4.67468 0
M  V30 4863 N 438.996 -1.55193 0.274407 0
M  V30 4864 C 439.943 -2.225 -0.613374 0
M  V30 4865 C 440.913 -1.19823 -1.15029 0
M  V30 4866 O 442.098 -1.48362 -1.19973 0
M  V30 4867 C 439.238 -2.94927 -1.79199 0
M  V30 4868 C 438.351 -4.12322 -1.28899 0
M  V30 4869 C 437.486 -4.72394 -2.42934 0
M  V30 4870 C 436.525 -5.81984 -1.89634 0
M  V30 4871 N 435.662 -6.36123 -2.9714 0
M  V30 4872 H 440.502 -2.97982 -0.032756 0
M  V30 4873 H 438.039 -1.47099 -0.00440146 0
M  V30 4874 H 439.997 -3.35134 -2.48478 0
M  V30 4875 H 438.627 -2.2187 -2.34465 0
M  V30 4876 H 437.679 -3.7724 -0.489327 0
M  V30 4877 H 438.991 -4.91355 -0.858587 0
M  V30 4878 H 438.145 -5.15317 -3.20208 0
M  V30 4879 H 436.884 -3.92636 -2.8929 0
M  V30 4880 H 435.889 -5.38511 -1.1084 0
M  V30 4881 H 437.114 -6.6361 -1.44215 0
M  V30 4882 H 435.06 -5.59259 -3.42878 0
M  V30 4883 H 434.977 -7.10427 -2.58515 0
M  V30 4884 H 436.245 -6.83704 -3.74391 0
M  V30 4885 N 440.474 -0.00167713 -1.576 0
M  V30 4886 C 441.422 1.0074 -2.09652 0
M  V30 4887 C 442.416 1.35483 -1.01689 0
M  V30 4888 O 443.622 1.34028 -1.20152 0
M  V30 4889 H 439.997 0.342537 -0.669457 0
M  V30 4890 H 441.968 0.542841 -2.93421 0
M  V30 4891 C 440.717 2.2899 -2.61647 0
M  V30 4892 H 440.04 2.03124 -3.44355 0
M  V30 4893 H 441.48 2.9787 -3.01744 0
M  V30 4894 C 439.939 3.00085 -1.53136 0
M  V30 4895 O 440.469 3.91135 -0.91524 0
M  V30 4896 N 438.675 2.6194 -1.25841 0
M  V30 4897 H 438.222 1.8798 -1.76129 0
M  V30 4898 H 438.18 3.09822 -0.534576 0
M  V30 4899 N 441.952 1.55251 0.271103 0
M  V30 4900 C 443.2 1.75599 1.00047 0
M  V30 4901 C 443.521 0.561188 1.8675 0
M  V30 4902 O 442.791 -0.423846 1.9126 0
M  V30 4903 H 441.371 0.647562 0.372387 0
M  V30 4904 H 444.033 1.92656 0.294876 0
M  V30 4905 H 443.129 2.65766 1.6363 0
M  V30 4906 N 443.43 -0.535701 1.48216 0
M  V30 4907 C 444.34 -1.66785 1.64985 0
M  V30 4908 C 445.356 -1.65654 0.532414 0
M  V30 4909 O 446.532 -1.8471 0.80275 0
M  V30 4910 C 443.597 -3.0326 1.68031 0
M  V30 4911 C 442.658 -3.1529 2.9136 0
M  V30 4912 C 441.891 -4.45255 2.94252 0
M  V30 4913 O 442.114 -5.32011 2.05719 0
M  V30 4914 O 441.048 -4.6153 3.86359 0
M  V30 4915 H 444.874 -1.55576 2.60825 0
M  V30 4916 H 442.459 -0.70815 1.31551 0
M  V30 4917 H 444.341 -3.84436 1.72589 0
M  V30 4918 H 443.016 -3.14805 0.753628 0
M  V30 4919 H 441.923 -2.3343 2.92337 0
M  V30 4920 H 443.256 -3.08658 3.83394 0
M  V30 4921 N 444.908 -1.36708 -0.784132 0
M  V30 4922 C 445.818 -1.3363 -1.92822 0
M  V30 4923 C 446.834 -0.237686 -1.72369 0
M  V30 4924 O 448.01 -0.470962 -1.95816 0
M  V30 4925 C 445.075 -1.13011 -3.27764 0
M  V30 4926 C 444.136 -2.32397 -3.60957 0
M  V30 4927 C 443.369 -2.12752 -4.89461 0
M  V30 4928 O 443.592 -1.10541 -5.59586 0
M  V30 4929 O 442.526 -3.00653 -5.21432 0
M  V30 4930 H 446.352 -2.29964 -1.98369 0
M  V30 4931 H 443.937 -1.1731 -0.925136 0
M  V30 4932 H 445.819 -1.03451 -4.08504 0
M  V30 4933 H 444.494 -0.19743 -3.23097 0
M  V30 4934 H 443.401 -2.47527 -2.80502 0
M  V30 4935 H 444.734 -3.2419 -3.70354 0
M  V30 4936 N 446.386 1.0089 -1.21074 0
M  V30 4937 C 447.635 1.74019 -1.01981 0
M  V30 4938 C 447.948 1.90408 0.447665 0
M  V30 4939 O 449.154 2.60707 0.757906 0
M  V30 4940 C 447.61 3.13026 -1.77603 0
M  V30 4941 C 447.218 3.04623 -3.28495 0
M  V30 4942 C 448.962 3.90312 -1.66904 0
M  V30 4943 C 446.869 4.38685 -3.96623 0
M  V30 4944 H 445.799 0.652422 -0.377971 0
M  V30 4945 H 448.45 1.12755 -1.44771 0
M  V30 4946 H 446.832 3.74878 -1.27604 0
M  V30 4947 H 448.006 2.52032 -3.85767 0
M  V30 4948 H 446.321 2.40827 -3.39693 0
M  V30 4949 H 448.918 4.8951 -2.15138 0
M  V30 4950 H 449.261 4.11558 -0.62658 0
M  V30 4951 H 449.794 3.35104 -2.14359 0
M  V30 4952 H 446.533 4.22641 -5.01054 0
M  V30 4953 H 446.053 4.91252 -3.4414 0
M  V30 4954 H 447.732 5.075 -4.01314 0
M  V30 4955 N 447.864 1.01787 1.20321 0
M  V30 4956 C 448.814 0.559976 2.21016 0
M  V30 4957 C 449.798 -0.385366 1.56217 0
M  V30 4958 O 450.99 -0.208126 1.75772 0
M  V30 4959 C 448.119 -0.0990553 3.43157 0
M  V30 4960 C 447.205 0.86807 4.15121 0
M  V30 4961 N 447.596 2.0261 4.63447 0
M  V30 4962 C 445.894 0.689162 4.40643 0
M  V30 4963 C 446.595 2.63518 5.18588 0
M  V30 4964 N 445.571 1.91569 5.08726 0
M  V30 4965 H 449.373 1.44281 2.56048 0
M  V30 4966 H 446.887 0.883381 1.36272 0
M  V30 4967 H 448.884 -0.444643 4.14522 0
M  V30 4968 H 447.544 -0.977709 3.0963 0
M  V30 4969 H 448.555 2.40598 4.58621 0
M  V30 4970 H 445.232 -0.14133 4.17261 0
M  V30 4971 H 446.622 3.61527 5.66346 0
M  V30 4972 N 449.342 -1.36122 0.79427 0
M  V30 4973 C 450.588 -1.99406 0.369452 0
M  V30 4974 C 450.921 -1.62886 -1.05743 0
M  V30 4975 O 450.196 -0.886053 -1.73145 0
M  V30 4976 C 450.479 -3.56046 0.538833 0
M  V30 4977 C 450.332 -4.02404 2.00976 0
M  V30 4978 C 451.651 -4.40079 -0.0431359 0
M  V30 4979 H 448.77 -0.724397 0.135712 0
M  V30 4980 H 451.412 -1.61461 1.00151 0
M  V30 4981 H 449.562 -3.885 0.000771004 0
M  V30 4982 H 451.234 -3.80415 2.60926 0
M  V30 4983 H 449.477 -3.53765 2.51063 0
M  V30 4984 H 450.148 -5.11344 2.07922 0
M  V30 4985 H 452.624 -4.14013 0.416228 0
M  V30 4986 H 451.5 -5.48799 0.105374 0
M  V30 4987 H 451.761 -4.27264 -1.13571 0
M  V30 4988 N 450.82 -0.546701 -1.47814 0
M  V30 4989 C 452.066 -0.0187684 -2.02791 0
M  V30 4990 C 452.399 1.32338 -1.42128 0
M  V30 4991 O 451.674 1.85867 -0.573023 0
M  V30 4992 C 451.957 0.0854985 -3.59998 0
M  V30 4993 C 451.81 -1.283 -4.31114 0
M  V30 4994 C 453.129 0.80412 -4.32691 0
M  V30 4995 H 450.248 -0.0082946 -0.736953 0
M  V30 4996 H 452.89 -0.706962 -1.76358 0
M  V30 4997 H 451.04 0.671609 -3.82651 0
M  V30 4998 H 452.712 -1.91151 -4.19832 0
M  V30 4999 H 450.955 -1.86049 -3.91878 0
M  V30 5000 H 451.626 -1.16287 -5.39612 0
M  V30 5001 H 454.102 0.306576 -4.14969 0
M  V30 5002 H 452.978 0.846011 -5.42341 0
M  V30 5003 H 453.239 1.85802 -4.01161 0
M  V30 5004 N 452.299 1.55045 -0.282633 0
M  V30 5005 C 453.229 2.2579 0.595066 0
M  V30 5006 C 454.21 1.25074 1.15284 0
M  V30 5007 O 455.395 1.5381 1.18559 0
M  V30 5008 C 452.525 2.98472 1.77572 0
M  V30 5009 C 451.479 4.0618 1.34914 0
M  V30 5010 C 450.805 4.66477 2.6135 0
M  V30 5011 C 452.105 5.1996 0.493821 0
M  V30 5012 H 453.799 2.994 0.00505653 0
M  V30 5013 H 451.345 1.44 0.000992001 0
M  V30 5014 H 453.298 3.46677 2.39568 0
M  V30 5015 H 452.022 2.2241 2.39168 0
M  V30 5016 H 450.681 3.58797 0.752338 0
M  V30 5017 H 450.329 3.87074 3.2122 0
M  V30 5018 H 450.029 5.39207 2.33516 0
M  V30 5019 H 451.553 5.17435 3.24181 0
M  V30 5020 H 452.967 5.64172 1.01898 0
M  V30 5021 H 451.364 5.99299 0.310047 0
M  V30 5022 H 452.434 4.82462 -0.485593 0
M  V30 5023 N 453.777 0.010035 1.57597 0
M  V30 5024 C 455.054 -0.710296 1.82248 0
M  V30 5025 C 455.434 -1.91426 0.889911 0
M  V30 5026 O 454.782 -2.28424 -0.0590292 0
M  V30 5027 C 454.992 -1.10655 3.30993 0
M  V30 5028 C 456.34 -1.50621 3.96987 0
M  V30 5029 O 457.364 -1.20007 3.35375 0
M  V30 5030 O 456.223 -2.07587 5.05539 0
M  V30 5031 H 453.317 -0.34673 0.750804 0
M  V30 5032 H 455.863 0.0362578 1.69661 0
M  V30 5033 H 454.635 -0.248826 3.90508 0
M  V30 5034 H 454.258 -1.91189 3.48615 0
M  V30 5035 N 455.255 -1.55392 -0.262866 0
M  V30 5036 C 456.483 -1.80513 -1.01108 0
M  V30 5037 C 456.898 -0.583533 -1.79556 0
M  V30 5038 O 456.255 0.447585 -1.76926 0
M  V30 5039 C 456.306 -3.03648 -1.96164 0
M  V30 5040 O 456.027 -4.2109 -1.20893 0
M  V30 5041 C 457.528 -3.41448 -2.82715 0
M  V30 5042 H 454.748 -0.601079 -0.298236 0
M  V30 5043 H 457.292 -2.02425 -0.290582 0
M  V30 5044 H 455.447 -2.83832 -2.63663 0
M  V30 5045 H 455.861 -4.90771 -1.85051 0
M  V30 5046 H 457.335 -4.30751 -3.45192 0
M  V30 5047 H 457.812 -2.61308 -3.53008 0
M  V30 5048 H 458.418 -3.63559 -2.20693 0
M  V30 5049 N 456.733 0.527833 -1.48498 0
M  V30 5050 C 458.144 1.10975 -1.50138 0
M  V30 5051 C 458.495 1.943 -0.272378 0
M  V30 5052 O 457.62 2.07319 0.620301 0
M  V30 5053 C 458.215 2.01927 -2.72049 0
M  V30 5054 C 456.774 2.55332 -2.76554 0
M  V30 5055 C 455.921 1.32341 -2.43683 0
M  V30 5056 H 458.872 0.312986 -1.55583 0
M  V30 5057 H 458.893 2.86244 -2.50689 0
M  V30 5058 H 458.405 1.41254 -3.61481 0
M  V30 5059 H 456.506 3.19721 -1.91336 0
M  V30 5060 H 456.619 2.94319 -3.78038 0
M  V30 5061 H 454.983 1.63989 -1.94884 0
M  V30 5062 H 455.766 0.734165 -3.35358 0
M  V30 5063 N 458.211 1.37122 0.776871 0
M  V30 5064 C 459.622 1.28667 1.35284 0
M  V30 5065 C 459.973 -0.0680035 1.96082 0
M  V30 5066 O 459.098 -0.969743 1.93455 0
M  V30 5067 C 459.693 2.32997 2.45963 0
M  V30 5068 C 458.252 2.28191 2.99342 0
M  V30 5069 C 457.399 2.17101 1.72517 0
M  V30 5070 H 460.35 1.47819 0.577527 0
M  V30 5071 H 460.371 1.97366 3.2531 0
M  V30 5072 H 459.883 3.3158 2.01684 0
M  V30 5073 H 457.984 1.33115 3.4801 0
M  V30 5074 H 458.097 3.21397 3.55304 0
M  V30 5075 H 456.461 1.63562 1.95242 0
M  V30 5076 H 457.244 3.17591 1.30348 0
M  V30 5077 N 459.689 -1.00246 1.21608 0
M  V30 5078 C 460.966 -1.71336 0.943568 0
M  V30 5079 C 461.346 -2.03972 -0.543943 0
M  V30 5080 O 460.694 -1.71545 -1.50946 0
M  V30 5081 C 460.904 -2.97094 1.83128 0
M  V30 5082 C 462.252 -3.70071 2.08165 0
M  V30 5083 O 463.276 -3.07081 1.80498 0
M  V30 5084 O 462.135 -4.83376 2.54971 0
M  V30 5085 H 459.229 -0.747386 0.354039 0
M  V30 5086 H 461.775 -1.05967 1.32549 0
M  V30 5087 H 460.547 -2.69407 2.83788 0
M  V30 5088 H 460.17 -3.70204 1.45034 0
M  V30 5089 N 461.167 -1.02423 -1.1978 0
M  V30 5090 C 462.578 -0.748389 -1.71044 0
M  V30 5091 C 462.929 0.732398 -1.82017 0
M  V30 5092 O 462.054 1.57116 -1.48807 0
M  V30 5093 C 462.649 -1.35187 -3.1066 0
M  V30 5094 C 461.208 -1.12472 -3.59203 0
M  V30 5095 C 460.355 -1.45283 -2.36195 0
M  V30 5096 H 463.306 -1.19275 -1.04686 0
M  V30 5097 H 463.327 -0.746408 -3.73107 0
M  V30 5098 H 462.839 -2.4296 -3.02642 0
M  V30 5099 H 460.94 -0.0649983 -3.72543 0
M  V30 5100 H 461.053 -1.81016 -4.43588 0
M  V30 5101 H 459.417 -0.872034 -2.39307 0
M  V30 5102 H 460.2 -2.54129 -2.30811 0
M  V30 5103 N 462.645 1.35699 -0.801477 0
M  V30 5104 C 463.608 2.28199 -0.213994 0
M  V30 5105 C 464.608 1.49359 0.595691 0
M  V30 5106 O 465.798 1.69186 0.414921 0
M  V30 5107 C 462.93 3.33587 0.702297 0
M  V30 5108 H 464.123 2.81666 -1.02976 0
M  V30 5109 H 461.676 1.45467 -0.571759 0
M  V30 5110 H 462.411 2.85297 1.54195 0
M  V30 5111 H 462.196 3.91906 0.123484 0
M  V30 5112 H 463.686 4.02638 1.10783 0
M  V30 5113 N 464.123 0.554532 1.47522 0
M  V30 5114 C 465.053 -0.182974 2.32782 0
M  V30 5115 C 466.034 -0.911377 1.43624 0
M  V30 5116 O 467.219 -0.892366 1.72483 0
M  V30 5117 C 464.349 -1.21513 3.25349 0
M  V30 5118 C 463.303 -0.603355 4.23726 0
M  V30 5119 C 462.629 -1.73995 5.05598 0
M  V30 5120 C 463.929 0.441121 5.20434 0
M  V30 5121 H 465.623 0.52882 2.94693 0
M  V30 5122 H 463.169 0.255759 1.41711 0
M  V30 5123 H 465.122 -1.73922 3.83835 0
M  V30 5124 H 463.846 -1.95683 2.61487 0
M  V30 5125 H 462.505 -0.10059 3.66462 0
M  V30 5126 H 462.153 -2.47063 4.38143 0
M  V30 5127 H 461.853 -1.3364 5.72201 0
M  V30 5128 H 463.377 -2.26735 5.66942 0
M  V30 5129 H 464.791 0.00319931 5.733 0
M  V30 5130 H 463.188 0.763402 5.95224 0
M  V30 5131 H 464.258 1.33799 4.66075 0
M  V30 5132 N 465.601 -1.54893 0.290851 0
M  V30 5133 C 466.878 -1.91991 -0.373989 0
M  V30 5134 C 467.258 -1.21694 -1.72493 0
M  V30 5135 O 466.606 -0.34917 -2.25816 0
M  V30 5136 C 466.816 -3.45419 -0.498703 0
M  V30 5137 C 468.164 -4.1748 -0.774298 0
M  V30 5138 O 469.188 -3.51398 -0.582908 0
M  V30 5139 O 468.047 -5.3445 -1.14129 0
M  V30 5140 H 465.141 -0.800593 -0.207315 0
M  V30 5141 H 467.687 -1.66297 0.338164 0
M  V30 5142 H 466.459 -3.88688 0.451392 0
M  V30 5143 H 466.082 -3.77117 -1.25972 0
M  V30 5144 N 467.08 -0.0183926 -1.57589 0
M  V30 5145 C 467.99 0.982943 -2.13015 0
M  V30 5146 C 469.006 1.36443 -1.07979 0
M  V30 5147 O 470.182 1.44802 -1.3998 0
M  V30 5148 C 467.247 2.25024 -2.63752 0
M  V30 5149 C 466.308 1.93018 -3.83461 0
M  V30 5150 C 465.541 3.13706 -4.31769 0
M  V30 5151 O 465.764 4.2601 -3.79305 0
M  V30 5152 O 464.698 2.96629 -5.23732 0
M  V30 5153 H 468.524 0.541709 -2.9883 0
M  V30 5154 H 466.109 0.201565 -1.48034 0
M  V30 5155 H 467.991 2.99441 -2.96502 0
M  V30 5156 H 466.666 2.68349 -1.81026 0
M  V30 5157 H 465.573 1.16019 -3.55655 0
M  V30 5158 H 466.906 1.54516 -4.67317 0
M  V30 5159 N 468.558 1.5553 0.254621 0
M  V30 5160 C 469.804 1.77262 0.985193 0
M  V30 5161 C 470.137 0.582286 1.85265 0
M  V30 5162 O 469.412 -0.419666 1.89919 0
M  V30 5163 C 469.695 3.0881 1.85225 0
M  V30 5164 C 469.548 4.38233 1.0135 0
M  V30 5165 C 470.867 3.3653 2.83612 0
M  V30 5166 H 467.986 0.644906 0.356742 0
M  V30 5167 H 470.628 1.88264 0.256236 0
M  V30 5168 H 468.778 2.99562 2.47376 0
M  V30 5169 H 470.45 4.59463 0.411269 0
M  V30 5170 H 468.693 4.32636 0.317574 0
M  V30 5171 H 469.364 5.26644 1.65379 0
M  V30 5172 H 471.84 3.45691 2.31596 0
M  V30 5173 H 470.716 4.29805 3.41407 0
M  V30 5174 H 470.977 2.57064 3.59681 0
M  V30 5175 N 470.036 -0.519951 1.48776 0
M  V30 5176 C 471.452 -0.849418 1.35119 0
M  V30 5177 C 471.652 -1.98077 0.36982 0
M  V30 5178 O 470.708 -2.51664 -0.205359 0
M  V30 5179 C 472.021 -1.20748 2.75391 0
M  V30 5180 C 473.569 -1.31679 2.83954 0
M  V30 5181 C 474.044 -1.70824 4.24951 0
M  V30 5182 N 475.535 -1.77908 4.27672 0
M  V30 5183 C 476.27 -2.09603 5.33717 0
M  V30 5184 N 475.766 -2.39652 6.5003 0
M  V30 5185 N 477.559 -2.10694 5.21119 0
M  V30 5186 H 469.71 0.226377 2.1119 0
M  V30 5187 H 471.973 0.0386519 0.947212 0
M  V30 5188 H 471.679 -0.449703 3.48813 0
M  V30 5189 H 471.553 -2.15534 3.09556 0
M  V30 5190 H 473.94 -2.06532 2.10781 0
M  V30 5191 H 474.021 -0.3499 2.53396 0
M  V30 5192 H 473.665 -0.965282 4.98643 0
M  V30 5193 H 473.595 -2.6858 4.52959 0
M  V30 5194 H 476.086 -1.56923 3.43779 0
M  V30 5195 H 476.399 -2.6297 7.26682 0
M  V30 5196 H 474.744 -2.37149 6.53288 0
M  V30 5197 H 477.935 -1.86682 4.29264 0
M  V30 5198 H 478.108 -2.35062 6.03863 0
M  V30 5199 N 471.514 -1.37532 -0.769588 0
M  V30 5200 C 472.461 -1.3347 -1.88293 0
M  V30 5201 C 473.431 -0.199891 -1.64893 0
M  V30 5202 O 474.616 -0.389594 -1.8678 0
M  V30 5203 C 471.756 -1.14968 -3.25387 0
M  V30 5204 C 470.869 -2.37698 -3.60727 0
M  V30 5205 C 470.004 -2.12051 -4.8704 0
M  V30 5206 C 469.043 -3.30636 -5.15117 0
M  V30 5207 N 468.18 -3.04527 -6.3262 0
M  V30 5208 H 473.02 -2.28658 -1.911 0
M  V30 5209 H 470.557 -1.13622 -0.934257 0
M  V30 5210 H 472.515 -1.02261 -4.04473 0
M  V30 5211 H 471.145 -0.234263 -3.21949 0
M  V30 5212 H 470.197 -2.61137 -2.76608 0
M  V30 5213 H 471.509 -3.26131 -3.77413 0
M  V30 5214 H 470.663 -1.96388 -5.74035 0
M  V30 5215 H 469.402 -1.20959 -4.72462 0
M  V30 5216 H 468.407 -3.46836 -4.26597 0
M  V30 5217 H 469.632 -4.22582 -5.31603 0
M  V30 5218 H 467.578 -2.16067 -6.19396 0
M  V30 5219 H 467.495 -3.86503 -6.49732 0
M  V30 5220 H 468.763 -2.92485 -7.22546 0
M  V30 5221 N 472.992 0.995999 -1.22138 0
M  V30 5222 C 473.902 2.11985 -1.00496 0
M  V30 5223 C 474.918 1.7394 0.0457701 0
M  V30 5224 O 476.094 2.00868 -0.146273 0
M  V30 5225 C 473.159 3.41779 -0.582086 0
M  V30 5226 C 472.22 3.93943 -1.70608 0
M  V30 5227 C 471.453 5.17542 -1.30328 0
M  V30 5228 O 471.676 5.70114 -0.180743 0
M  V30 5229 O 470.61 5.63382 -2.11861 0
M  V30 5230 H 474.436 2.33123 -1.94647 0
M  V30 5231 H 472.021 1.10358 -1.00705 0
M  V30 5232 H 473.903 4.1989 -0.356467 0
M  V30 5233 H 472.578 3.22007 0.330592 0
M  V30 5234 H 471.485 3.17019 -1.98619 0
M  V30 5235 H 472.818 4.18141 -2.59651 0
M  V30 5236 N 474.47 1.03057 1.19235 0
M  V30 5237 C 475.38 0.622922 2.26179 0
M  V30 5238 C 476.396 -0.346113 1.70523 0
M  V30 5239 O 477.572 -0.203572 2.00369 0
M  V30 5240 C 474.637 -0.0182063 3.46695 0
M  V30 5241 C 473.698 0.998546 4.17526 0
M  V30 5242 C 472.931 0.387917 5.32288 0
M  V30 5243 O 473.154 -0.808668 5.64639 0
M  V30 5244 O 472.088 1.1116 5.91546 0
M  V30 5245 H 475.914 1.51363 2.63292 0
M  V30 5246 H 473.499 0.800856 1.26122 0
M  V30 5247 H 475.381 -0.375606 4.19723 0
M  V30 5248 H 474.056 -0.882895 3.11427 0
M  V30 5249 H 472.963 1.40756 3.4661 0
M  V30 5250 H 474.296 1.83366 4.56769 0
M  V30 5251 N 475.948 -1.35272 0.808662 0
M  V30 5252 C 477.194 -1.99434 0.399717 0
M  V30 5253 C 477.549 -1.62992 -1.02232 0
M  V30 5254 O 476.842 -0.884091 -1.69983 0
M  V30 5255 C 477.036 -3.53556 0.522798 0
M  V30 5256 C 476.865 -4.04969 1.95525 0
M  V30 5257 C 475.635 -4.34228 2.58407 0
M  V30 5258 C 477.833 -4.23362 2.92009 0
M  V30 5259 N 475.815 -4.71585 3.93041 0
M  V30 5260 C 477.186 -4.63739 4.11517 0
M  V30 5261 C 479.241 -4.05576 2.88813 0
M  V30 5262 C 477.944 -4.88189 5.28265 0
M  V30 5263 C 479.97 -4.31184 4.04765 0
M  V30 5264 C 479.332 -4.71834 5.23022 0
M  V30 5265 H 475.431 -0.757534 0.19408 0
M  V30 5266 H 478.015 -1.63939 1.05034 0
M  V30 5267 H 476.186 -3.88277 -0.0978471 0
M  V30 5268 H 477.918 -4.04604 0.0882378 0
M  V30 5269 H 474.673 -4.24621 2.09747 0
M  V30 5270 H 475.097 -4.9452 4.62363 0
M  V30 5271 H 479.739 -3.73288 1.98535 0
M  V30 5272 H 477.457 -5.1935 6.19113 0
M  V30 5273 H 481.043 -4.18972 4.03675 0
M  V30 5274 H 479.923 -4.91263 6.11253 0
M  V30 5275 N 477.426 -0.562348 -1.47226 0
M  V30 5276 C 478.837 -0.130325 -1.86245 0
M  V30 5277 C 479.188 1.30128 -1.46838 0
M  V30 5278 O 478.313 1.97974 -0.873805 0
M  V30 5279 C 478.908 -0.229738 -3.3802 0
M  V30 5280 C 477.467 0.14728 -3.76112 0
M  V30 5281 C 476.614 -0.574971 -2.71274 0
M  V30 5282 H 479.565 -0.771773 -1.3867 0
M  V30 5283 H 479.586 0.550316 -3.76499 0
M  V30 5284 H 479.098 -1.27178 -3.66671 0
M  V30 5285 H 477.199 1.19023 -3.53078 0
M  V30 5286 H 477.312 -0.214858 -4.78618 0
M  V30 5287 H 475.676 -0.0174756 -2.54694 0
M  V30 5288 H 476.459 -1.61827 -3.02766 0
M  V30 5289 N 478.904 1.54736 -0.299062 0
M  V30 5290 C 479.834 2.26409 0.571085 0
M  V30 5291 C 480.815 1.2629 1.13951 0
M  V30 5292 O 482 1.55059 1.16921 0
M  V30 5293 C 479.13 3.00338 1.74396 0
M  V30 5294 C 478.084 4.07588 1.30599 0
M  V30 5295 C 477.41 4.69222 2.56387 0
M  V30 5296 C 478.71 5.20455 0.438645 0
M  V30 5297 H 480.404 2.99388 -0.0266991 0
M  V30 5298 H 477.95 1.43993 -0.0142812 0
M  V30 5299 H 479.903 3.49198 2.35878 0
M  V30 5300 H 478.627 2.24934 2.36796 0
M  V30 5301 H 477.286 3.59575 0.71424 0
M  V30 5302 H 476.934 3.9046 3.17097 0
M  V30 5303 H 476.634 5.41653 2.27784 0
M  V30 5304 H 478.158 5.20844 3.18675 0
M  V30 5305 H 479.572 5.65221 0.959085 0
M  V30 5306 H 477.969 5.99594 0.246466 0
M  V30 5307 H 479.039 4.8192 -0.536738 0
M  V30 5308 N 480.382 0.0267497 1.57577 0
M  V30 5309 C 481.628 -0.653371 1.91987 0
M  V30 5310 C 481.961 -1.71915 0.903263 0
M  V30 5311 O 481.236 -1.94358 -0.0743387 0
M  V30 5312 C 481.519 -1.272 3.36886 0
M  V30 5313 C 481.372 -0.215938 4.49281 0
M  V30 5314 C 482.691 -2.19069 3.81703 0
M  V30 5315 H 479.81 -0.236047 0.698177 0
M  V30 5316 H 482.452 0.0835236 1.89816 0
M  V30 5317 H 480.602 -1.90005 3.38866 0
M  V30 5318 H 482.274 0.41449 4.59434 0
M  V30 5319 H 480.517 0.458855 4.31366 0
M  V30 5320 H 481.188 -0.688347 5.47691 0
M  V30 5321 H 483.664 -1.66253 3.81444 0
M  V30 5322 H 482.54 -2.59307 4.83788 0
M  V30 5323 H 482.801 -3.08087 3.17072 0
M  V30 5324 N 481.861 -1.55662 -0.24637 0
M  V30 5325 C 483.138 -1.68272 -0.997198 0
M  V30 5326 C 483.518 -0.566785 -2.03349 0
M  V30 5327 O 482.866 0.429688 -2.24424 0
M  V30 5328 C 483.076 -3.08594 -1.63006 0
M  V30 5329 C 484.424 -3.6721 -2.13171 0
M  V30 5330 O 485.448 -3.11397 -1.72946 0
M  V30 5331 O 484.307 -4.65054 -2.87031 0
M  V30 5332 H 481.401 -0.684429 -0.464205 0
M  V30 5333 H 483.947 -1.67993 -0.240114 0
M  V30 5334 H 482.719 -3.81264 -0.880527 0
M  V30 5335 H 482.342 -3.12886 -2.45333 0
M  V30 5336 N 483.339 0.512053 -1.4905 0
M  V30 5337 C 484.616 1.27337 -1.48474 0
M  V30 5338 C 484.996 2.1009 -0.206301 0
M  V30 5339 O 484.344 2.136 0.811609 0
M  V30 5340 C 484.554 2.13954 -2.75726 0
M  V30 5341 C 485.902 2.73507 -3.24776 0
M  V30 5342 O 486.926 2.24229 -2.76767 0
M  V30 5343 O 485.785 3.63186 -4.08361 0
M  V30 5344 H 482.879 0.575652 -0.593762 0
M  V30 5345 H 485.425 0.527232 -1.61302 0
M  V30 5346 H 484.197 1.52709 -3.60272 0
M  V30 5347 H 483.82 2.95782 -2.65705 0
M  V30 5348 N 484.817 1.37938 0.762283 0
M  V30 5349 C 486.057 1.35076 1.53407 0
M  V30 5350 C 486.421 -0.061546 1.91901 0
M  V30 5351 O 487.622 -0.214973 2.67939 0
M  V30 5352 C 485.893 2.27206 2.75884 0
M  V30 5353 S 487.452 2.42283 3.65848 0
M  V30 5354 H 484.27 0.479387 0.52508 0
M  V30 5355 H 486.872 1.7378 0.895586 0
M  V30 5356 H 485.576 3.28724 2.457 0
M  V30 5357 H 485.107 1.8962 3.44685 0
M  V30 5358 H 487.122 1.64044 4.68299 0
M  V30 5359 N 486.295 -0.989507 1.22664 0
M  V30 5360 C 487.523 -1.76496 1.07967 0
M  V30 5361 C 487.938 -1.85148 -0.369543 0
M  V30 5362 O 487.295 -1.32408 -1.25596 0
M  V30 5363 C 487.346 -3.19642 1.68853 0
M  V30 5364 O 487.067 -3.11453 3.08105 0
M  V30 5365 C 488.568 -4.13621 1.59475 0
M  V30 5366 H 485.788 -0.55418 0.378319 0
M  V30 5367 H 488.332 -1.24378 1.62328 0
M  V30 5368 H 486.487 -3.68816 1.18547 0
M  V30 5369 H 486.901 -4.01499 3.37489 0
M  V30 5370 H 488.375 -5.11801 2.06795 0
M  V30 5371 H 488.852 -4.35718 0.55191 0
M  V30 5372 H 489.458 -3.70346 2.09103 0
M  V30 5373 N 487.773 -1.03688 -1.18687 0
M  V30 5374 C 489.021 -0.736572 -1.88199 0
M  V30 5375 C 489.342 0.737665 -1.80509 0
M  V30 5376 O 488.612 1.53204 -1.22088 0
M  V30 5377 H 487.192 -0.269466 -0.696704 0
M  V30 5378 H 489.854 -1.31282 -1.44052 0
M  V30 5379 H 488.95 -1.03802 -2.94332 0
M  V30 5380 N 489.251 1.34841 -0.815825 0
M  V30 5381 C 490.497 1.98793 -0.401129 0
M  V30 5382 C 490.83 1.64548 1.03139 0
M  V30 5383 O 490.105 0.913487 1.71714 0
M  V30 5384 C 490.388 3.55143 -0.595409 0
M  V30 5385 C 490.241 3.99155 -2.07352 0
M  V30 5386 C 491.56 4.40092 -0.0268823 0
M  V30 5387 H 488.679 0.722146 -0.14722 0
M  V30 5388 H 491.321 1.59847 -1.02707 0
M  V30 5389 H 489.471 3.8845 -0.0625779 0
M  V30 5390 H 491.143 3.76216 -2.66945 0
M  V30 5391 H 489.386 3.49726 -2.56659 0
M  V30 5392 H 490.057 5.07971 -2.1603 0
M  V30 5393 H 492.533 4.13298 -0.482042 0
M  V30 5394 H 491.409 5.48562 -0.19267 0
M  V30 5395 H 491.67 4.29016 1.06759 0
M  V30 5396 N 490.729 0.570148 1.46925 0
M  V30 5397 C 491.957 0.0561966 2.06824 0
M  V30 5398 C 492.372 -1.24326 1.42086 0
M  V30 5399 O 491.729 -1.74882 0.521794 0
M  V30 5400 C 491.78 -0.129517 3.61268 0
M  V30 5401 O 491.501 1.1185 4.23581 0
M  V30 5402 C 493.002 -0.679266 4.38065 0
M  V30 5403 H 490.222 0.0517261 0.669003 0
M  V30 5404 H 492.766 0.787243 1.8874 0
M  V30 5405 H 490.921 -0.810739 3.78822 0
M  V30 5406 H 491.335 0.924375 5.1629 0
M  V30 5407 H 492.809 -0.758445 5.46765 0
M  V30 5408 H 493.286 -1.69346 4.05239 0
M  V30 5409 H 493.892 -0.0333237 4.25287 0
M  V30 5410 N 492.207 -1.54576 0.307264 0
M  V30 5411 C 493.455 -1.99867 -0.299574 0
M  V30 5412 C 493.776 -1.19714 -1.53927 0
M  V30 5413 O 493.046 -0.29472 -1.9367 0
M  V30 5414 H 491.626 -0.738299 -0.113683 0
M  V30 5415 H 494.288 -1.9032 0.420042 0
M  V30 5416 H 493.384 -3.06901 -0.567283 0
M  V30 5417 N 493.685 -0.035106 -1.57561 0
M  V30 5418 C 494.915 0.651312 -1.96065 0
M  V30 5419 C 495.323 1.6585 -0.910514 0
M  V30 5420 O 494.666 1.83336 0.11552 0
M  V30 5421 C 494.728 1.40897 -3.30739 0
M  V30 5422 C 494.392 0.559436 -4.53563 0
M  V30 5423 C 495.389 -0.16778 -5.19629 0
M  V30 5424 C 493.074 0.495079 -4.99854 0
M  V30 5425 C 495.068 -0.947963 -6.30311 0
M  V30 5426 C 492.755 -0.288804 -6.10417 0
M  V30 5427 C 493.753 -1.00903 -6.75505 0
M  V30 5428 O 493.441 -1.78005 -7.83945 0
M  V30 5429 H 493.173 0.184036 -0.650467 0
M  V30 5430 H 495.727 -0.0929677 -2.05189 0
M  V30 5431 H 493.957 2.19852 -3.18123 0
M  V30 5432 H 495.646 1.98407 -3.54104 0
M  V30 5433 H 496.412 -0.12743 -4.84833 0
M  V30 5434 H 492.291 1.04524 -4.48994 0
M  V30 5435 H 495.835 -1.51064 -6.81047 0
M  V30 5436 H 491.732 -0.33085 -6.44652 0
M  V30 5437 H 492.5 -1.70046 -8.00641 0
M  V30 5438 N 495.163 1.55791 0.238111 0
M  V30 5439 C 496.113 1.87444 1.29803 0
M  V30 5440 C 497.097 0.736043 1.43078 0
M  V30 5441 O 498.289 0.998146 1.46171 0
M  V30 5442 C 495.418 2.18028 2.65177 0
M  V30 5443 C 494.504 3.38217 2.55871 0
M  V30 5444 N 494.895 4.57264 2.16202 0
M  V30 5445 C 493.193 3.41502 2.86866 0
M  V30 5446 C 493.894 5.3941 2.17744 0
M  V30 5447 N 492.87 4.78695 2.57589 0
M  V30 5448 H 496.672 2.7701 0.981965 0
M  V30 5449 H 494.186 1.56135 0.44672 0
M  V30 5450 H 496.183 2.38873 3.4168 0
M  V30 5451 H 494.843 1.29765 2.97643 0
M  V30 5452 H 495.854 4.82727 1.87602 0
M  V30 5453 H 492.531 2.63536 3.23813 0
M  V30 5454 H 493.921 6.44671 1.89339 0
M  V30 5455 N 496.642 -0.504142 1.49319 0
M  V30 5456 C 497.552 -1.63248 1.68486 0
M  V30 5457 C 498.568 -1.64488 0.567432 0
M  V30 5458 O 499.744 -1.82966 0.841749 0
M  V30 5459 C 496.809 -2.99627 1.74426 0
M  V30 5460 C 495.87 -3.09039 2.97982 0
M  V30 5461 C 495.103 -4.38913 3.0363 0
M  V30 5462 O 495.326 -5.27528 2.16958 0
M  V30 5463 O 494.26 -4.53231 3.96062 0
M  V30 5464 H 498.086 -1.50008 2.64067 0
M  V30 5465 H 495.671 -0.680086 1.33023 0
M  V30 5466 H 497.553 -3.80689 1.80705 0
M  V30 5467 H 496.228 -3.13136 0.820233 0
M  V30 5468 H 495.135 -2.27177 2.97223 0
M  V30 5469 H 496.468 -3.00456 3.89855 0
M  V30 5470 N 498.12 -1.38341 -0.754957 0
M  V30 5471 C 499.052 -1.31347 -1.87831 0
M  V30 5472 C 500.065 -0.225955 -1.61224 0
M  V30 5473 O 501.254 -0.48341 -1.7183 0
M  V30 5474 C 498.354 -1.01201 -3.23437 0
M  V30 5475 C 497.527 -2.20834 -3.77559 0
M  V30 5476 C 496.586 -1.87454 -4.91678 0
M  V30 5477 O 495.612 -2.59934 -5.06382 0
M  V30 5478 N 496.814 -0.828682 -5.74555 0
M  V30 5479 H 499.579 -2.28147 -1.94342 0
M  V30 5480 H 497.14 -1.32184 -0.934828 0
M  V30 5481 H 499.132 -0.769249 -3.97322 0
M  V30 5482 H 497.702 -0.132011 -3.12321 0
M  V30 5483 H 496.922 -2.61184 -2.95256 0
M  V30 5484 H 498.21 -3.00678 -4.10451 0
M  V30 5485 H 497.608 -0.227591 -5.65242 0
M  V30 5486 H 496.165 -0.645802 -6.48593 0
M  V30 5487 N 499.598 0.982988 -1.23187 0
M  V30 5488 C 500.528 2.09301 -1.03515 0
M  V30 5489 C 501.509 1.70035 0.0471136 0
M  V30 5490 O 502.694 1.93847 -0.117029 0
M  V30 5491 C 499.824 3.4167 -0.622791 0
M  V30 5492 C 498.778 3.94828 -1.65211 0
M  V30 5493 C 498.104 5.23362 -1.09527 0
M  V30 5494 C 499.404 4.2439 -3.04451 0
M  V30 5495 H 501.098 2.26016 -1.96359 0
M  V30 5496 H 498.644 1.08611 -0.945501 0
M  V30 5497 H 500.597 4.18746 -0.472233 0
M  V30 5498 H 499.321 3.24811 0.341329 0
M  V30 5499 H 497.98 3.19895 -1.79061 0
M  V30 5500 H 497.628 5.02852 -0.122211 0
M  V30 5501 H 497.328 5.59895 -1.783 0
M  V30 5502 H 498.852 6.03062 -0.956511 0
M  V30 5503 H 500.266 4.92225 -2.93917 0
M  V30 5504 H 498.663 4.72118 -3.70438 0
M  V30 5505 H 499.733 3.31765 -3.53638 0
M  V30 5506 N 501.076 1.04316 1.18135 0
M  V30 5507 C 502.304 0.768117 1.92113 0
M  V30 5508 C 502.719 -0.675057 1.76319 0
M  V30 5509 O 502.076 -1.46038 1.09449 0
M  V30 5510 C 502.127 1.12808 3.43448 0
M  V30 5511 O 501.848 2.5146 3.58747 0
M  V30 5512 C 503.349 0.8779 4.3452 0
M  V30 5513 H 500.569 0.279937 0.609817 0
M  V30 5514 H 503.113 1.39149 1.49859 0
M  V30 5515 H 501.268 0.549623 3.83481 0
M  V30 5516 H 501.682 2.65313 4.52448 0
M  V30 5517 H 503.156 1.17959 5.39249 0
M  V30 5518 H 503.633 -0.187239 4.38801 0
M  V30 5519 H 504.239 1.43977 4.00188 0
M  V30 5520 N 502.554 -1.34406 0.822964 0
M  V30 5521 C 503.803 -1.97542 0.407458 0
M  V30 5522 C 504.116 -1.65973 -1.035 0
M  V30 5523 O 505.322 -2.22598 -1.55442 0
M  V30 5524 C 503.778 -3.53463 0.677623 0
M  V30 5525 C 503.386 -3.93925 2.1337 0
M  V30 5526 C 505.13 -4.23229 0.328284 0
M  V30 5527 C 503.037 -5.42759 2.34876 0
M  V30 5528 H 501.967 -0.739207 0.148623 0
M  V30 5529 H 504.618 -1.53248 1.00932 0
M  V30 5530 H 503 -3.96 0.00558965 0
M  V30 5531 H 504.174 -3.62494 2.8449 0
M  V30 5532 H 502.489 -3.37097 2.44448 0
M  V30 5533 H 505.086 -5.32659 0.466794 0
M  V30 5534 H 505.429 -4.09899 -0.727224 0
M  V30 5535 H 505.962 -3.86169 0.954896 0
M  V30 5536 H 502.701 -5.61075 3.38932 0
M  V30 5537 H 502.221 -5.75704 1.68299 0
M  V30 5538 H 503.9 -6.0944 2.17236 0
M  V30 5539 N 504.032 -0.577932 -1.46621 0
M  V30 5540 C 504.982 0.178869 -2.27297 0
M  V30 5541 C 505.966 0.866279 -1.35589 0
M  V30 5542 O 507.158 0.761163 -1.59798 0
M  V30 5543 C 504.287 1.19499 -3.2183 0
M  V30 5544 C 503.373 0.50994 -4.21023 0
M  V30 5545 N 503.764 -0.43177 -5.03954 0
M  V30 5546 C 502.062 0.761287 -4.39455 0
M  V30 5547 C 502.763 -0.831693 -5.75724 0
M  V30 5548 N 501.739 -0.181897 -5.43296 0
M  V30 5549 H 505.541 -0.544859 -2.88805 0
M  V30 5550 H 503.055 -0.399373 -1.57413 0
M  V30 5551 H 505.052 1.75131 -3.78332 0
M  V30 5552 H 503.712 1.91959 -2.61881 0
M  V30 5553 H 504.723 -0.807045 -5.11573 0
M  V30 5554 H 501.4 1.47282 -3.90659 0
M  V30 5555 H 502.79 -1.6067 -6.52407 0
M  V30 5556 N 505.51 1.54411 -0.315457 0
M  V30 5557 C 506.758 2.00023 0.288971 0
M  V30 5558 C 507.079 1.20529 1.5329 0
M  V30 5559 O 506.349 0.304986 1.93511 0
M  V30 5560 H 504.929 0.738891 0.109766 0
M  V30 5561 H 507.591 1.90094 -0.430129 0
M  V30 5562 H 506.687 3.07198 0.550999 0
M  V30 5563 N 506.988 0.0434614 1.5754 0
M  V30 5564 C 507.935 -0.93356 2.11077 0
M  V30 5565 C 508.905 -1.31383 1.01626 0
M  V30 5566 O 510.09 -1.40465 1.29129 0
M  V30 5567 C 507.23 -2.20578 2.65404 0
M  V30 5568 C 506.343 -1.88068 3.88914 0
M  V30 5569 C 505.478 -3.09691 4.31584 0
M  V30 5570 C 504.517 -2.73067 5.47815 0
M  V30 5571 N 503.654 -3.87359 5.85574 0
M  V30 5572 H 508.494 -0.470118 2.94268 0
M  V30 5573 H 506.031 -0.220434 1.45439 0
M  V30 5574 H 507.989 -2.95011 2.94999 0
M  V30 5575 H 506.619 -2.64513 1.85021 0
M  V30 5576 H 505.671 -1.03816 3.6596 0
M  V30 5577 H 506.983 -1.57104 4.73413 0
M  V30 5578 H 506.137 -3.92431 4.62691 0
M  V30 5579 H 504.876 -3.43827 3.45882 0
M  V30 5580 H 503.881 -1.88742 5.16388 0
M  V30 5581 H 505.106 -2.40131 6.35227 0
M  V30 5582 H 503.052 -4.21311 5.02825 0
M  V30 5583 H 502.969 -3.60068 6.64746 0
M  V30 5584 H 504.237 -4.70761 6.21292 0
M  V30 5585 N 508.466 -1.55915 -0.229846 0
M  V30 5586 C 509.743 -1.6932 -0.979295 0
M  V30 5587 C 510.123 -0.588321 -2.02736 0
M  V30 5588 O 509.471 0.40586 -2.24867 0
M  V30 5589 C 509.681 -3.10305 -1.59724 0
M  V30 5590 C 511.029 -3.6945 -2.09264 0
M  V30 5591 O 512.053 -3.13214 -1.69633 0
M  V30 5592 O 510.912 -4.68072 -2.82082 0
M  V30 5593 H 508.006 -0.689314 -0.456919 0
M  V30 5594 H 510.552 -1.68238 -0.222283 0
M  V30 5595 H 509.324 -3.82177 -0.840039 0
M  V30 5596 H 508.947 -3.1547 -2.42001 0
M  V30 5597 N 509.944 0.496216 -1.49584 0
M  V30 5598 C 510.894 1.59422 -1.62999 0
M  V30 5599 C 511.878 1.53402 -0.485457 0
M  V30 5600 O 513.07 1.60851 -0.738649 0
M  V30 5601 C 510.199 2.98009 -1.70427 0
M  V30 5602 C 509.285 3.09008 -2.90473 0
M  V30 5603 N 509.676 2.89884 -4.14489 0
M  V30 5604 C 507.974 3.40115 -2.8851 0
M  V30 5605 C 508.675 3.0519 -4.95211 0
M  V30 5606 N 507.651 3.3428 -4.2867 0
M  V30 5607 H 511.453 1.43297 -2.56599 0
M  V30 5608 H 508.967 0.702443 -1.46422 0
M  V30 5609 H 510.964 3.76926 -1.78136 0
M  V30 5610 H 509.624 3.152 -0.77967 0
M  V30 5611 H 510.635 2.65963 -4.44392 0
M  V30 5612 H 507.312 3.63452 -2.05448 0
M  V30 5613 H 508.702 2.94856 -6.03746 0
M  V30 5614 N 511.423 1.38739 0.74761 0
M  V30 5615 C 512.333 1.38696 1.89211 0
M  V30 5616 C 513.349 0.283303 1.71678 0
M  V30 5617 O 514.525 0.522713 1.94498 0
M  V30 5618 C 511.59 1.21662 3.24653 0
M  V30 5619 C 510.651 2.41886 3.54669 0
M  V30 5620 C 509.884 2.25655 4.83648 0
M  V30 5621 O 510.107 1.25339 5.56459 0
M  V30 5622 O 509.041 3.14372 5.13277 0
M  V30 5623 H 512.867 2.35143 1.92202 0
M  V30 5624 H 510.452 1.19721 0.893708 0
M  V30 5625 H 512.334 1.14246 4.05618 0
M  V30 5626 H 511.009 0.283024 3.2246 0
M  V30 5627 H 509.916 2.54877 2.73841 0
M  V30 5628 H 511.249 3.33895 3.61628 0
M  V30 5629 N 512.901 -0.976442 1.23707 0
M  V30 5630 C 514.126 -1.75875 1.09922 0
M  V30 5631 C 514.551 -1.84911 -0.34489 0
M  V30 5632 O 513.909 -1.31363 -1.24954 0
M  V30 5633 C 513.957 -3.16179 1.73388 0
M  V30 5634 O 513.061 -4.00124 0.99871 0
M  V30 5635 H 512.402 -0.540954 0.385052 0
M  V30 5636 H 514.932 -1.22546 1.6384 0
M  V30 5637 H 514.942 -3.66741 1.78788 0
M  V30 5638 H 513.617 -3.08917 2.78466 0
M  V30 5639 H 512.194 -3.58624 1.02193 0
M  V30 5640 N 514.379 -1.04941 -1.1758 0
M  V30 5641 C 515.625 -0.759112 -1.88057 0
M  V30 5642 C 515.958 0.711918 -1.8068 0
M  V30 5643 O 515.233 1.52035 -1.21308 0
M  V30 5644 C 515.516 -1.237 -3.38187 0
M  V30 5645 C 515.369 -2.77078 -3.54327 0
M  V30 5646 C 516.688 -0.834014 -4.32125 0
M  V30 5647 H 513.807 -0.277237 -0.682868 0
M  V30 5648 H 516.449 -1.30296 -1.38286 0
M  V30 5649 H 514.599 -0.774337 -3.80705 0
M  V30 5650 H 516.271 -3.31449 -3.20842 0
M  V30 5651 H 514.514 -3.16477 -2.96689 0
M  V30 5652 H 515.185 -3.05577 -4.59703 0
M  V30 5653 H 517.661 -1.23228 -3.97434 0
M  V30 5654 H 516.537 -1.19603 -5.35711 0
M  V30 5655 H 516.798 0.262195 -4.41322 0
M  V30 5656 N 515.857 1.33968 -0.830081 0
M  V30 5657 C 517.104 1.98063 -0.421566 0
M  V30 5658 C 517.432 1.65787 1.0171 0
M  V30 5659 O 516.687 0.925348 1.72441 0
M  V30 5660 C 516.986 3.52679 -0.57898 0
M  V30 5661 C 516.652 4.04884 -1.98443 0
M  V30 5662 C 515.314 4.18852 -2.36888 0
M  V30 5663 C 517.666 4.32879 -2.90285 0
M  V30 5664 C 514.994 4.58145 -3.66497 0
M  V30 5665 C 517.346 4.7362 -4.19364 0
M  V30 5666 C 516.01 4.85794 -4.57778 0
M  V30 5667 H 515.28 0.724765 -0.154262 0
M  V30 5668 H 517.927 1.59792 -1.05541 0
M  V30 5669 H 516.232 3.91556 0.138219 0
M  V30 5670 H 517.929 4.00261 -0.243317 0
M  V30 5671 H 514.519 3.9448 -1.67581 0
M  V30 5672 H 518.703 4.21619 -2.61823 0
M  V30 5673 H 513.959 4.65762 -3.96075 0
M  V30 5674 H 518.133 4.9424 -4.90612 0
M  V30 5675 H 515.76 5.15998 -5.58256 0
M  V30 5676 N 517.335 0.585699 1.46312 0
M  V30 5677 C 518.563 0.0781299 2.06752 0
M  V30 5678 C 518.978 -1.22812 1.43396 0
M  V30 5679 O 518.335 -1.74318 0.540314 0
M  V30 5680 C 518.386 -0.0911927 3.61385 0
M  V30 5681 O 518.107 1.16336 4.22371 0
M  V30 5682 C 519.608 -0.632765 4.38761 0
M  V30 5683 H 516.828 0.0588188 0.668417 0
M  V30 5684 H 519.372 0.807218 1.87894 0
M  V30 5685 H 517.527 -0.770514 3.7966 0
M  V30 5686 H 517.941 0.979082 5.15281 0
M  V30 5687 H 519.415 -0.70041 5.47538 0
M  V30 5688 H 519.892 -1.65039 4.07012 0
M  V30 5689 H 520.498 0.0117856 4.25298 0
M  V30 5690 N 518.813 -1.54241 0.323641 0
M  V30 5691 C 520.059 -2.00867 -0.279323 0
M  V30 5692 C 520.392 -1.21146 -1.5178 0
M  V30 5693 O 519.667 -0.29378 -1.92269 0
M  V30 5694 C 519.95 -3.54837 -0.613387 0
M  V30 5695 C 519.803 -4.45284 0.635803 0
M  V30 5696 C 521.122 -4.16186 -1.43099 0
M  V30 5697 H 518.241 -0.730177 -0.100049 0
M  V30 5698 H 520.883 -1.84829 0.440235 0
M  V30 5699 H 519.033 -3.68634 -1.22641 0
M  V30 5700 H 520.705 -4.43357 1.27406 0
M  V30 5701 H 518.948 -4.14956 1.26466 0
M  V30 5702 H 519.619 -5.5084 0.357597 0
M  V30 5703 H 522.095 -4.05964 -0.912814 0
M  V30 5704 H 520.971 -5.24031 -1.6335 0
M  V30 5705 H 521.232 -3.69516 -2.42715 0
M  V30 5706 N 520.291 -0.0518155 -1.57515 0
M  V30 5707 C 521.516 0.634896 -1.97443 0
M  V30 5708 C 521.941 1.63546 -0.929207 0
M  V30 5709 O 521.299 1.80981 0.107484 0
M  V30 5710 C 521.347 1.29765 -3.36442 0
M  V30 5711 O 520.451 2.41333 -3.34413 0
M  V30 5712 H 519.792 0.164994 -0.643174 0
M  V30 5713 H 522.322 -0.120407 -2.04245 0
M  V30 5714 H 522.332 1.64918 -3.73184 0
M  V30 5715 H 521.007 0.564361 -4.12053 0
M  V30 5716 H 519.584 2.08122 -3.09418 0
M  V30 5717 N 521.769 1.56035 0.221574 0
M  V30 5718 C 522.699 1.95434 1.2778 0
M  V30 5719 C 523.68 0.822564 1.48889 0
M  V30 5720 O 524.865 1.08486 1.61072 0
M  V30 5721 C 521.995 2.27102 2.62759 0
M  V30 5722 C 520.949 3.4277 2.56306 0
M  V30 5723 C 520.275 3.60043 3.95314 0
M  V30 5724 C 521.575 4.77742 2.11093 0
M  V30 5725 H 523.269 2.83912 0.950504 0
M  V30 5726 H 520.815 1.36596 0.455791 0
M  V30 5727 H 522.768 2.53256 3.36807 0
M  V30 5728 H 521.492 1.35478 2.97176 0
M  V30 5729 H 520.151 3.16664 1.84715 0
M  V30 5730 H 519.799 2.65794 4.27039 0
M  V30 5731 H 519.499 4.37841 3.91879 0
M  V30 5732 H 521.023 3.88545 4.71025 0
M  V30 5733 H 522.437 5.03102 2.74885 0
M  V30 5734 H 520.834 5.58823 2.18716 0
M  V30 5735 H 521.904 4.731 1.06321 0
M  V30 5736 N 523.247 -0.488276 1.49845 0
M  V30 5737 C 524.493 -1.24065 1.61182 0
M  V30 5738 C 524.848 -1.9004 0.300435 0
M  V30 5739 O 524.141 -1.78341 -0.700365 0
M  V30 5740 C 524.335 -2.32152 2.71735 0
M  V30 5741 C 524.164 -1.76778 4.13497 0
M  V30 5742 C 522.934 -1.57513 4.80123 0
M  V30 5743 C 525.132 -1.27242 4.98311 0
M  V30 5744 N 523.114 -0.972015 6.06156 0
M  V30 5745 C 524.485 -0.791457 6.14928 0
M  V30 5746 C 526.54 -1.15934 4.84214 0
M  V30 5747 C 525.243 -0.208593 7.18997 0
M  V30 5748 C 527.269 -0.590436 5.88445 0
M  V30 5749 C 526.631 -0.119767 7.04298 0
M  V30 5750 H 522.73 -0.443487 0.644083 0
M  V30 5751 H 525.314 -0.545551 1.86901 0
M  V30 5752 H 523.485 -2.99108 2.47768 0
M  V30 5753 H 525.217 -2.99187 2.72523 0
M  V30 5754 H 521.972 -1.82247 4.37131 0
M  V30 5755 H 522.396 -0.689367 6.73481 0
M  V30 5756 H 527.038 -1.5092 3.94947 0
M  V30 5757 H 524.756 0.153501 8.07954 0
M  V30 5758 H 528.342 -0.505548 5.79599 0
M  V30 5759 H 527.222 0.313568 7.83573 0
M  V30 5760 N 524.725 -1.39134 -0.740242 0
M  V30 5761 C 526.002 -1.26584 -1.49117 0
M  V30 5762 C 526.382 0.126902 -2.10718 0
M  V30 5763 O 525.73 1.13765 -1.98166 0
M  V30 5764 C 525.94 -2.38619 -2.54681 0
M  V30 5765 C 527.288 -2.77685 -3.21211 0
M  V30 5766 O 528.312 -2.38029 -2.64991 0
M  V30 5767 O 527.171 -3.46115 -4.22926 0
M  V30 5768 H 524.265 -0.495769 -0.661923 0
M  V30 5769 H 526.811 -1.50995 -0.774514 0
M  V30 5770 H 525.583 -3.3175 -2.07504 0
M  V30 5771 H 525.206 -2.15845 -3.33911 0
M  V30 5772 N 526.204 0.969867 -1.24223 0
M  V30 5773 C 527.444 1.72754 -1.0925 0
M  V30 5774 C 527.808 1.88541 0.362787 0
M  V30 5775 O 529.009 2.61217 0.633969 0
M  V30 5776 C 527.28 3.08204 -1.80957 0
M  V30 5777 S 528.839 3.99418 -1.81688 0
M  V30 5778 H 525.657 0.593981 -0.390778 0
M  V30 5779 H 528.259 1.15792 -1.5752 0
M  V30 5780 H 526.963 2.94372 -2.85961 0
M  V30 5781 H 526.494 3.70232 -1.33012 0
M  V30 5782 H 528.509 4.8828 -0.883001 0
M  V30 5783 N 527.682 1.05563 1.17022 0
M  V30 5784 C 528.959 0.68165 1.83338 0
M  V30 5785 C 529.339 -0.837665 1.93769 0
M  V30 5786 O 528.687 -1.74507 1.47511 0
M  V30 5787 C 528.897 1.375 3.20772 0
M  V30 5788 C 530.245 1.51545 3.96635 0
M  V30 5789 O 531.269 1.33431 3.30264 0
M  V30 5790 O 530.128 1.812 5.15586 0
M  V30 5791 H 527.222 0.240412 0.791285 0
M  V30 5792 H 529.768 1.15545 1.24288 0
M  V30 5793 H 528.54 2.41135 3.08171 0
M  V30 5794 H 528.163 0.890798 3.87493 0
M  V30 5795 N 529.16 -1.33526 0.837174 0
M  V30 5796 C 530.576 -1.50727 0.524743 0
M  V30 5797 C 530.776 -1.77792 -0.948279 0
M  V30 5798 O 529.832 -1.83719 -1.73216 0
M  V30 5799 C 531.145 -2.66299 1.39661 0
M  V30 5800 C 532.693 -2.80183 1.39521 0
M  V30 5801 C 533.168 -3.98815 2.25189 0
M  V30 5802 N 534.659 -4.06047 2.2289 0
M  V30 5803 C 535.394 -4.97032 2.85915 0
M  V30 5804 N 534.89 -5.93143 3.57985 0
M  V30 5805 N 536.683 -4.90015 2.75394 0
M  V30 5806 H 528.834 -1.1422 1.79074 0
M  V30 5807 H 531.097 -0.561399 0.763894 0
M  V30 5808 H 530.803 -2.52974 2.4433 0
M  V30 5809 H 530.677 -3.61663 1.07145 0
M  V30 5810 H 533.064 -2.92942 0.356253 0
M  V30 5811 H 533.145 -1.85586 1.76044 0
M  V30 5812 H 532.789 -3.86817 3.29143 0
M  V30 5813 H 532.719 -4.92654 1.86009 0
M  V30 5814 H 535.21 -3.37262 1.70478 0
M  V30 5815 H 535.523 -6.59227 4.03286 0
M  V30 5816 H 533.868 -5.93223 3.62093 0
M  V30 5817 H 537.059 -4.13894 2.18654 0
M  V30 5818 H 537.232 -5.60724 3.24796 0
M  V30 5819 N 530.638 -0.59345 -1.46 0
M  V30 5820 C 531.585 0.133618 -2.30413 0
M  V30 5821 C 532.555 0.873736 -1.41262 0
M  V30 5822 O 533.74 0.862279 -1.70204 0
M  V30 5823 C 530.88 1.13434 -3.25924 0
M  V30 5824 C 529.993 0.39656 -4.30176 0
M  V30 5825 C 529.128 1.38575 -5.12806 0
M  V30 5826 C 528.167 0.634984 -6.08797 0
M  V30 5827 N 527.304 1.57276 -6.84258 0
M  V30 5828 H 532.144 -0.592252 -2.92055 0
M  V30 5829 H 529.681 -0.303874 -1.43927 0
M  V30 5830 H 531.639 1.72752 -3.79753 0
M  V30 5831 H 530.269 1.82779 -2.66067 0
M  V30 5832 H 529.321 -0.311861 -3.79119 0
M  V30 5833 H 530.633 -0.189869 -4.98438 0
M  V30 5834 H 529.787 2.05141 -5.70966 0
M  V30 5835 H 528.526 2.00611 -4.44529 0
M  V30 5836 H 527.531 -0.0443925 -5.49782 0
M  V30 5837 H 528.756 0.0198678 -6.79097 0
M  V30 5838 H 526.702 2.18103 -6.18682 0
M  V30 5839 H 526.619 1.03941 -7.48821 0
M  V30 5840 H 527.887 2.22844 -7.46968 0
M  V30 5841 N 532.116 1.54067 -0.331816 0
M  V30 5842 C 533.363 2.00715 0.268269 0
M  V30 5843 C 533.691 1.21986 1.51491 0
M  V30 5844 O 532.946 0.292309 1.93505 0
M  V30 5845 C 533.245 3.51634 0.639392 0
M  V30 5846 C 532.911 4.48018 -0.509019 0
M  V30 5847 C 531.573 4.74089 -0.824209 0
M  V30 5848 C 533.925 5.05237 -1.28003 0
M  V30 5849 C 531.253 5.54637 -1.91298 0
M  V30 5850 C 533.605 5.86972 -2.35895 0
M  V30 5851 C 532.269 6.11342 -2.67987 0
M  V30 5852 H 531.539 0.734469 0.0981667 0
M  V30 5853 H 534.186 1.8596 -0.457304 0
M  V30 5854 H 532.491 3.6416 1.44551 0
M  V30 5855 H 534.188 3.85175 1.11539 0
M  V30 5856 H 530.778 4.27851 -0.253287 0
M  V30 5857 H 534.962 4.8507 -1.04978 0
M  V30 5858 H 530.218 5.71747 -2.16599 0
M  V30 5859 H 534.392 6.30327 -2.96076 0
M  V30 5860 H 532.019 6.73544 -3.5248 0
M  V30 5861 N 533.594 0.0601682 1.57485 0
M  V30 5862 C 535.01 -0.296422 1.56823 0
M  V30 5863 C 535.21 -1.70831 1.0686 0
M  V30 5864 O 534.266 -2.4174 0.729245 0
M  V30 5865 C 535.579 -0.116681 3.00474 0
M  V30 5866 C 537.127 -0.187103 3.1244 0
M  V30 5867 C 537.602 -0.035783 4.57986 0
M  V30 5868 N 539.093 -0.0917676 4.63109 0
M  V30 5869 C 539.828 0.00107251 5.734 0
M  V30 5870 N 539.324 0.146773 6.92645 0
M  V30 5871 N 541.117 -0.0551577 5.62073 0
M  V30 5872 H 533.268 0.983055 1.88281 0
M  V30 5873 H 535.531 0.382386 0.867459 0
M  V30 5874 H 535.237 0.85712 3.41096 0
M  V30 5875 H 535.111 -0.873929 3.66936 0
M  V30 5876 H 537.498 -1.15138 2.71712 0
M  V30 5877 H 537.579 0.601052 2.48638 0
M  V30 5878 H 537.223 0.925212 4.99402 0
M  V30 5879 H 537.153 -0.843196 5.19806 0
M  V30 5880 H 539.644 -0.203261 3.77353 0
M  V30 5881 H 539.957 0.210076 7.72514 0
M  V30 5882 H 538.302 0.181979 6.94762 0
M  V30 5883 H 541.493 -0.167605 4.678 0
M  V30 5884 H 541.666 0.020652 6.47997 0
M  V30 5885 N 535.072 -1.5615 -0.213296 0
M  V30 5886 C 536.318 -1.79812 -0.937849 0
M  V30 5887 C 536.651 -0.631201 -1.83656 0
M  V30 5888 O 535.926 0.369165 -1.90964 0
M  V30 5889 C 536.209 -3.13613 -1.76972 0
M  V30 5890 C 536.062 -4.40766 -0.89695 0
M  V30 5891 C 537.381 -3.43931 -2.7459 0
M  V30 5892 H 534.5 -0.654138 -0.339518 0
M  V30 5893 H 537.142 -1.88877 -0.20623 0
M  V30 5894 H 535.292 -3.06015 -2.39347 0
M  V30 5895 H 536.964 -4.60392 -0.289306 0
M  V30 5896 H 535.207 -4.33326 -0.202756 0
M  V30 5897 H 535.878 -5.30843 -1.51358 0
M  V30 5898 H 538.354 -3.5171 -2.22349 0
M  V30 5899 H 537.23 -4.38706 -3.29891 0
M  V30 5900 H 537.491 -2.6651 -3.52739 0
M  V30 5901 N 536.55 0.480323 -1.50102 0
M  V30 5902 C 537.497 1.57946 -1.6829 0
M  V30 5903 C 538.467 1.57611 -0.524223 0
M  V30 5904 O 539.652 1.75282 -0.753709 0
M  V30 5905 C 536.792 2.95978 -1.77457 0
M  V30 5906 C 535.905 3.06173 -3.04766 0
M  V30 5907 C 535.04 4.35063 -3.04784 0
M  V30 5908 C 534.079 4.38966 -4.26586 0
M  V30 5909 N 533.216 5.59314 -4.24396 0
M  V30 5910 H 538.056 1.41743 -2.62131 0
M  V30 5911 H 535.593 0.689304 -1.2995 0
M  V30 5912 H 537.551 3.76011 -1.80752 0
M  V30 5913 H 536.181 3.10837 -0.870637 0
M  V30 5914 H 535.233 2.19071 -3.10986 0
M  V30 5915 H 536.545 3.04916 -3.9475 0
M  V30 5916 H 535.699 5.23436 -3.06757 0
M  V30 5917 H 534.438 4.38915 -2.12614 0
M  V30 5918 H 533.443 3.48992 -4.24835 0
M  V30 5919 H 534.668 4.36813 -5.19972 0
M  V30 5920 H 532.614 5.63969 -3.35074 0
M  V30 5921 H 532.531 5.5976 -5.08138 0
M  V30 5922 H 533.799 6.49837 -4.30502 0
M  V30 5923 N 538.028 1.39524 0.732853 0
M  V30 5924 C 539.277 1.36175 1.48792 0
M  V30 5925 C 539.59 -0.0388195 1.95561 0
M  V30 5926 O 540.796 -0.194899 2.708 0
M  V30 5927 C 539.252 2.39242 2.68871 0
M  V30 5928 C 538.86 3.85024 2.29042 0
M  V30 5929 C 540.604 2.44972 3.46683 0
M  V30 5930 C 538.511 4.79727 3.45856 0
M  V30 5931 H 537.441 0.506267 0.558757 0
M  V30 5932 H 540.092 1.65181 0.799226 0
M  V30 5933 H 538.474 2.0331 3.39825 0
M  V30 5934 H 539.648 4.30008 1.6562 0
M  V30 5935 H 537.963 3.82609 1.64316 0
M  V30 5936 H 540.56 3.12918 4.33574 0
M  V30 5937 H 540.903 1.4749 3.89297 0
M  V30 5938 H 541.436 2.79808 2.82759 0
M  V30 5939 H 538.175 5.78479 3.08289 0
M  V30 5940 H 537.695 4.39421 4.08251 0
M  V30 5941 H 539.374 4.98731 4.12161 0
M  V30 5942 N 539.506 -0.963266 1.24736 0
M  V30 5943 C 540.922 -1.23273 1.01371 0
M  V30 5944 C 541.122 -1.99618 -0.274776 0
M  V30 5945 O 540.178 -2.32293 -0.989769 0
M  V30 5946 C 541.491 -2.01554 2.23152 0
M  V30 5947 C 543.039 -2.14629 2.27823 0
M  V30 5948 C 543.514 -2.96307 3.49237 0
M  V30 5949 N 545.005 -3.03887 3.49581 0
M  V30 5950 C 545.74 -3.67456 4.40186 0
M  V30 5951 N 545.236 -4.32706 5.41052 0
M  V30 5952 N 547.029 -3.64511 4.27888 0
M  V30 5953 H 539.18 -0.452294 2.07528 0
M  V30 5954 H 541.443 -0.262521 0.910926 0
M  V30 5955 H 541.149 -1.52847 3.1675 0
M  V30 5956 H 541.023 -3.02278 2.25628 0
M  V30 5957 H 543.41 -2.62537 1.34753 0
M  V30 5958 H 543.491 -1.13238 2.2937 0
M  V30 5959 H 543.135 -2.49091 4.42624 0
M  V30 5960 H 543.065 -3.97905 3.44933 0
M  V30 5961 H 545.556 -2.57477 2.76611 0
M  V30 5962 H 545.869 -4.79042 6.06415 0
M  V30 5963 H 544.214 -4.31361 5.44934 0
M  V30 5964 H 547.405 -3.12715 3.4832 0
M  V30 5965 H 547.578 -4.13768 4.98698 0
M  V30 5966 N 540.985 -1.06182 -1.16461 0
M  V30 5967 C 542.233 -0.776326 -1.86595 0
M  V30 5968 C 542.554 0.69921 -1.82033 0
M  V30 5969 O 541.824 1.50579 -1.2531 0
M  V30 5970 H 540.404 -0.284184 -0.690832 0
M  V30 5971 H 543.066 -1.34308 -1.41235 0
M  V30 5972 H 542.162 -1.10022 -2.92064 0
M  V30 5973 N 542.463 1.3308 -0.844243 0
M  V30 5974 C 543.712 1.96868 -0.438833 0
M  V30 5975 C 544.025 1.67599 1.00846 0
M  V30 5976 O 545.231 2.25043 1.51881 0
M  V30 5977 C 543.687 3.5234 -0.73377 0
M  V30 5978 C 543.295 3.90481 -2.1961 0
M  V30 5979 C 545.039 4.22653 -0.395574 0
M  V30 5980 C 542.946 5.38954 -2.43481 0
M  V30 5981 H 541.876 0.736749 -0.160364 0
M  V30 5982 H 544.527 1.51623 -1.03358 0
M  V30 5983 H 542.909 3.95941 -0.068589 0
M  V30 5984 H 544.083 3.57922 -2.90221 0
M  V30 5985 H 542.398 3.33165 -2.4978 0
M  V30 5986 H 544.995 5.31848 -0.551477 0
M  V30 5987 H 545.338 4.11004 0.661921 0
M  V30 5988 H 545.871 3.84601 -1.01621 0
M  V30 5989 H 542.61 5.55612 -3.47816 0
M  V30 5990 H 542.13 5.72954 -1.77437 0
M  V30 5991 H 543.809 6.05907 -2.26905 0
M  V30 5992 N 543.941 0.601185 1.45683 0
M  V30 5993 C 545.218 0.0261659 1.95582 0
M  V30 5994 C 545.598 -1.4399 1.5437 0
M  V30 5995 O 544.946 -2.13919 0.80318 0
M  V30 5996 C 545.156 0.217557 3.48321 0
M  V30 5997 C 546.504 0.0950076 4.24494 0
M  V30 5998 O 547.528 0.147345 3.55895 0
M  V30 5999 O 546.387 -0.025261 5.46494 0
M  V30 6000 H 543.481 -0.0393688 0.826062 0
M  V30 6001 H 546.027 0.670798 1.55879 0
M  V30 6002 H 544.799 1.23601 3.71266 0
M  V30 6003 H 544.422 -0.46264 3.94899 0
M  V30 6004 N 545.419 -1.53889 0.339982 0
M  V30 6005 C 546.668 -2.00035 -0.258604 0
M  V30 6006 C 546.981 -1.23179 -1.51942 0
M  V30 6007 O 548.187 -1.59784 -2.19503 0
M  V30 6008 C 546.643 -3.56249 -0.511359 0
M  V30 6009 C 546.251 -4.41957 0.733349 0
M  V30 6010 C 547.995 -4.1082 -1.069 0
M  V30 6011 C 545.902 -5.89673 0.451591 0
M  V30 6012 H 544.832 -0.747284 -0.10041 0
M  V30 6013 H 547.483 -1.77776 0.454758 0
M  V30 6014 H 545.865 -3.7456 -1.28533 0
M  V30 6015 H 547.039 -4.35421 1.50815 0
M  V30 6016 H 545.354 -3.9836 1.21237 0
M  V30 6017 H 547.951 -5.18789 -1.2947 0
M  V30 6018 H 548.294 -3.63817 -2.02343 0
M  V30 6019 H 548.827 -3.96205 -0.355817 0
M  V30 6020 H 545.566 -6.40903 1.37565 0
M  V30 6021 H 545.086 -5.99122 -0.285193 0
M  V30 6022 H 546.765 -6.46965 0.0675067 0
M  V30 6023 N 546.897 -0.0685191 -1.57451 0
M  V30 6024 C 548.308 0.464634 -1.80826 0
M  V30 6025 C 548.659 1.69847 -0.982169 0
M  V30 6026 O 547.784 2.15439 -0.203734 0
M  V30 6027 C 548.379 0.849721 -3.27971 0
M  V30 6028 C 546.938 1.32776 -3.52204 0
M  V30 6029 C 546.085 0.311332 -2.75547 0
M  V30 6030 H 549.036 -0.294248 -1.55948 0
M  V30 6031 H 549.057 1.71138 -3.39841 0
M  V30 6032 H 548.569 -0.0484736 -3.8807 0
M  V30 6033 H 546.67 2.24456 -2.97406 0
M  V30 6034 H 546.783 1.30794 -4.60901 0
M  V30 6035 H 545.147 0.787915 -2.42206 0
M  V30 6036 H 545.93 -0.579078 -3.38381 0
M  V30 6037 N 548.375 1.56261 0.205012 0
M  V30 6038 C 549.621 1.80306 0.9283 0
M  V30 6039 C 549.954 0.640932 1.83319 0
M  V30 6040 O 549.229 -0.359032 1.91158 0
M  V30 6041 C 549.512 3.14547 1.75306 0
M  V30 6042 C 549.365 4.41236 0.873562 0
M  V30 6043 C 550.684 3.45382 2.72762 0
M  V30 6044 H 547.803 0.655929 0.336044 0
M  V30 6045 H 550.445 1.88984 0.196211 0
M  V30 6046 H 548.595 3.0728 2.37721 0
M  V30 6047 H 550.267 4.60539 0.264887 0
M  V30 6048 H 548.51 4.33427 0.179773 0
M  V30 6049 H 549.181 5.31639 1.48541 0
M  V30 6050 H 551.657 3.52884 2.20481 0
M  V30 6051 H 550.533 4.40449 3.2756 0
M  V30 6052 H 550.794 2.68377 3.51321 0
M  V30 6053 N 549.853 -0.472356 1.50355 0
M  V30 6054 C 550.783 -1.57859 1.72055 0
M  V30 6055 C 551.764 -1.60283 0.569505 0
M  V30 6056 O 552.949 -1.7657 0.808503 0
M  V30 6057 C 550.079 -2.96191 1.81351 0
M  V30 6058 C 549.033 -3.08633 2.96529 0
M  V30 6059 C 548.359 -4.486 2.90968 0
M  V30 6060 C 549.659 -2.85969 4.37057 0
M  V30 6061 H 551.353 -1.39953 2.64676 0
M  V30 6062 H 548.899 -0.671846 1.27367 0
M  V30 6063 H 550.852 -3.73507 1.95117 0
M  V30 6064 H 549.576 -3.15251 0.853502 0
M  V30 6065 H 548.235 -2.33749 2.82413 0
M  V30 6066 H 547.883 -4.64577 1.92815 0
M  V30 6067 H 547.583 -4.57861 3.68289 0
M  V30 6068 H 549.107 -5.27938 3.0678 0
M  V30 6069 H 550.521 -3.53036 4.51706 0
M  V30 6070 H 548.918 -3.06677 5.15819 0
M  V30 6071 H 549.988 -1.81838 4.49514 0
M  V30 6072 N 551.331 -1.39911 -0.725443 0
M  V30 6073 C 552.742 -1.33599 -1.30415 0
M  V30 6074 C 553.093 -0.00481792 -1.96199 0
M  V30 6075 O 552.218 0.897275 -1.96921 0
M  V30 6076 C 552.813 -2.41965 -2.37146 0
M  V30 6077 C 551.372 -2.39144 -2.90667 0
M  V30 6078 C 550.519 -2.23355 -1.64341 0
M  V30 6079 H 553.47 -1.4986 -0.522267 0
M  V30 6080 H 553.491 -2.09304 -3.17761 0
M  V30 6081 H 553.003 -3.38837 -1.89238 0
M  V30 6082 H 551.104 -1.4594 -3.4283 0
M  V30 6083 H 551.217 -3.34362 -3.43131 0
M  V30 6084 H 549.581 -1.70696 -1.89037 0
M  V30 6085 H 550.364 -3.2221 -1.18471 0
M  V30 6086 N 552.809 0.956637 -1.25245 0
M  V30 6087 C 554.225 1.22733 -1.02023 0
M  V30 6088 C 554.425 1.99761 0.264186 0
M  V30 6089 O 553.481 2.32814 0.977436 0
M  V30 6090 C 554.794 2.00367 -2.24217 0
M  V30 6091 C 556.342 2.13418 -2.28958 0
M  V30 6092 C 556.817 2.9445 -3.50803 0
M  V30 6093 N 558.308 3.02029 -3.51187 0
M  V30 6094 C 559.043 3.65116 -4.42129 0
M  V30 6095 N 558.539 4.2983 -5.43339 0
M  V30 6096 N 560.332 3.62237 -4.29815 0
M  V30 6097 H 552.483 0.441282 -2.07765 0
M  V30 6098 H 554.746 0.257686 -0.912306 0
M  V30 6099 H 554.452 1.51165 -3.17556 0
M  V30 6100 H 554.326 3.01077 -2.27228 0
M  V30 6101 H 556.713 2.61819 -1.36143 0
M  V30 6102 H 556.794 1.1202 -2.29968 0
M  V30 6103 H 556.438 2.46741 -4.43939 0
M  V30 6104 H 556.368 3.9607 -3.47039 0
M  V30 6105 H 558.859 2.56007 -2.77973 0
M  V30 6106 H 559.172 4.75819 -6.08947 0
M  V30 6107 H 557.517 4.28465 -5.47214 0
M  V30 6108 H 560.708 3.10863 -3.49974 0
M  V30 6109 H 560.881 4.11117 -5.00886 0
M  V30 6110 N 554.287 1.06798 1.15896 0
M  V30 6111 C 555.235 0.677525 2.22514 0
M  V30 6112 C 556.229 -0.308994 1.66558 0
M  V30 6113 O 557.435 -0.173308 1.79164 0
M  V30 6114 H 553.81 0.200994 0.724642 0
M  V30 6115 H 555.781 1.5865 2.52731 0
M  V30 6116 C 554.53 0.0854153 3.47595 0
M  V30 6117 H 553.853 0.835645 3.90969 0
M  V30 6118 H 555.293 -0.150199 4.23734 0
M  V30 6119 C 553.752 -1.1724 3.15843 0
M  V30 6120 O 554.282 -2.25965 3.32119 0
M  V30 6121 N 552.488 -1.07636 2.69931 0
M  V30 6122 H 552.035 -0.191559 2.56887 0
M  V30 6123 H 551.993 -1.91876 2.4906 0
M  V30 6124 N 555.766 -1.3263 0.851289 0
M  V30 6125 C 556.994 -2.01563 0.466899 0
M  V30 6126 C 557.409 -1.63996 -0.935447 0
M  V30 6127 O 556.766 -0.85957 -1.6099 0
M  V30 6128 C 556.817 -3.56613 0.592433 0
M  V30 6129 O 556.538 -3.92828 1.93954 0
M  V30 6130 C 558.039 -4.42818 0.206612 0
M  V30 6131 H 555.259 -0.645307 0.183902 0
M  V30 6132 H 557.803 -1.69285 1.1473 0
M  V30 6133 H 555.958 -3.87379 -0.0401936 0
M  V30 6134 H 556.372 -4.87545 1.9339 0
M  V30 6135 H 557.846 -5.50918 0.345462 0
M  V30 6136 H 558.323 -4.30844 -0.85264 0
M  V30 6137 H 558.929 -4.17434 0.814176 0
M  V30 6138 N 557.244 -0.608902 -1.45362 0
M  V30 6139 C 558.521 -0.0365378 -1.95566 0
M  V30 6140 C 558.901 1.43169 -1.55131 0
M  V30 6141 O 558.249 2.1349 -0.814513 0
M  V30 6142 C 558.459 -0.236026 -3.48201 0
M  V30 6143 C 559.807 -0.117518 -4.24437 0
M  V30 6144 O 560.831 -0.166217 -3.55812 0
M  V30 6145 O 559.69 -0.00372127 -5.465 0
M  V30 6146 H 556.784 0.0349874 -0.82626 0
M  V30 6147 H 559.33 -0.679055 -1.55521 0
M  V30 6148 H 558.102 -1.25569 -3.70605 0
M  V30 6149 H 557.725 0.441691 -3.95139 0
M  V30 6150 N 558.722 1.53707 -0.348139 0
M  V30 6151 C 559.652 2.28111 0.498766 0
M  V30 6152 C 560.633 1.29851 1.09876 0
M  V30 6153 O 561.818 1.587 1.11928 0
M  V30 6154 C 558.948 3.05735 1.64753 0
M  V30 6155 C 557.902 4.11537 1.17565 0
M  V30 6156 C 557.228 4.77142 2.4133 0
M  V30 6157 C 558.528 5.21587 0.272844 0
M  V30 6158 H 560.222 2.99152 -0.121934 0
M  V30 6159 H 557.768 1.43875 -0.0600842 0
M  V30 6160 H 559.721 3.56526 2.24649 0
M  V30 6161 H 558.445 2.32354 2.2952 0
M  V30 6162 H 557.104 3.61665 0.599483 0
M  V30 6163 H 556.752 4.0035 3.04514 0
M  V30 6164 H 556.452 5.48626 2.10436 0
M  V30 6165 H 557.976 5.30719 3.01943 0
M  V30 6166 H 559.39 5.67986 0.778779 0
M  V30 6167 H 557.787 6.00074 0.0555849 0
M  V30 6168 H 558.857 4.79969 -0.689785 0
M  V30 6169 N 560.2 0.0768682 1.57412 0
M  V30 6170 C 561.428 -0.59997 1.9801 0
M  V30 6171 C 561.843 -1.62842 0.955408 0
M  V30 6172 O 561.2 -1.8241 -0.057314 0
M  V30 6173 C 561.251 -1.26401 3.38681 0
M  V30 6174 O 560.972 -0.276723 4.37225 0
M  V30 6175 C 562.473 -2.0282 3.94182 0
M  V30 6176 H 559.693 -0.162239 0.651091 0
M  V30 6177 H 562.237 0.150771 2.03943 0
M  V30 6178 H 560.392 -1.96581 3.33819 0
M  V30 6179 H 560.806 -0.753744 5.19056 0
M  V30 6180 H 562.28 -2.44667 4.94815 0
M  V30 6181 H 562.757 -2.88678 3.31001 0
M  V30 6182 H 563.363 -1.37496 4.02461 0
M  V30 6183 N 561.678 -1.56367 -0.196722 0
M  V30 6184 C 562.924 -1.80796 -0.918725 0
M  V30 6185 C 563.257 -0.650645 -1.82976 0
M  V30 6186 O 562.532 0.348889 -1.91345 0
M  V30 6187 C 562.815 -3.15472 -1.73636 0
M  V30 6188 C 562.668 -4.41693 -0.85015 0
M  V30 6189 C 563.987 -3.46824 -2.70927 0
M  V30 6190 H 561.106 -0.657702 -0.332561 0
M  V30 6191 H 563.748 -1.89086 -0.186186 0
M  V30 6192 H 561.898 -3.08536 -2.36088 0
M  V30 6193 H 563.57 -4.60673 -0.240459 0
M  V30 6194 H 561.813 -4.33517 -0.156785 0
M  V30 6195 H 562.484 -5.32419 -1.45719 0
M  V30 6196 H 564.96 -3.54049 -2.18607 0
M  V30 6197 H 563.836 -4.4218 -3.25219 0
M  V30 6198 H 564.097 -2.70236 -3.49893 0
M  V30 6199 N 563.156 0.464375 -1.50603 0
M  V30 6200 C 564.403 1.21596 -1.61928 0
M  V30 6201 C 564.731 1.91804 -0.322737 0
M  V30 6202 O 563.986 1.83065 0.691776 0
M  V30 6203 C 564.285 2.278 -2.75394 0
M  V30 6204 C 563.951 1.74797 -4.1564 0
M  V30 6205 C 562.613 1.60063 -4.53799 0
M  V30 6206 C 564.965 1.35548 -5.03266 0
M  V30 6207 C 562.293 1.04514 -5.77316 0
M  V30 6208 C 564.645 0.814381 -6.27336 0
M  V30 6209 C 563.309 0.653726 -6.64291 0
M  V30 6210 H 562.579 0.444951 -0.592536 0
M  V30 6211 H 565.226 0.510964 -1.84557 0
M  V30 6212 H 563.531 3.04233 -2.46879 0
M  V30 6213 H 565.228 2.85723 -2.81359 0
M  V30 6214 H 561.818 1.87234 -3.8554 0
M  V30 6215 H 566.002 1.45763 -4.74412 0
M  V30 6216 H 561.258 0.908186 -6.04617 0
M  V30 6217 H 565.432 0.501626 -6.94591 0
M  V30 6218 H 563.059 0.22114 -7.59878 0
M  V30 6219 N 564.634 1.40294 0.718013 0
M  V30 6220 C 565.88 1.38645 1.48005 0
M  V30 6221 C 566.213 -0.0121202 1.94196 0
M  V30 6222 O 565.488 -0.980309 1.67989 0
M  V30 6223 C 565.771 2.37379 2.70782 0
M  V30 6224 C 565.624 3.8625 2.30501 0
M  V30 6225 C 566.943 2.33685 3.72933 0
M  V30 6226 H 564.062 0.504928 0.536858 0
M  V30 6227 H 566.704 1.71411 0.819649 0
M  V30 6228 H 564.854 2.09568 3.27129 0
M  V30 6229 H 566.526 4.24879 1.79655 0
M  V30 6230 H 564.769 4.02202 1.6253 0
M  V30 6231 H 565.44 4.50847 3.18498 0
M  V30 6232 H 567.916 2.58314 3.2621 0
M  V30 6233 H 566.792 3.0482 4.56482 0
M  V30 6234 H 567.053 1.34765 4.21059 0
M  V30 6235 N 566.112 -0.949982 1.2575 0
M  V30 6236 C 567.022 -2.08109 1.08295 0
M  V30 6237 C 568.038 -1.7399 0.0188181 0
M  V30 6238 O 569.214 -2.00187 0.220724 0
M  V30 6239 C 566.279 -3.39383 0.708534 0
M  V30 6240 C 565.34 -3.8734 1.85111 0
M  V30 6241 C 564.573 -5.12349 1.49447 0
M  V30 6242 O 564.796 -5.6905 0.392212 0
M  V30 6243 O 563.73 -5.5513 2.32624 0
M  V30 6244 H 567.556 -2.25738 2.03165 0
M  V30 6245 H 565.141 -1.06545 1.04731 0
M  V30 6246 H 567.023 -4.18277 0.512061 0
M  V30 6247 H 565.698 -3.23013 -0.210854 0
M  V30 6248 H 564.605 -3.09429 2.10248 0
M  V30 6249 H 565.938 -4.08216 2.74991 0
M  V30 6250 N 567.59 -1.07411 -1.15328 0
M  V30 6251 C 568.553 -0.698914 -2.18284 0
M  V30 6252 C 569.553 0.261149 -1.58665 0
M  V30 6253 O 570.743 0.0420277 -1.74149 0
M  V30 6254 C 567.875 -0.0302427 -3.40887 0
M  V30 6255 H 569.068 -1.61045 -2.52991 0
M  V30 6256 H 566.621 -0.870724 -1.298 0
M  V30 6257 H 567.356 0.893505 -3.11748 0
M  V30 6258 H 567.141 -0.720759 -3.85419 0
M  V30 6259 H 568.631 0.21759 -4.17033 0
M  V30 6260 N 569.068 1.32177 -0.85831 0
M  V30 6261 C 570.016 2.30729 -0.294442 0
M  V30 6262 C 571.01 1.59009 0.584165 0
M  V30 6263 O 572.216 1.73713 0.471562 0
M  V30 6264 H 568.591 0.748097 -0.0765171 0
M  V30 6265 H 570.562 2.75774 -1.1398 0
M  V30 6266 C 569.311 3.44098 0.499208 0
M  V30 6267 H 568.634 3.99449 -0.167579 0
M  V30 6268 H 570.074 4.15202 0.859273 0
M  V30 6269 C 568.533 2.91684 1.68588 0
M  V30 6270 O 569.063 2.89481 2.78503 0
M  V30 6271 N 567.269 2.48036 1.51415 0
M  V30 6272 H 566.816 2.50027 0.620006 0
M  V30 6273 H 566.774 2.13322 2.30957 0
M  V30 6274 N 570.547 0.616602 1.45037 0
M  V30 6275 C 571.796 0.112861 2.01384 0
M  V30 6276 C 572.109 -1.26758 1.48969 0
M  V30 6277 O 573.315 -1.86454 1.9735 0
M  V30 6278 C 571.771 0.151057 3.59583 0
M  V30 6279 C 571.379 1.53191 4.20995 0
M  V30 6280 C 573.123 -0.296974 4.2346 0
M  V30 6281 C 571.03 1.526 5.71373 0
M  V30 6282 H 569.96 0.0384254 0.75302 0
M  V30 6283 H 572.611 0.773262 1.66412 0
M  V30 6284 H 570.993 -0.57617 3.91786 0
M  V30 6285 H 572.167 2.28156 4.00352 0
M  V30 6286 H 570.482 1.92279 3.69348 0
M  V30 6287 H 573.079 -0.320712 5.33737 0
M  V30 6288 H 573.422 -1.32145 3.9477 0
M  V30 6289 H 573.955 0.377279 3.96007 0
M  V30 6290 H 570.694 2.52837 6.04776 0
M  V30 6291 H 570.214 0.819064 5.94181 0
M  V30 6292 H 571.893 1.25357 6.3474 0
M  V30 6293 N 572.025 -1.5352 0.356285 0
M  V30 6294 C 572.957 -2.23009 -0.529127 0
M  V30 6295 C 573.97 -1.241 -1.05371 0
M  V30 6296 O 575.159 -1.50379 -0.961679 0
M  V30 6297 C 572.259 -2.90685 -1.74229 0
M  V30 6298 C 571.432 -4.16019 -1.35081 0
M  V30 6299 C 570.491 -4.66989 -2.42502 0
M  V30 6300 O 569.517 -5.30895 -2.05279 0
M  V30 6301 N 570.719 -4.44006 -3.7395 0
M  V30 6302 H 573.484 -2.99627 0.0660501 0
M  V30 6303 H 571.045 -1.60885 0.181014 0
M  V30 6304 H 573.037 -3.21695 -2.4555 0
M  V30 6305 H 571.607 -2.17575 -2.24454 0
M  V30 6306 H 570.827 -3.91414 -0.467833 0
M  V30 6307 H 572.115 -4.9752 -1.06542 0
M  V30 6308 H 571.513 -3.92924 -4.06973 0
M  V30 6309 H 570.07 -4.7959 -4.41403 0
M  V30 6310 N 573.503 -0.0852151 -1.57369 0
M  V30 6311 C 574.453 0.88767 -2.10011 0
M  V30 6312 C 575.437 1.25021 -1.01285 0
M  V30 6313 O 576.629 1.22694 -1.27574 0
M  V30 6314 C 573.758 2.15037 -2.67608 0
M  V30 6315 C 572.844 1.81371 -3.83361 0
M  V30 6316 N 573.235 1.18216 -4.91791 0
M  V30 6317 C 571.533 2.11041 -3.92909 0
M  V30 6318 C 572.234 1.02941 -5.72519 0
M  V30 6319 N 571.21 1.54351 -5.21226 0
M  V30 6320 H 575.012 0.395279 -2.9123 0
M  V30 6321 H 572.526 0.11829 -1.61969 0
M  V30 6322 H 574.523 2.85667 -3.03644 0
M  V30 6323 H 573.183 2.64851 -1.8784 0
M  V30 6324 H 574.194 0.850168 -5.10874 0
M  V30 6325 H 570.871 2.63138 -3.24136 0
M  V30 6326 H 572.261 0.536298 -6.69756 0
M  V30 6327 N 574.981 1.5647 0.188427 0
M  V30 6328 C 576.229 1.80655 0.905986 0
M  V30 6329 C 576.55 0.659391 1.83513 0
M  V30 6330 O 575.82 -0.321868 1.93238 0
M  V30 6331 H 574.4 0.666391 0.337538 0
M  V30 6332 H 577.062 1.93949 0.192339 0
M  V30 6333 H 576.158 2.74066 1.49313 0
M  V30 6334 N 576.459 -0.456382 1.50847 0
M  V30 6335 C 577.391 -1.57033 1.66953 0
M  V30 6336 C 578.404 -1.53207 0.550593 0
M  V30 6337 O 579.593 -1.58328 0.824285 0
M  V30 6338 C 576.693 -2.95937 1.65149 0
M  V30 6339 C 575.866 -3.24475 2.93317 0
M  V30 6340 C 574.925 -4.43007 2.83957 0
M  V30 6341 O 573.951 -4.42592 3.57912 0
M  V30 6342 N 575.153 -5.45503 1.9851 0
M  V30 6343 H 577.918 -1.43629 2.63042 0
M  V30 6344 H 575.479 -0.645037 1.48495 0
M  V30 6345 H 577.471 -3.73224 1.56481 0
M  V30 6346 H 576.041 -3.03036 0.767343 0
M  V30 6347 H 575.261 -2.35664 3.16 0
M  V30 6348 H 576.549 -3.4036 3.78196 0
M  V30 6349 H 575.947 -5.48668 1.37766 0
M  V30 6350 H 574.504 -6.21716 1.95735 0
M  V30 6351 N 577.937 -1.40673 -0.710563 0
M  V30 6352 C 578.869 -1.37256 -1.83558 0
M  V30 6353 C 579.882 -0.277133 -1.60424 0
M  V30 6354 O 581.071 -0.537831 -1.70205 0
M  V30 6355 C 578.171 -1.1144 -3.20054 0
M  V30 6356 C 577.344 -2.32734 -3.70342 0
M  V30 6357 C 576.403 -2.03002 -4.85465 0
M  V30 6358 O 575.429 -2.75912 -4.97857 0
M  V30 6359 N 576.631 -1.01105 -5.71627 0
M  V30 6360 H 579.396 -2.34215 -1.86985 0
M  V30 6361 H 576.957 -1.35091 -0.892301 0
M  V30 6362 H 578.949 -0.895265 -3.94673 0
M  V30 6363 H 577.519 -0.231307 -3.11743 0
M  V30 6364 H 576.739 -2.70446 -2.86798 0
M  V30 6365 H 578.027 -3.13584 -4.00678 0
M  V30 6366 H 577.425 -0.407303 -5.64232 0
M  V30 6367 H 575.982 -0.85182 -6.4621 0
M  V30 6368 N 579.415 0.9433 -1.26252 0
M  V30 6369 C 580.661 1.69175 -1.11837 0
M  V30 6370 C 580.994 1.91238 0.337891 0
M  V30 6371 O 580.269 1.49152 1.24836 0
M  V30 6372 C 580.552 3.06783 -1.88563 0
M  V30 6373 C 580.405 2.9206 -3.42083 0
M  V30 6374 C 581.724 4.06865 -1.67776 0
M  V30 6375 H 578.843 0.61399 -0.407658 0
M  V30 6376 H 581.485 1.09572 -1.55222 0
M  V30 6377 H 579.635 3.57663 -1.51689 0
M  V30 6378 H 581.307 2.48419 -3.88698 0
M  V30 6379 H 579.55 2.27731 -3.69217 0
M  V30 6380 H 580.221 3.89651 -3.90994 0
M  V30 6381 H 582.697 3.64939 -1.99897 0
M  V30 6382 H 581.573 5.01168 -2.23879 0
M  V30 6383 H 581.834 4.37705 -0.621816 0
M  V30 6384 N 580.893 1.08022 1.14757 0
M  V30 6385 C 581.823 0.728248 2.21853 0
M  V30 6386 C 582.804 -0.287486 1.67653 0
M  V30 6387 O 583.989 -0.158727 1.9355 0
M  V30 6388 C 581.119 0.132549 3.47047 0
M  V30 6389 C 580.073 1.07619 4.14249 0
M  V30 6390 C 579.399 0.342907 5.33599 0
M  V30 6391 C 580.699 2.41268 4.63235 0
M  V30 6392 H 582.393 1.62365 2.51551 0
M  V30 6393 H 579.939 0.782125 1.20908 0
M  V30 6394 H 581.892 -0.125665 4.21213 0
M  V30 6395 H 580.616 -0.797971 3.16702 0
M  V30 6396 H 579.275 1.31944 3.42033 0
M  V30 6397 H 578.923 -0.59129 4.99513 0
M  V30 6398 H 578.623 0.971955 5.79506 0
M  V30 6399 H 580.147 0.0926538 6.1053 0
M  V30 6400 H 581.561 2.21232 5.28894 0
M  V30 6401 H 579.958 2.9983 5.19829 0
M  V30 6402 H 581.028 3.03079 3.78512 0
M  V30 6403 N 582.371 -1.3172 0.865308 0
M  V30 6404 C 583.611 -1.98675 0.480365 0
M  V30 6405 C 583.975 -1.66929 -0.948621 0
M  V30 6406 O 585.176 -2.27059 -1.43867 0
M  V30 6407 C 583.447 -3.49972 0.724858 0
M  V30 6408 S 585.006 -4.36598 0.439078 0
M  V30 6409 H 581.824 -0.687967 0.179506 0
M  V30 6410 H 584.426 -1.60215 1.12033 0
M  V30 6411 H 583.13 -3.70567 1.76375 0
M  V30 6412 H 582.661 -3.93335 0.0717173 0
M  V30 6413 H 584.676 -4.90792 -0.730564 0
M  V30 6414 N 583.85 -0.624285 -1.44708 0
M  V30 6415 C 584.782 0.12305 -2.28869 0
M  V30 6416 C 585.795 0.81557 -1.40898 0
M  V30 6417 O 586.984 0.678162 -1.65116 0
M  V30 6418 C 584.084 1.19612 -3.1709 0
M  V30 6419 C 583.257 0.587452 -4.33437 0
M  V30 6420 C 582.316 1.55358 -5.02743 0
M  V30 6421 O 581.341 1.07338 -5.58988 0
M  V30 6422 N 582.543 2.88798 -5.03563 0
M  V30 6423 H 585.308 -0.599193 -2.93649 0
M  V30 6424 H 582.87 -0.464954 -1.5508 0
M  V30 6425 H 584.861 1.84261 -3.60319 0
M  V30 6426 H 583.432 1.82067 -2.54107 0
M  V30 6427 H 582.652 -0.237509 -3.93484 0
M  V30 6428 H 583.94 0.161326 -5.08544 0
M  V30 6429 H 583.338 3.30399 -4.59188 0
M  V30 6430 H 581.894 3.48826 -5.50603 0
M  V30 6431 N 585.328 1.53329 -0.364422 0
M  V30 6432 C 586.744 1.59594 -0.0133165 0
M  V30 6433 C 586.944 1.37959 1.46865 0
M  V30 6434 O 586 1.18418 2.2301 0
M  V30 6435 C 587.313 2.97032 -0.468213 0
M  V30 6436 C 588.861 3.10138 -0.422334 0
M  V30 6437 C 589.336 4.49986 -0.853024 0
M  V30 6438 N 590.827 4.56098 -0.808037 0
M  V30 6439 C 591.562 5.62495 -1.11299 0
M  V30 6440 N 591.058 6.7665 -1.48717 0
M  V30 6441 N 592.851 5.52473 -1.03586 0
M  V30 6442 H 585.002 1.65644 -1.32951 0
M  V30 6443 H 587.265 0.77684 -0.543345 0
M  V30 6444 H 586.971 3.18 -1.5023 0
M  V30 6445 H 586.845 3.76918 0.145775 0
M  V30 6446 H 589.232 2.88881 0.602622 0
M  V30 6447 H 589.313 2.32263 -1.0718 0
M  V30 6448 H 588.957 4.7198 -1.87609 0
M  V30 6449 H 588.887 5.26289 -0.180819 0
M  V30 6450 H 591.378 3.74131 -0.532361 0
M  V30 6451 H 591.691 7.53776 -1.70415 0
M  V30 6452 H 590.036 6.78044 -1.52581 0
M  V30 6453 H 593.227 4.6217 -0.742736 0
M  V30 6454 H 593.4 6.35295 -1.27686 0
M  V30 6455 N 586.806 0.0935595 1.57322 0
M  V30 6456 C 588.222 -0.263091 1.57417 0
M  V30 6457 C 588.422 -1.68526 1.1046 0
M  V30 6458 O 587.478 -2.40139 0.780357 0
M  V30 6459 C 588.791 -0.0529201 3.00653 0
M  V30 6460 C 590.339 -0.120788 3.12767 0
M  V30 6461 C 590.814 0.0613707 4.57959 0
M  V30 6462 N 592.305 0.00648534 4.632 0
M  V30 6463 C 593.04 0.122699 5.73269 0
M  V30 6464 N 592.536 0.29366 6.92177 0
M  V30 6465 N 594.329 0.0640787 5.62063 0
M  V30 6466 H 586.48 1.02277 1.86154 0
M  V30 6467 H 588.743 0.4007 0.859153 0
M  V30 6468 H 588.449 0.929279 3.39201 0
M  V30 6469 H 588.323 -0.795899 3.68708 0
M  V30 6470 H 590.71 -1.09349 2.74093 0
M  V30 6471 H 590.791 0.653656 2.47307 0
M  V30 6472 H 590.435 1.03093 4.97327 0
M  V30 6473 H 590.365 -0.732748 5.21477 0
M  V30 6474 H 592.856 -0.123173 3.77699 0
M  V30 6475 H 593.169 0.37389 7.71895 0
M  V30 6476 H 591.514 0.329307 6.94219 0
M  V30 6477 H 594.705 -0.0683396 4.6805 0
M  V30 6478 H 594.878 0.158097 6.47807 0
M  V30 6479 N 588.284 -1.56567 -0.180126 0
M  V30 6480 C 589.512 -1.85618 -0.913972 0
M  V30 6481 C 589.927 -0.677892 -1.7621 0
M  V30 6482 O 589.284 0.353171 -1.7905 0
M  V30 6483 C 589.335 -3.13619 -1.79793 0
M  V30 6484 O 589.056 -4.26906 -0.98402 0
M  V30 6485 C 590.557 -3.55954 -2.64219 0
M  V30 6486 H 587.777 -0.616043 -0.265954 0
M  V30 6487 H 590.321 -2.03681 -0.182872 0
M  V30 6488 H 588.476 -2.97409 -2.48247 0
M  V30 6489 H 588.89 -4.9989 -1.58776 0
M  V30 6490 H 590.364 -4.48444 -3.21873 0
M  V30 6491 H 590.841 -2.79653 -3.38661 0
M  V30 6492 H 591.447 -3.74746 -2.01111 0
M  V30 6493 N 589.762 0.448376 -1.51087 0
M  V30 6494 C 590.987 1.22605 -1.6728 0
M  V30 6495 C 591.412 1.84524 -0.365045 0
M  V30 6496 O 590.77 1.6832 0.673642 0
M  V30 6497 C 590.818 2.29393 -2.78229 0
M  V30 6498 O 589.922 3.34608 -2.41063 0
M  V30 6499 H 589.263 0.359705 -0.558129 0
M  V30 6500 H 591.793 0.530903 -1.97592 0
M  V30 6501 H 591.803 2.74352 -3.01986 0
M  V30 6502 H 590.478 1.83701 -3.73131 0
M  V30 6503 H 589.055 2.95202 -2.27838 0
M  V30 6504 N 591.24 1.41047 0.703093 0
M  V30 6505 C 592.651 1.35657 1.28274 0
M  V30 6506 C 593.002 0.0360309 1.96167 0
M  V30 6507 O 592.127 -0.865833 1.98324 0
M  V30 6508 C 592.722 2.45707 2.33267 0
M  V30 6509 C 591.281 2.43738 2.86825 0
M  V30 6510 C 590.428 2.25941 1.60767 0
M  V30 6511 H 593.379 1.50672 0.49836 0
M  V30 6512 H 593.4 2.14333 3.14391 0
M  V30 6513 H 592.912 3.41805 1.83824 0
M  V30 6514 H 591.013 1.51375 3.40465 0
M  V30 6515 H 591.126 3.39779 3.37768 0
M  V30 6516 H 589.49 1.73681 1.86298 0
M  V30 6517 H 590.273 3.24054 1.1333 0
M  V30 6518 N 592.718 -0.936591 1.26751 0
M  V30 6519 C 593.665 -2.03597 1.08706 0
M  V30 6520 C 594.635 -1.66097 -0.00926542 0
M  V30 6521 O 595.82 -1.90199 0.151377 0
M  V30 6522 C 592.96 -3.3727 0.73094 0
M  V30 6523 C 592.073 -3.87778 1.90399 0
M  V30 6524 C 591.208 -5.09859 1.49056 0
M  V30 6525 C 590.247 -5.5264 2.63164 0
M  V30 6526 N 589.384 -6.65921 2.22471 0
M  V30 6527 H 594.224 -2.18364 2.02784 0
M  V30 6528 H 591.761 -1.06985 1.00958 0
M  V30 6529 H 593.719 -4.14128 0.505328 0
M  V30 6530 H 592.349 -3.22337 -0.172868 0
M  V30 6531 H 591.401 -3.07279 2.2424 0
M  V30 6532 H 592.713 -4.15464 2.76028 0
M  V30 6533 H 591.867 -5.9419 1.22567 0
M  V30 6534 H 590.606 -4.8393 0.60524 0
M  V30 6535 H 589.611 -4.66863 2.90377 0
M  V30 6536 H 590.836 -5.80568 3.52303 0
M  V30 6537 H 588.782 -6.41667 1.36379 0
M  V30 6538 H 588.699 -6.93216 3.01641 0
M  V30 6539 H 589.967 -7.53616 1.99205 0
M  V30 6540 N 594.196 -1.08629 -1.14182 0
M  V30 6541 C 595.607 -0.838003 -1.66836 0
M  V30 6542 C 595.958 0.634885 -1.85644 0
M  V30 6543 O 595.083 1.49008 -1.56926 0
M  V30 6544 C 595.678 -1.51465 -3.03058 0
M  V30 6545 C 594.237 -1.31355 -3.52736 0
M  V30 6546 C 593.384 -1.57599 -2.28162 0
M  V30 6547 H 596.335 -1.24656 -0.982165 0
M  V30 6548 H 596.356 -0.943134 -3.68626 0
M  V30 6549 H 595.868 -2.58661 -2.89337 0
M  V30 6550 H 593.969 -0.262384 -3.71675 0
M  V30 6551 H 594.082 -2.04275 -4.33369 0
M  V30 6552 H 592.446 -0.997659 -2.34348 0
M  V30 6553 H 593.229 -2.66006 -2.17015 0
M  V30 6554 N 595.674 1.31259 -0.872281 0
M  V30 6555 C 596.921 1.96622 -0.484365 0
M  V30 6556 C 597.249 1.68939 0.963841 0
M  V30 6557 O 596.504 0.97974 1.6941 0
M  V30 6558 C 596.803 3.50659 -0.690889 0
M  V30 6559 C 596.469 3.98366 -2.11224 0
M  V30 6560 C 595.131 4.11104 -2.50094 0
M  V30 6561 C 597.483 4.23425 -3.0391 0
M  V30 6562 C 594.811 4.46254 -3.80887 0
M  V30 6563 C 597.163 4.60039 -4.3422 0
M  V30 6564 C 595.827 4.70984 -4.73001 0
M  V30 6565 H 595.097 0.71949 -0.177242 0
M  V30 6566 H 597.744 1.56353 -1.10571 0
M  V30 6567 H 596.049 3.91798 0.0135782 0
M  V30 6568 H 597.746 3.99284 -0.370534 0
M  V30 6569 H 594.336 3.88949 -1.80047 0
M  V30 6570 H 598.52 4.13075 -2.75104 0
M  V30 6571 H 593.776 4.52926 -4.10692 0
M  V30 6572 H 597.95 4.78381 -5.06088 0
M  V30 6573 H 595.577 4.97977 -5.7439 0
M  V30 6574 N 597.152 0.631951 1.44375 0
M  V30 6575 C 598.38 0.143867 2.06399 0
M  V30 6576 C 598.795 -1.18188 1.47231 0
M  V30 6577 O 598.152 -1.72511 0.595498 0
M  V30 6578 C 598.203 0.0238253 3.61492 0
M  V30 6579 O 597.924 1.29715 4.18456 0
M  V30 6580 C 599.425 -0.492856 4.40552 0
M  V30 6581 H 596.645 0.0800542 0.666207 0
M  V30 6582 H 599.189 0.866586 1.85231 0
M  V30 6583 H 597.344 -0.649338 3.81919 0
M  V30 6584 H 597.758 1.14252 5.11905 0
M  V30 6585 H 599.232 -0.525861 5.49489 0
M  V30 6586 H 599.709 -1.52006 4.12057 0
M  V30 6587 H 600.315 0.147085 4.25046 0
M  V30 6588 N 598.631 -1.53133 0.372548 0
M  V30 6589 C 599.541 -2.29671 -0.478379 0
M  V30 6590 C 600.557 -1.35913 -1.08644 0
M  V30 6591 O 601.733 -1.68975 -1.09588 0
M  V30 6592 C 598.798 -3.07625 -1.599 0
M  V30 6593 C 597.859 -4.17061 -1.01776 0
M  V30 6594 C 597.092 -4.91289 -2.08497 0
M  V30 6595 O 597.315 -4.65442 -3.29727 0
M  V30 6596 O 596.249 -5.7705 -1.71164 0
M  V30 6597 H 600.075 -3.03355 0.144649 0
M  V30 6598 H 597.66 -1.48773 0.136729 0
M  V30 6599 H 599.542 -3.56281 -2.25038 0
M  V30 6600 H 598.217 -2.3677 -2.2073 0
M  V30 6601 H 597.124 -3.72641 -0.330098 0
M  V30 6602 H 598.457 -4.90102 -0.453915 0
M  V30 6603 N 600.109 -0.101901 -1.5727 0
M  V30 6604 C 601.019 0.868647 -2.17926 0
M  V30 6605 C 602.035 1.30527 -1.1506 0
M  V30 6606 O 603.211 1.37178 -1.47459 0
M  V30 6607 C 600.276 2.10727 -2.75309 0
M  V30 6608 C 599.337 1.7242 -3.93154 0
M  V30 6609 C 598.57 2.90377 -4.47791 0
M  V30 6610 O 598.793 4.05305 -4.01353 0
M  V30 6611 O 597.727 2.6845 -5.38719 0
M  V30 6612 H 601.553 0.382544 -3.01281 0
M  V30 6613 H 599.138 0.122812 -1.48894 0
M  V30 6614 H 601.02 2.83303 -3.11958 0
M  V30 6615 H 599.695 2.58376 -1.94996 0
M  V30 6616 H 598.602 0.970039 -3.61305 0
M  V30 6617 H 599.935 1.29528 -4.74851 0
M  V30 6618 N 601.587 1.56661 0.17182 0
M  V30 6619 C 602.833 1.82235 0.889845 0
M  V30 6620 C 603.166 0.679673 1.81918 0
M  V30 6621 O 602.441 -0.318404 1.91876 0
M  V30 6622 C 602.724 3.18195 1.68595 0
M  V30 6623 C 602.577 4.42989 0.779773 0
M  V30 6624 C 603.896 3.5109 2.65375 0
M  V30 6625 H 601.015 0.66291 0.322056 0
M  V30 6626 H 603.657 1.89358 0.15608 0
M  V30 6627 H 601.807 3.12253 2.3115 0
M  V30 6628 H 603.479 4.60997 0.16714 0
M  V30 6629 H 601.722 4.33711 0.0877964 0
M  V30 6630 H 602.393 5.3467 1.3723 0
M  V30 6631 H 604.869 3.57482 2.12946 0
M  V30 6632 H 603.745 4.47298 3.18144 0
M  V30 6633 H 604.006 2.75768 3.45549 0
M  V30 6634 N 603.065 -0.440357 1.51323 0
M  V30 6635 C 603.995 -1.54174 1.75364 0
M  V30 6636 C 604.976 -1.59039 0.603375 0
M  V30 6637 O 606.161 -1.74815 0.845774 0
M  V30 6638 C 603.291 -2.92277 1.87593 0
M  V30 6639 C 602.245 -3.02274 3.03009 0
M  V30 6640 C 601.571 -4.42327 3.00418 0
M  V30 6641 C 602.871 -2.76634 4.43024 0
M  V30 6642 H 604.565 -1.34307 2.67585 0
M  V30 6643 H 602.111 -0.644678 1.28763 0
M  V30 6644 H 604.064 -3.69284 2.02995 0
M  V30 6645 H 602.788 -3.13369 0.920179 0
M  V30 6646 H 601.447 -2.27706 2.87307 0
M  V30 6647 H 601.095 -4.60382 2.02626 0
M  V30 6648 H 600.795 -4.49946 3.77918 0
M  V30 6649 H 602.319 -5.21312 3.17909 0
M  V30 6650 H 603.733 -3.43376 4.59093 0
M  V30 6651 H 602.13 -2.95666 5.22208 0
M  V30 6652 H 603.2 -1.72262 4.5327 0
M  V30 6653 N 604.543 -1.41418 -0.695603 0
M  V30 6654 C 605.789 -1.41983 -1.45645 0
M  V30 6655 C 606.144 -0.0282216 -1.92379 0
M  V30 6656 O 605.437 0.945916 -1.66622 0
M  V30 6657 C 605.631 -2.36112 -2.68302 0
M  V30 6658 C 605.46 -3.84288 -2.33566 0
M  V30 6659 C 604.23 -4.52971 -2.23932 0
M  V30 6660 C 606.428 -4.75264 -1.96543 0
M  V30 6661 N 604.41 -5.86276 -1.82081 0
M  V30 6662 C 605.781 -5.97517 -1.6545 0
M  V30 6663 C 607.836 -4.62911 -1.83352 0
M  V30 6664 C 606.539 -7.08793 -1.22492 0
M  V30 6665 C 608.565 -5.74149 -1.41799 0
M  V30 6666 C 607.927 -6.95501 -1.11617 0
M  V30 6667 H 604.026 -0.574771 -0.530247 0
M  V30 6668 H 606.61 -1.77289 -0.804788 0
M  V30 6669 H 604.781 -2.02902 -3.31188 0
M  V30 6670 H 606.513 -2.27397 -3.34773 0
M  V30 6671 H 603.268 -4.06909 -2.42327 0
M  V30 6672 H 603.692 -6.56926 -1.63638 0
M  V30 6673 H 608.334 -3.69588 -2.05341 0
M  V30 6674 H 606.052 -8.01982 -0.992482 0
M  V30 6675 H 609.638 -5.66595 -1.32143 0
M  V30 6676 H 608.518 -7.80114 -0.799493 0
M  V30 6677 N 606.021 0.929856 -1.27246 0
M  V30 6678 C 606.969 2.05151 -1.09616 0
M  V30 6679 C 607.963 1.69388 -0.0198617 0
M  V30 6680 O 609.169 1.79124 -0.177417 0
M  V30 6681 H 605.544 0.671909 -0.337701 0
M  V30 6682 H 607.515 2.17168 -2.04648 0
M  V30 6683 C 606.264 3.3934 -0.757851 0
M  V30 6684 H 605.587 3.67343 -1.57795 0
M  V30 6685 H 607.027 4.18603 -0.674358 0
M  V30 6686 C 605.486 3.32582 0.537658 0
M  V30 6687 O 606.016 3.69633 1.57271 0
M  V30 6688 N 604.222 2.8568 0.532478 0
M  V30 6689 H 603.769 2.55725 -0.310233 0
M  V30 6690 H 603.727 2.81541 1.39936 0
M  V30 6691 N 607.499 1.09233 1.13605 0
M  V30 6692 C 608.745 0.828385 1.8511 0
M  V30 6693 C 609.078 -0.64437 1.83198 0
M  V30 6694 O 608.353 -1.47428 1.26867 0
M  V30 6695 C 608.636 1.36167 3.33363 0
M  V30 6696 C 608.489 2.90038 3.438 0
M  V30 6697 C 609.808 0.993819 4.28732 0
M  V30 6698 H 606.927 0.30239 0.672108 0
M  V30 6699 H 609.569 1.35339 1.33355 0
M  V30 6700 H 607.719 0.9151 3.77569 0
M  V30 6701 H 609.391 3.43128 3.08319 0
M  V30 6702 H 607.634 3.27271 2.84739 0
M  V30 6703 H 608.305 3.22428 4.48045 0
M  V30 6704 H 610.781 1.37893 3.92587 0
M  V30 6705 H 609.657 1.39403 5.30903 0
M  V30 6706 H 609.918 -0.0982206 4.41991 0
M  V30 6707 N 608.977 -1.30795 0.87923 0
M  V30 6708 C 610.223 -1.97035 0.50487 0
M  V30 6709 C 610.578 -1.68182 -0.934484 0
M  V30 6710 O 609.871 -0.972953 -1.65058 0
M  V30 6711 C 610.065 -3.50287 0.709476 0
M  V30 6712 C 609.894 -3.94035 2.16717 0
M  V30 6713 C 608.664 -4.1992 2.81061 0
M  V30 6714 C 610.862 -4.07288 3.1404 0
M  V30 6715 N 608.844 -4.50088 4.17486 0
M  V30 6716 C 610.215 -4.41273 4.35521 0
M  V30 6717 C 612.27 -3.89696 3.09906 0
M  V30 6718 C 610.973 -4.59501 5.534 0
M  V30 6719 C 612.999 -4.09122 4.27052 0
M  V30 6720 C 612.361 -4.43447 5.47297 0
M  V30 6721 H 608.46 -0.746181 0.233962 0
M  V30 6722 H 611.044 -1.5814 1.13577 0
M  V30 6723 H 609.215 -3.8825 0.108108 0
M  V30 6724 H 610.947 -4.03567 0.302585 0
M  V30 6725 H 607.702 -4.12906 2.3196 0
M  V30 6726 H 608.126 -4.69316 4.87926 0
M  V30 6727 H 612.768 -3.62239 2.18043 0
M  V30 6728 H 610.486 -4.85802 6.45773 0
M  V30 6729 H 614.072 -3.96985 4.25316 0
M  V30 6730 H 612.952 -4.58171 6.36435 0
M  V30 6731 N 610.455 -0.639598 -1.44038 0
M  V30 6732 C 611.385 0.0469443 -2.33453 0
M  V30 6733 C 612.366 0.82609 -1.48694 0
M  V30 6734 O 613.551 0.790285 -1.77393 0
M  V30 6735 C 610.681 1.02338 -3.3188 0
M  V30 6736 C 609.635 0.355284 -4.26523 0
M  V30 6737 C 608.961 1.44221 -5.14883 0
M  V30 6738 C 610.261 -0.743798 -5.16977 0
M  V30 6739 H 611.955 -0.699735 -2.91108 0
M  V30 6740 H 609.501 -0.337946 -1.39978 0
M  V30 6741 H 611.454 1.51247 -3.93322 0
M  V30 6742 H 610.178 1.80105 -2.72451 0
M  V30 6743 H 608.837 -0.113239 -3.66425 0
M  V30 6744 H 608.485 2.21097 -4.51802 0
M  V30 6745 H 608.185 1.00052 -5.79019 0
M  V30 6746 H 609.709 1.93295 -5.79197 0
M  V30 6747 H 611.123 -0.337444 -5.72306 0
M  V30 6748 H 609.52 -1.10914 -5.89761 0
M  V30 6749 H 610.59 -1.60745 -4.57481 0
M  V30 6750 N 611.933 1.52934 -0.380664 0
M  V30 6751 C 612.843 2.29921 0.466192 0
M  V30 6752 C 613.859 1.36488 1.07922 0
M  V30 6753 O 615.035 1.69553 1.0869 0
M  V30 6754 C 612.1 3.08468 1.58266 0
M  V30 6755 C 611.161 4.17595 0.995627 0
M  V30 6756 C 610.394 4.92387 2.05889 0
M  V30 6757 O 610.617 4.67184 3.27254 0
M  V30 6758 O 609.551 5.77949 1.68102 0
M  V30 6759 H 613.377 3.03274 -0.160735 0
M  V30 6760 H 610.962 1.48698 -0.144617 0
M  V30 6761 H 612.844 3.57469 2.23145 0
M  V30 6762 H 611.519 2.37937 2.19471 0
M  V30 6763 H 610.426 3.72811 0.310332 0
M  V30 6764 H 611.759 4.90336 0.427918 0
M  V30 6765 N 613.412 0.11024 1.57214 0
M  V30 6766 C 614.659 -0.54987 1.94891 0
M  V30 6767 C 614.987 -1.67243 0.992984 0
M  V30 6768 O 614.242 -1.95694 0.0152703 0
M  V30 6769 C 614.541 -1.13102 3.39032 0
M  V30 6770 C 614.207 -0.130713 4.5071 0
M  V30 6771 C 612.869 0.14437 4.80983 0
M  V30 6772 C 615.221 0.551472 5.18274 0
M  V30 6773 C 612.549 1.10807 5.76141 0
M  V30 6774 C 614.901 1.50375 6.14467 0
M  V30 6775 C 613.565 1.78691 6.43138 0
M  V30 6776 H 612.835 -0.201212 0.713158 0
M  V30 6777 H 615.482 0.189288 1.90562 0
M  V30 6778 H 613.787 -1.94675 3.40013 0
M  V30 6779 H 615.484 -1.64973 3.65493 0
M  V30 6780 H 612.074 -0.355301 4.27125 0
M  V30 6781 H 616.258 0.35211 4.95049 0
M  V30 6782 H 611.514 1.3343 5.96663 0
M  V30 6783 H 615.688 2.03808 6.65909 0
M  V30 6784 H 613.315 2.53522 7.1668 0
M  V30 6785 N 614.89 -1.56749 -0.16351 0
M  V30 6786 C 616.115 -1.86938 -0.898264 0
M  V30 6787 C 616.54 -0.697456 -1.74692 0
M  V30 6788 O 615.898 0.353327 -1.77824 0
M  V30 6789 C 615.946 -3.15599 -1.74441 0
M  V30 6790 O 615.05 -2.98371 -2.8469 0
M  V30 6791 H 614.391 -0.614659 -0.251178 0
M  V30 6792 H 616.921 -2.03979 -0.159298 0
M  V30 6793 H 616.931 -3.47202 -2.14277 0
M  V30 6794 H 615.606 -4.00505 -1.1211 0
M  V30 6795 H 614.183 -2.7814 -2.4838 0
M  V30 6796 N 616.368 0.432326 -1.51554 0
M  V30 6797 C 617.617 1.17831 -1.63703 0
M  V30 6798 C 617.93 1.92229 -0.36156 0
M  V30 6799 O 619.136 2.69069 -0.362495 0
M  V30 6800 C 617.592 2.14318 -2.89129 0
M  V30 6801 C 617.2 1.45544 -4.23699 0
M  V30 6802 C 618.944 2.89319 -3.10636 0
M  V30 6803 C 616.851 2.40545 -5.4027 0
M  V30 6804 H 615.781 0.443533 -0.60975 0
M  V30 6805 H 618.432 0.444878 -1.78026 0
M  V30 6806 H 616.814 2.91117 -2.68452 0
M  V30 6807 H 617.988 0.742693 -4.54775 0
M  V30 6808 H 616.303 0.826772 -4.0811 0
M  V30 6809 H 618.9 3.60495 -3.94902 0
M  V30 6810 H 619.243 3.50951 -2.23918 0
M  V30 6811 H 619.776 2.19625 -3.31677 0
M  V30 6812 H 616.515 1.83594 -6.29264 0
M  V30 6813 H 616.035 3.09859 -5.13563 0
M  V30 6814 H 617.714 3.01569 -5.72421 0
M  V30 6815 N 617.846 1.41785 0.688094 0
M  V30 6816 C 618.793 1.44221 1.80191 0
M  V30 6817 C 619.763 0.295688 1.63447 0
M  V30 6818 O 620.948 0.49783 1.84191 0
M  V30 6819 C 618.088 1.33743 3.1813 0
M  V30 6820 C 617.201 2.58325 3.46254 0
M  V30 6821 C 616.336 2.40086 4.73848 0
M  V30 6822 C 615.375 3.60107 4.94964 0
M  V30 6823 N 614.512 3.40892 6.13789 0
M  V30 6824 H 619.352 2.39411 1.77444 0
M  V30 6825 H 616.889 1.18876 0.866423 0
M  V30 6826 H 618.847 1.25669 3.97823 0
M  V30 6827 H 617.477 0.42157 3.20035 0
M  V30 6828 H 616.529 2.7682 2.60912 0
M  V30 6829 H 617.841 3.4758 3.57756 0
M  V30 6830 H 616.995 2.29522 5.61609 0
M  V30 6831 H 615.734 1.483 4.64606 0
M  V30 6832 H 614.739 3.71118 4.05649 0
M  V30 6833 H 615.964 4.52857 5.06061 0
M  V30 6834 H 613.91 2.51812 6.05745 0
M  V30 6835 H 613.827 4.23727 6.26092 0
M  V30 6836 H 615.095 3.34114 7.04264 0
M  V30 6837 N 619.324 -0.923095 1.27737 0
M  V30 6838 C 620.573 -1.66581 1.13727 0
M  V30 6839 C 620.886 -1.9304 -0.315433 0
M  V30 6840 O 622.092 -2.65309 -0.57651 0
M  V30 6841 C 620.548 -3.00047 1.98745 0
M  V30 6842 C 620.156 -2.8127 3.48699 0
M  V30 6843 C 621.9 -3.77887 1.93395 0
M  V30 6844 C 619.807 -4.1032 4.25901 0
M  V30 6845 H 618.737 -0.624834 0.422017 0
M  V30 6846 H 621.388 -1.02514 1.52194 0
M  V30 6847 H 619.77 -3.65197 1.53125 0
M  V30 6848 H 620.944 -2.24859 4.02213 0
M  V30 6849 H 619.259 -2.16854 3.55476 0
M  V30 6850 H 621.856 -4.73526 2.48348 0
M  V30 6851 H 622.199 -4.06264 0.908605 0
M  V30 6852 H 622.732 -3.19541 2.36935 0
M  V30 6853 H 619.471 -3.8712 5.28978 0
M  V30 6854 H 618.991 -4.66377 3.77163 0
M  V30 6855 H 620.67 -4.78648 4.35321 0
M  V30 6856 N 620.802 -1.09834 -1.13024 0
M  V30 6857 C 621.749 -0.741522 -2.18564 0
M  V30 6858 C 622.719 0.279236 -1.63736 0
M  V30 6859 O 623.904 0.159923 -1.90129 0
M  V30 6860 C 621.044 -0.17277 -3.44667 0
M  V30 6861 C 620.157 -1.24808 -4.13578 0
M  V30 6862 C 619.292 -0.641631 -5.27311 0
M  V30 6863 C 618.331 -1.69795 -5.88078 0
M  V30 6864 N 617.468 -1.11223 -6.93234 0
M  V30 6865 H 622.308 -1.64576 -2.48432 0
M  V30 6866 H 619.845 -0.822174 -1.21978 0
M  V30 6867 H 621.803 0.17482 -4.16834 0
M  V30 6868 H 620.433 0.694725 -3.15235 0
M  V30 6869 H 619.485 -1.71288 -3.39653 0
M  V30 6870 H 620.797 -2.04795 -4.54819 0
M  V30 6871 H 619.951 -0.243128 -6.06213 0
M  V30 6872 H 618.69 0.189742 -4.87331 0
M  V30 6873 H 617.695 -2.10595 -5.07868 0
M  V30 6874 H 618.92 -2.53206 -6.3013 0
M  V30 6875 H 616.866 -0.302208 -6.55304 0
M  V30 6876 H 616.783 -1.84901 -7.3304 0
M  V30 6877 H 618.051 -0.740068 -7.75979 0
M  V30 6878 N 622.28 1.30327 -0.886154 0
M  V30 6879 C 623.557 1.90922 -0.425217 0
M  V30 6880 C 623.937 1.80533 1.09413 0
M  V30 6881 O 623.285 1.2233 1.92996 0
M  V30 6882 C 623.495 3.36529 -0.924638 0
M  V30 6883 C 624.843 4.13598 -0.960305 0
M  V30 6884 O 625.867 3.45377 -0.871382 0
M  V30 6885 O 624.726 5.35482 -1.09184 0
M  V30 6886 H 621.82 0.81668 -0.130238 0
M  V30 6887 H 624.366 1.38886 -0.975132 0
M  V30 6888 H 623.138 3.38181 -1.96849 0
M  V30 6889 H 622.761 3.96021 -0.353955 0
M  V30 6890 N 623.758 0.647228 1.43697 0
M  V30 6891 C 624.688 -0.0345631 2.33474 0
M  V30 6892 C 625.669 -0.818193 1.4913 0
M  V30 6893 O 626.854 -0.780867 1.77809 0
M  V30 6894 C 623.984 -1.00576 3.32418 0
M  V30 6895 C 622.938 -0.33266 4.26705 0
M  V30 6896 C 622.264 -1.41489 5.1564 0
M  V30 6897 C 623.564 0.771204 5.16575 0
M  V30 6898 H 625.258 0.715163 2.90733 0
M  V30 6899 H 622.804 0.345364 1.39797 0
M  V30 6900 H 624.757 -1.49159 3.94119 0
M  V30 6901 H 623.481 -1.78657 2.73403 0
M  V30 6902 H 622.14 0.13267 3.6636 0
M  V30 6903 H 621.788 -2.18698 4.52968 0
M  V30 6904 H 621.488 -0.969799 5.79542 0
M  V30 6905 H 623.012 -1.9022 5.80214 0
M  V30 6906 H 624.426 0.36779 5.72119 0
M  V30 6907 H 622.823 1.1404 5.89165 0
M  V30 6908 H 623.893 1.63169 4.56622 0
M  V30 6909 N 625.236 -1.5273 0.388769 0
M  V30 6910 C 626.647 -1.86505 -0.0853788 0
M  V30 6911 C 626.998 -1.30847 -1.46197 0
M  V30 6912 O 626.123 -0.639609 -2.06732 0
M  V30 6913 C 626.718 -3.38414 -0.161703 0
M  V30 6914 C 625.277 -3.71902 -0.580144 0
M  V30 6915 C 624.424 -2.76095 0.258218 0
M  V30 6916 H 627.375 -1.46647 0.606665 0
M  V30 6917 H 627.396 -3.67638 -0.980936 0
M  V30 6918 H 626.908 -3.78893 0.840333 0
M  V30 6919 H 625.009 -3.36992 -1.58957 0
M  V30 6920 H 625.122 -4.77902 -0.338663 0
M  V30 6921 H 623.486 -2.53195 -0.276432 0
M  V30 6922 H 624.269 -3.19411 1.25822 0
M  V30 6923 N 626.714 -0.118576 -1.57153 0
M  V30 6924 C 627.661 0.831789 -2.1529 0
M  V30 6925 C 628.631 1.26385 -1.07778 0
M  V30 6926 O 629.816 1.34144 -1.35684 0
M  V30 6927 C 626.956 2.07664 -2.75626 0
M  V30 6928 C 626.069 1.69298 -3.97444 0
M  V30 6929 C 625.204 2.88747 -4.45868 0
M  V30 6930 C 624.243 2.46619 -5.60219 0
M  V30 6931 N 623.38 3.5898 -6.03389 0
M  V30 6932 H 628.22 0.329183 -2.96176 0
M  V30 6933 H 625.757 0.150792 -1.46325 0
M  V30 6934 H 627.715 2.80601 -3.08738 0
M  V30 6935 H 626.345 2.55384 -1.97431 0
M  V30 6936 H 625.397 0.862374 -3.70496 0
M  V30 6937 H 626.709 1.34338 -4.80369 0
M  V30 6938 H 625.863 3.69909 -4.80887 0
M  V30 6939 H 624.602 3.26933 -3.61892 0
M  V30 6940 H 623.607 1.63889 -5.24805 0
M  V30 6941 H 624.832 2.0955 -6.45961 0
M  V30 6942 H 622.778 3.9684 -5.22354 0
M  V30 6943 H 622.695 3.27942 -6.81168 0
M  V30 6944 H 623.963 4.40583 -6.43045 0
M  V30 6945 N 628.193 1.56834 0.155195 0
M  V30 6946 C 629.441 1.82536 0.867462 0
M  V30 6947 C 629.762 0.698168 1.82073 0
M  V30 6948 O 629.032 -0.280807 1.93877 0
M  V30 6949 H 627.612 0.673401 0.323327 0
M  V30 6950 H 630.274 1.94313 0.151156 0
M  V30 6951 H 629.37 2.77171 1.43466 0
M  V30 6952 N 629.671 -0.424282 1.51781 0
M  V30 6953 C 630.634 -1.49848 1.73431 0
M  V30 6954 C 631.634 -1.49016 0.604225 0
M  V30 6955 O 632.824 -1.50808 0.871935 0
M  V30 6956 C 629.956 -2.89332 1.80277 0
M  V30 6957 H 631.149 -1.3195 2.69312 0
M  V30 6958 H 628.702 -0.653809 1.41968 0
M  V30 6959 H 629.437 -3.12618 0.862568 0
M  V30 6960 H 629.222 -2.9134 2.62419 0
M  V30 6961 H 630.712 -3.67233 1.98821 0
M  V30 6962 N 631.149 -1.42148 -0.680565 0
M  V30 6963 C 632.079 -1.4796 -1.80638 0
M  V30 6964 C 633.06 -0.336728 -1.66734 0
M  V30 6965 O 634.245 -0.550247 -1.86242 0
M  V30 6966 C 631.375 -1.37569 -3.18892 0
M  V30 6967 C 630.329 -2.49823 -3.47524 0
M  V30 6968 C 629.655 -2.24491 -4.85291 0
M  V30 6969 C 630.955 -3.92144 -3.44994 0
M  V30 6970 H 632.649 -2.42184 -1.76032 0
M  V30 6971 H 630.195 -1.16566 -0.845481 0
M  V30 6972 H 632.148 -1.40243 -3.97379 0
M  V30 6973 H 630.872 -0.398357 -3.24162 0
M  V30 6974 H 629.531 -2.46455 -2.71395 0
M  V30 6975 H 629.179 -1.25066 -4.87204 0
M  V30 6976 H 628.879 -2.99722 -5.05411 0
M  V30 6977 H 630.403 -2.28906 -5.66069 0
M  V30 6978 H 631.817 -3.97145 -4.13459 0
M  V30 6979 H 630.214 -4.67179 -3.76648 0
M  V30 6980 H 631.284 -4.19225 -2.43676 0
M  V30 6981 N 632.627 0.916307 -1.28225 0
M  V30 6982 C 633.557 2.0352 -1.14464 0
M  V30 6983 C 634.538 1.70045 -0.0430844 0
M  V30 6984 O 635.723 1.92954 -0.219619 0
M  V30 6985 C 632.853 3.37889 -0.803027 0
M  V30 6986 C 631.807 3.85516 -1.85908 0
M  V30 6987 C 631.133 5.1682 -1.37116 0
M  V30 6988 C 632.433 4.07655 -3.26519 0
M  V30 6989 H 634.127 2.1529 -2.08064 0
M  V30 6990 H 631.673 1.03446 -1.00174 0
M  V30 6991 H 633.626 4.15654 -0.693537 0
M  V30 6992 H 632.35 3.26164 0.168674 0
M  V30 6993 H 631.009 3.09953 -1.95767 0
M  V30 6994 H 630.657 5.01497 -0.38859 0
M  V30 6995 H 630.357 5.49657 -2.07728 0
M  V30 6996 H 631.881 5.97143 -1.27484 0
M  V30 6997 H 633.295 4.75953 -3.19596 0
M  V30 6998 H 631.692 4.51818 -3.94943 0
M  V30 6999 H 632.762 3.12553 -3.70727 0
M  V30 7000 N 634.105 1.10431 1.1244 0
M  V30 7001 C 635.053 0.747974 2.20246 0
M  V30 7002 C 636.047 -0.255848 1.67457 0
M  V30 7003 O 637.253 -0.116221 1.79624 0
M  V30 7004 H 633.628 0.223946 0.71788 0
M  V30 7005 H 635.599 1.6661 2.47556 0
M  V30 7006 C 634.348 0.195957 3.47147 0
M  V30 7007 H 633.671 0.959606 3.88113 0
M  V30 7008 H 635.111 -0.0153154 4.23997 0
M  V30 7009 C 633.57 -1.07132 3.19413 0
M  V30 7010 O 634.1 -2.15284 3.3914 0
M  V30 7011 N 632.306 -0.98994 2.73219 0
M  V30 7012 H 631.853 -0.109736 2.57366 0
M  V30 7013 H 631.811 -1.83856 2.55038 0
M  V30 7014 N 635.583 -1.29855 0.893053 0
M  V30 7015 C 636.513 -2.3035 0.382249 0
M  V30 7016 C 637.494 -1.61328 -0.539203 0
M  V30 7017 O 638.679 -1.88882 -0.451342 0
M  V30 7018 C 635.809 -3.45024 -0.396983 0
M  V30 7019 C 634.763 -4.258 0.433437 0
M  V30 7020 C 634.089 -5.32605 -0.472889 0
M  V30 7021 C 635.389 -4.94549 1.67984 0
M  V30 7022 H 637.083 -2.73325 1.22205 0
M  V30 7023 H 634.629 -1.314 0.589073 0
M  V30 7024 H 636.582 -4.14398 -0.765024 0
M  V30 7025 H 635.306 -3.00875 -1.2705 0
M  V30 7026 H 633.965 -3.58125 0.783723 0
M  V30 7027 H 633.613 -4.84702 -1.34435 0
M  V30 7028 H 633.313 -5.87547 0.0789958 0
M  V30 7029 H 634.837 -6.04832 -0.837269 0
M  V30 7030 H 636.251 -5.56395 1.38192 0
M  V30 7031 H 634.648 -5.59393 2.17254 0
M  V30 7032 H 635.718 -4.20215 2.41965 0
M  V30 7033 N 637.061 -0.65484 -1.43351 0
M  V30 7034 C 637.993 0.0744757 -2.29079 0
M  V30 7035 C 639.006 0.7855 -1.42596 0
M  V30 7036 O 640.195 0.642986 -1.66517 0
M  V30 7037 C 637.295 1.12859 -3.19556 0
M  V30 7038 C 636.468 0.495381 -4.34586 0
M  V30 7039 C 635.527 1.44659 -5.05925 0
M  V30 7040 O 634.553 0.954567 -5.61139 0
M  V30 7041 N 635.755 2.78051 -5.09576 0
M  V30 7042 H 638.52 -0.661346 -2.92312 0
M  V30 7043 H 636.081 -0.497744 -1.54059 0
M  V30 7044 H 638.073 1.76577 -3.64147 0
M  V30 7045 H 636.643 1.76636 -2.57912 0
M  V30 7046 H 635.863 -0.32092 -3.92892 0
M  V30 7047 H 637.151 0.0534203 -5.08772 0
M  V30 7048 H 636.549 3.20584 -4.66093 0
M  V30 7049 H 635.106 3.37068 -5.57878 0
M  V30 7050 N 638.539 1.52521 -0.396863 0
M  V30 7051 C 639.788 2.00857 0.184184 0
M  V30 7052 C 640.101 1.28733 1.47265 0
M  V30 7053 O 641.307 1.67821 2.13421 0
M  V30 7054 C 639.763 3.57901 0.378787 0
M  V30 7055 C 639.371 4.38931 -0.896873 0
M  V30 7056 C 641.115 4.14504 0.915789 0
M  V30 7057 C 639.022 5.87591 -0.670133 0
M  V30 7058 H 637.952 0.750496 0.0726055 0
M  V30 7059 H 640.603 1.75965 -0.520425 0
M  V30 7060 H 638.985 3.79072 1.14543 0
M  V30 7061 H 640.159 4.29524 -1.66872 0
M  V30 7062 H 638.474 3.93586 -1.35938 0
M  V30 7063 H 641.071 5.23236 1.10126 0
M  V30 7064 H 641.414 3.71076 1.88701 0
M  V30 7065 H 641.947 3.97253 0.208523 0
M  V30 7066 H 638.686 6.35355 -1.61257 0
M  V30 7067 H 638.206 5.99767 0.0626368 0
M  V30 7068 H 639.885 6.46268 -0.307577 0
M  V30 7069 N 640.017 0.126909 1.57088 0
M  V30 7070 C 641.247 -0.535892 1.99529 0
M  V30 7071 C 641.655 -1.60259 1.00566 0
M  V30 7072 O 640.998 -1.83698 -0.00843269 0
M  V30 7073 C 641.06 -1.21374 3.38391 0
M  V30 7074 C 640.724 -0.294044 4.56053 0
M  V30 7075 C 641.721 0.470454 5.17767 0
M  V30 7076 C 639.406 -0.202808 5.0189 0
M  V30 7077 C 641.4 1.31384 6.23712 0
M  V30 7078 C 639.087 0.644203 6.07695 0
M  V30 7079 C 640.085 1.40115 6.68473 0
M  V30 7080 O 639.773 2.23408 7.72233 0
M  V30 7081 H 639.505 -0.145799 0.66009 0
M  V30 7082 H 642.059 0.212441 2.04298 0
M  V30 7083 H 640.289 -2.00931 3.30399 0
M  V30 7084 H 641.978 -1.77424 3.65069 0
M  V30 7085 H 642.744 0.409884 4.83265 0
M  V30 7086 H 638.623 -0.781688 4.54324 0
M  V30 7087 H 642.167 1.90514 6.71081 0
M  V30 7088 H 638.064 0.706137 6.41626 0
M  V30 7089 H 638.832 2.16436 7.89365 0
M  V30 7090 N 641.495 -1.56914 -0.146875 0
M  V30 7091 C 642.735 -1.85163 -0.86568 0
M  V30 7092 C 643.099 -0.711215 -1.78342 0
M  V30 7093 O 644.3 -0.874754 -2.54168 0
M  V30 7094 C 642.571 -3.18593 -1.61967 0
M  V30 7095 S 644.13 -3.68397 -2.38388 0
M  V30 7096 H 640.948 -0.6494 -0.289483 0
M  V30 7097 H 643.55 -1.95096 -0.125679 0
M  V30 7098 H 642.254 -3.99562 -0.93694 0
M  V30 7099 H 641.785 -3.11666 -2.40058 0
M  V30 7100 H 643.8 -3.37672 -3.63582 0
M  V30 7101 N 642.974 0.416227 -1.52004 0
M  V30 7102 C 644.222 1.16153 -1.65387 0
M  V30 7103 C 644.543 1.91208 -0.382669 0
M  V30 7104 O 643.813 1.86413 0.602231 0
M  V30 7105 H 642.393 0.431765 -0.60958 0
M  V30 7106 H 645.055 0.475151 -1.89019 0
M  V30 7107 H 644.151 1.87952 -2.4916 0
M  V30 7108 N 644.452 1.42507 0.673017 0
M  V30 7109 C 645.399 1.46124 1.78651 0
M  V30 7110 C 646.369 0.313007 1.63124 0
M  V30 7111 O 647.554 0.517337 1.83653 0
M  V30 7112 C 644.694 1.3711 3.16694 0
M  V30 7113 C 643.807 2.61983 3.43495 0
M  V30 7114 C 642.942 2.45098 4.71275 0
M  V30 7115 C 641.981 3.65336 4.91117 0
M  V30 7116 N 641.118 3.47383 6.10139 0
M  V30 7117 H 645.958 2.4128 1.74895 0
M  V30 7118 H 643.495 1.19788 0.853766 0
M  V30 7119 H 645.453 1.29881 3.96468 0
M  V30 7120 H 644.083 0.45549 3.1957 0
M  V30 7121 H 643.135 2.79571 2.57961 0
M  V30 7122 H 644.447 3.51355 3.5405 0
M  V30 7123 H 643.601 2.35466 5.59143 0
M  V30 7124 H 642.34 1.53219 4.63007 0
M  V30 7125 H 641.345 3.754 4.0169 0
M  V30 7126 H 642.57 4.58199 5.01229 0
M  V30 7127 H 640.516 2.58222 6.0304 0
M  V30 7128 H 640.433 4.30344 6.21563 0
M  V30 7129 H 641.701 3.41565 7.00681 0
M  V30 7130 N 645.93 -0.909495 1.28709 0
M  V30 7131 C 646.893 -1.99399 1.13016 0
M  V30 7132 C 647.893 -1.60654 0.068536 0
M  V30 7133 O 649.083 -1.71334 0.314671 0
M  V30 7134 C 646.215 -3.33078 0.726085 0
M  V30 7135 H 647.408 -2.14751 2.09338 0
M  V30 7136 H 644.961 -1.09272 1.11756 0
M  V30 7137 H 645.696 -3.23428 -0.23771 0
M  V30 7138 H 645.481 -3.62562 1.49302 0
M  V30 7139 H 646.971 -4.12681 0.639058 0
M  V30 7140 N 647.408 -1.11026 -1.11852 0
M  V30 7141 C 648.819 -0.873203 -1.65021 0
M  V30 7142 C 649.17 0.595364 -1.86949 0
M  V30 7143 O 648.295 1.45645 -1.60051 0
M  V30 7144 C 648.89 -1.57859 -2.99777 0
M  V30 7145 C 647.449 -1.38807 -3.49871 0
M  V30 7146 C 646.596 -1.62403 -2.24768 0
M  V30 7147 H 649.547 -1.26712 -0.955503 0
M  V30 7148 H 649.568 -1.02111 -3.66543 0
M  V30 7149 H 649.08 -2.6474 -2.83786 0
M  V30 7150 H 647.181 -0.341163 -3.71035 0
M  V30 7151 H 647.294 -2.13421 -4.28938 0
M  V30 7152 H 645.658 -1.04714 -2.32179 0
M  V30 7153 H 646.441 -2.70549 -2.11324 0
M  V30 7154 N 648.886 1.2938 -0.899927 0
M  V30 7155 C 649.849 2.25983 -0.382677 0
M  V30 7156 C 650.849 1.53366 0.483259 0
M  V30 7157 O 652.039 1.71798 0.28828 0
M  V30 7158 C 649.171 3.37878 0.452915 0
M  V30 7159 H 650.364 2.73252 -1.23586 0
M  V30 7160 H 647.917 1.40825 -0.678088 0
M  V30 7161 H 648.652 2.95949 1.32608 0
M  V30 7162 H 648.437 3.91742 -0.167562 0
M  V30 7163 H 649.927 4.09746 0.806107 0
M  V30 7164 N 650.364 0.662433 1.43002 0
M  V30 7165 C 651.294 -0.00979809 2.33498 0
M  V30 7166 C 652.275 -0.802329 1.49989 0
M  V30 7167 O 653.46 -0.761964 1.78627 0
M  V30 7168 C 650.59 -0.970446 3.33466 0
M  V30 7169 C 649.544 -0.287383 4.27034 0
M  V30 7170 C 648.87 -1.36012 5.17112 0
M  V30 7171 C 650.17 0.82595 5.15728 0
M  V30 7172 H 651.864 0.745959 2.89958 0
M  V30 7173 H 649.41 0.360172 1.39423 0
M  V30 7174 H 651.363 -1.44971 3.95679 0
M  V30 7175 H 650.087 -1.75748 2.75282 0
M  V30 7176 H 648.746 0.17152 3.66199 0
M  V30 7177 H 648.394 -2.13882 4.55262 0
M  V30 7178 H 648.094 -0.908276 5.80538 0
M  V30 7179 H 649.618 -1.84056 5.82199 0
M  V30 7180 H 651.032 0.42845 5.71697 0
M  V30 7181 H 649.429 1.20282 5.87922 0
M  V30 7182 H 650.499 1.68003 4.54866 0
M  V30 7183 N 651.842 -1.52309 0.404946 0
M  V30 7184 C 653.067 -2.06666 -0.1743 0
M  V30 7185 C 653.492 -1.27341 -1.38441 0
M  V30 7186 O 652.85 -0.302539 -1.78758 0
M  V30 7187 C 652.898 -3.57014 -0.507262 0
M  V30 7188 O 652.002 -3.80144 -1.59889 0
M  V30 7189 H 651.343 -0.663807 -0.0160273 0
M  V30 7190 H 653.873 -1.96297 0.576937 0
M  V30 7191 H 653.883 -4.00724 -0.767098 0
M  V30 7192 H 652.558 -4.14184 0.377368 0
M  V30 7193 H 651.135 -3.48316 -1.33155 0
M  V30 7194 N 653.32 -0.135238 -1.57019 0
M  V30 7195 C 654.545 0.529343 -2.00531 0
M  V30 7196 C 654.97 1.58391 -1.01459 0
M  V30 7197 O 654.328 1.81296 0.0113986 0
M  V30 7198 C 654.376 1.11748 -3.42848 0
M  V30 7199 O 653.48 2.23267 -3.46736 0
M  V30 7200 H 652.821 0.130669 -0.651016 0
M  V30 7201 H 655.351 -0.228503 -2.0332 0
M  V30 7202 H 655.361 1.44905 -3.81401 0
M  V30 7203 H 654.036 0.345147 -4.14465 0
M  V30 7204 H 652.613 1.91428 -3.20015 0
M  V30 7205 N 654.798 1.5699 0.138552 0
M  V30 7206 C 655.745 1.98899 1.17081 0
M  V30 7207 C 656.715 0.857922 1.42228 0
M  V30 7208 O 657.9 1.12065 1.54422 0
M  V30 7209 C 655.04 2.38189 2.4972 0
M  V30 7210 C 654.153 3.64624 2.31674 0
M  V30 7211 C 653.288 3.9298 3.57407 0
M  V30 7212 C 652.327 5.1266 3.34435 0
M  V30 7213 N 651.464 5.36983 4.5232 0
M  V30 7214 H 656.304 2.86881 0.80642 0
M  V30 7215 H 653.841 1.41925 0.386727 0
M  V30 7216 H 655.799 2.59 3.2707 0
M  V30 7217 H 654.429 1.53275 2.84089 0
M  V30 7218 H 653.481 3.51542 1.45337 0
M  V30 7219 H 654.793 4.52131 2.10664 0
M  V30 7220 H 653.947 4.14335 4.43183 0
M  V30 7221 H 652.686 3.03912 3.8143 0
M  V30 7222 H 651.691 4.9117 2.47048 0
M  V30 7223 H 652.916 6.03288 3.11802 0
M  V30 7224 H 650.862 4.50871 4.76499 0
M  V30 7225 H 650.779 6.18775 4.34343 0
M  V30 7226 H 652.047 5.62842 5.39285 0
M  V30 7227 N 656.276 -0.40816 1.52223 0
M  V30 7228 C 657.239 -1.48 1.7501 0
M  V30 7229 C 658.239 -1.48367 0.619996 0
M  V30 7230 O 659.429 -1.49874 0.887881 0
M  V30 7231 C 656.561 -2.87403 1.83336 0
M  V30 7232 H 657.754 -1.29086 2.70697 0
M  V30 7233 H 655.307 -0.638715 1.42654 0
M  V30 7234 H 656.042 -3.11686 0.895677 0
M  V30 7235 H 655.827 -2.8854 2.65494 0
M  V30 7236 H 657.317 -3.65103 2.02705 0
M  V30 7237 N 657.755 -1.42862 -0.66545 0
M  V30 7238 C 658.98 -1.47456 -1.45848 0
M  V30 7239 C 659.405 -0.0900312 -1.87884 0
M  V30 7240 O 658.763 0.913587 -1.56599 0
M  V30 7241 C 658.811 -2.41514 -2.67774 0
M  V30 7242 O 657.915 -1.89296 -3.66389 0
M  V30 7243 H 657.256 -0.499236 -0.437789 0
M  V30 7244 H 659.786 -1.8765 -0.815394 0
M  V30 7245 H 659.796 -2.58409 -3.15735 0
M  V30 7246 H 658.471 -3.42099 -2.36519 0
M  V30 7247 H 657.048 -1.82003 -3.25468 0
M  V30 7248 N 659.233 0.902656 -1.29189 0
M  V30 7249 C 660.196 1.98797 -1.14071 0
M  V30 7250 C 661.196 1.60615 -0.0770549 0
M  V30 7251 O 662.386 1.71165 -0.323753 0
M  V30 7252 C 659.518 3.32688 -0.743739 0
M  V30 7253 H 660.711 2.13637 -2.10473 0
M  V30 7254 H 658.264 1.08678 -1.12334 0
M  V30 7255 H 658.999 3.23549 0.220554 0
M  V30 7256 H 658.784 3.61765 -1.51223 0
M  V30 7257 H 660.274 4.12337 -0.660935 0
M  V30 7258 N 660.711 1.11618 1.11262 0
M  V30 7259 C 661.621 0.78898 2.20935 0
M  V30 7260 C 662.637 -0.21867 1.7262 0
M  V30 7261 O 663.813 -0.0543826 2.01327 0
M  V30 7262 C 660.878 0.239014 3.45875 0
M  V30 7263 C 659.939 1.3055 4.08968 0
M  V30 7264 C 659.172 0.781687 5.27944 0
M  V30 7265 O 659.395 -0.387605 5.69082 0
M  V30 7266 O 658.329 1.54734 5.81671 0
M  V30 7267 H 662.155 1.70477 2.51339 0
M  V30 7268 H 659.74 0.892203 1.19834 0
M  V30 7269 H 661.622 -0.0632312 4.21353 0
M  V30 7270 H 660.297 -0.649454 3.17118 0
M  V30 7271 H 659.204 1.66079 3.35214 0
M  V30 7272 H 660.537 2.16743 4.41909 0
M  V30 7273 N 662.189 -1.289 0.906776 0
M  V30 7274 C 663.414 -1.99939 0.551303 0
M  V30 7275 C 663.839 -1.67366 -0.858496 0
M  V30 7276 O 663.197 -0.902176 -1.57259 0
M  V30 7277 C 663.245 -3.52523 0.758937 0
M  V30 7278 O 662.349 -4.11983 -0.185308 0
M  V30 7279 H 661.69 -0.628376 0.214568 0
M  V30 7280 H 664.22 -1.64225 1.2203 0
M  V30 7281 H 664.23 -4.02522 0.666329 0
M  V30 7282 H 662.905 -3.75566 1.78671 0
M  V30 7283 H 661.482 -3.72873 -0.0445577 0
M  V30 7284 N 663.667 -0.670007 -1.42649 0
M  V30 7285 C 665.078 -0.268118 -1.84765 0
M  V30 7286 C 665.429 1.18877 -1.56086 0
M  V30 7287 O 664.554 1.90947 -1.01825 0
M  V30 7288 C 665.149 -0.47984 -3.35385 0
M  V30 7289 C 663.708 -0.132116 -3.76168 0
M  V30 7290 C 662.855 -0.774611 -2.66261 0
M  V30 7291 H 665.806 -0.872509 -1.32563 0
M  V30 7292 H 665.827 0.269522 -3.79544 0
M  V30 7293 H 665.339 -1.54026 -3.56227 0
M  V30 7294 H 663.44 0.92505 -3.60934 0
M  V30 7295 H 663.553 -0.569294 -4.75706 0
M  V30 7296 H 661.917 -0.206353 -2.53863 0
M  V30 7297 H 662.7 -1.83839 -2.89928 0
M  V30 7298 N 665.145 1.52092 -0.413018 0
M  V30 7299 C 666.37 2.06756 0.163338 0
M  V30 7300 C 666.795 1.28073 1.37764 0
M  V30 7301 O 666.153 0.312015 1.78595 0
M  V30 7302 C 666.201 3.57278 0.488322 0
M  V30 7303 O 665.305 3.80986 1.57871 0
M  V30 7304 H 664.646 0.663882 0.0125068 0
M  V30 7305 H 667.176 1.95988 -0.587339 0
M  V30 7306 H 667.186 4.01125 0.745836 0
M  V30 7307 H 665.861 4.13978 -0.399327 0
M  V30 7308 H 664.438 3.49017 1.31306 0
M  V30 7309 N 666.623 0.143563 1.56945 0
M  V30 7310 C 667.848 -0.518701 2.00809 0
M  V30 7311 C 668.273 -1.5785 1.02298 0
M  V30 7312 O 667.631 -1.813 -0.0017839 0
M  V30 7313 C 667.679 -1.09929 3.43436 0
M  V30 7314 O 666.783 -2.21425 3.47915 0
M  V30 7315 H 666.124 -0.127215 0.6517 0
M  V30 7316 H 668.654 0.239283 2.03196 0
M  V30 7317 H 668.664 -1.4288 3.82164 0
M  V30 7318 H 667.339 -0.323162 4.14643 0
M  V30 7319 H 665.916 -1.89728 3.21026 0
M  V30 7320 N 668.101 -1.57061 -0.130224 0
M  V30 7321 C 669.011 -2.02802 -1.17934 0
M  V30 7322 C 670.027 -0.946378 -1.46013 0
M  V30 7323 O 671.203 -1.25708 -1.57351 0
M  V30 7324 C 668.268 -2.41368 -2.48882 0
M  V30 7325 C 667.329 -3.63561 -2.28301 0
M  V30 7326 C 666.562 -4.00279 -3.53005 0
M  V30 7327 O 666.785 -3.37463 -4.59864 0
M  V30 7328 O 665.719 -4.93441 -3.44673 0
M  V30 7329 H 669.545 -2.92394 -0.820958 0
M  V30 7330 H 667.13 -1.45475 -0.340197 0
M  V30 7331 H 669.012 -2.66958 -3.26054 0
M  V30 7332 H 667.687 -1.54926 -2.84217 0
M  V30 7333 H 666.594 -3.43136 -1.49025 0
M  V30 7334 H 667.927 -4.50673 -1.97875 0
M  V30 7335 N 669.579 0.400081 -1.52437 0
M  V30 7336 C 670.804 1.17221 -1.71096 0
M  V30 7337 C 671.229 1.83269 -0.423565 0
M  V30 7338 O 670.587 1.70378 0.619751 0
M  V30 7339 C 670.635 2.20425 -2.85386 0
M  V30 7340 O 669.739 3.26769 -2.51586 0
M  V30 7341 H 669.08 0.341766 -0.569291 0
M  V30 7342 H 671.61 0.467772 -1.99181 0
M  V30 7343 H 671.62 2.64605 -3.10561 0
M  V30 7344 H 670.295 1.71737 -3.78786 0
M  V30 7345 H 668.872 2.87804 -2.37114 0
M  V30 7346 N 671.057 1.43213 0.657864 0
M  V30 7347 C 672.004 1.48011 1.77092 0
M  V30 7348 C 672.974 0.330291 1.62783 0
M  V30 7349 O 674.159 0.536787 1.83094 0
M  V30 7350 C 671.299 1.40461 3.15222 0
M  V30 7351 C 670.412 2.65612 3.40697 0
M  V30 7352 C 669.547 2.50083 4.68649 0
M  V30 7353 C 668.586 3.70525 4.87214 0
M  V30 7354 N 667.723 3.53835 6.0642 0
M  V30 7355 H 672.563 2.43121 1.72326 0
M  V30 7356 H 670.1 1.20687 0.841013 0
M  V30 7357 H 672.058 1.34079 3.95068 0
M  V30 7358 H 670.688 0.489359 3.19069 0
M  V30 7359 H 669.74 2.82292 2.54982 0
M  V30 7360 H 671.052 3.5509 3.50303 0
M  V30 7361 H 670.206 2.41383 5.56614 0
M  V30 7362 H 668.945 1.58121 4.61356 0
M  V30 7363 H 667.95 3.79639 3.97686 0
M  V30 7364 H 669.175 4.63489 4.96341 0
M  V30 7365 H 667.121 2.64604 6.00267 0
M  V30 7366 H 667.038 4.36912 6.16963 0
M  V30 7367 H 668.306 3.48978 6.97019 0
M  V30 7368 N 672.536 -0.895792 1.29666 0
M  V30 7369 C 673.784 -1.64339 1.17631 0
M  V30 7370 C 674.105 -1.93099 -0.271643 0
M  V30 7371 O 673.375 -1.55981 -1.18518 0
M  V30 7372 H 671.955 -0.609162 0.432354 0
M  V30 7373 H 674.617 -1.07389 1.62646 0
M  V30 7374 H 673.713 -2.59815 1.72924 0
M  V30 7375 N 674.014 -1.12206 -1.10668 0
M  V30 7376 C 674.961 -0.787716 -2.16942 0
M  V30 7377 C 675.931 0.244442 -1.64291 0
M  V30 7378 O 677.116 0.119558 -1.90425 0
M  V30 7379 C 674.256 -0.24584 -3.44223 0
M  V30 7380 C 673.369 -1.33552 -4.10838 0
M  V30 7381 C 672.504 -0.753337 -5.25831 0
M  V30 7382 C 671.543 -1.82231 -5.84344 0
M  V30 7383 N 670.68 -1.25902 -6.90719 0
M  V30 7384 H 675.52 -1.69809 -2.44885 0
M  V30 7385 H 673.057 -0.847862 -1.20207 0
M  V30 7386 H 675.015 0.0863639 -4.17111 0
M  V30 7387 H 673.645 0.627702 -3.16638 0
M  V30 7388 H 672.697 -1.78454 -3.35944 0
M  V30 7389 H 674.009 -2.14396 -4.50373 0
M  V30 7390 H 673.163 -0.37166 -6.05561 0
M  V30 7391 H 671.902 0.0863297 -4.87624 0
M  V30 7392 H 670.907 -2.2132 -5.03287 0
M  V30 7393 H 672.132 -2.66515 -6.24617 0
M  V30 7394 H 670.078 -0.44114 -6.54515 0
M  V30 7395 H 669.995 -2.00408 -7.28953 0
M  V30 7396 H 671.263 -0.904498 -7.74235 0
M  V30 7397 N 675.492 1.28418 -0.913599 0
M  V30 7398 C 676.738 1.9527 -0.547484 0
M  V30 7399 C 677.071 1.71745 0.906486 0
M  V30 7400 O 676.346 1.03834 1.64465 0
M  V30 7401 C 676.629 3.49748 -0.857205 0
M  V30 7402 C 676.482 3.82675 -2.3639 0
M  V30 7403 C 677.801 4.3868 -0.353258 0
M  V30 7404 H 674.92 0.709236 -0.200381 0
M  V30 7405 H 677.562 1.51789 -1.14281 0
M  V30 7406 H 675.712 3.86915 -0.350548 0
M  V30 7407 H 677.384 3.55378 -2.94116 0
M  V30 7408 H 675.627 3.29724 -2.81894 0
M  V30 7409 H 676.298 4.90547 -2.53115 0
M  V30 7410 H 678.774 4.08584 -0.787288 0
M  V30 7411 H 677.65 5.45621 -0.599049 0
M  V30 7412 H 677.911 4.35753 0.746413 0
M  V30 7413 N 676.97 0.677563 1.42291 0
M  V30 7414 C 677.902 -0.0380218 2.29168 0
M  V30 7415 C 678.915 -0.762714 1.43828 0
M  V30 7416 O 680.104 -0.616413 1.67519 0
M  V30 7417 C 677.204 -1.07761 3.21311 0
M  V30 7418 C 676.377 -0.42618 4.35319 0
M  V30 7419 C 675.436 -1.36592 5.08162 0
M  V30 7420 O 674.462 -0.865174 5.62586 0
M  V30 7421 N 675.664 -2.69909 5.13935 0
M  V30 7422 H 678.429 0.707766 2.91223 0
M  V30 7423 H 675.99 0.52219 1.53247 0
M  V30 7424 H 677.982 -1.70761 3.6691 0
M  V30 7425 H 676.552 -1.72511 2.60689 0
M  V30 7426 H 675.772 0.383385 3.92331 0
M  V30 7427 H 677.06 0.0275277 5.08793 0
M  V30 7428 H 676.458 -3.13129 4.71134 0
M  V30 7429 H 675.015 -3.2815 5.6317 0
M  V30 7430 N 678.448 -1.51871 0.421078 0
M  V30 7431 C 679.378 -2.30231 -0.389363 0
M  V30 7432 C 680.359 -1.34946 -1.03555 0
M  V30 7433 O 681.544 -1.63859 -1.04229 0
M  V30 7434 C 678.674 -3.13247 -1.49979 0
M  V30 7435 C 677.628 -4.16677 -0.977966 0
M  V30 7436 C 676.954 -4.88112 -2.1829 0
M  V30 7437 C 678.254 -5.22295 -0.0236775 0
M  V30 7438 H 679.948 -2.98229 0.264524 0
M  V30 7439 H 677.494 -1.43424 0.12866 0
M  V30 7440 H 679.447 -3.66838 -2.07383 0
M  V30 7441 H 678.171 -2.4304 -2.18173 0
M  V30 7442 H 676.83 -3.64114 -0.426245 0
M  V30 7443 H 676.478 -4.14423 -2.85066 0
M  V30 7444 H 676.178 -5.58041 -1.84021 0
M  V30 7445 H 677.702 -5.44521 -2.76278 0
M  V30 7446 H 679.116 -5.71055 -0.506899 0
M  V30 7447 H 677.513 -5.99656 0.230782 0
M  V30 7448 H 678.583 -4.76131 0.917999 0
M  V30 7449 N 679.926 -0.151884 -1.56866 0
M  V30 7450 C 680.856 0.781943 -2.20018 0
M  V30 7451 C 681.837 1.25347 -1.14987 0
M  V30 7452 O 683.022 1.31015 -1.43348 0
M  V30 7453 C 680.152 2.01928 -2.82564 0
M  V30 7454 C 679.106 1.68434 -3.93464 0
M  V30 7455 C 678.432 2.99472 -4.42968 0
M  V30 7456 C 679.732 0.927244 -5.14003 0
M  V30 7457 H 681.426 0.255607 -2.98307 0
M  V30 7458 H 678.972 0.121502 -1.43486 0
M  V30 7459 H 680.925 2.67741 -3.25411 0
M  V30 7460 H 679.649 2.56943 -2.01614 0
M  V30 7461 H 678.308 1.04998 -3.51242 0
M  V30 7462 H 677.956 3.52488 -3.58834 0
M  V30 7463 H 677.656 2.77823 -5.17772 0
M  V30 7464 H 679.18 3.66348 -4.88489 0
M  V30 7465 H 680.594 1.48756 -5.53665 0
M  V30 7466 H 678.991 0.810513 -5.94601 0
M  V30 7467 H 680.061 -0.0801163 -4.84834 0
M  V30 7468 N 681.404 1.57128 0.121893 0
M  V30 7469 C 682.634 1.88609 0.843227 0
M  V30 7470 C 683.042 0.740917 1.74089 0
M  V30 7471 O 682.385 -0.297426 1.81276 0
M  V30 7472 C 682.447 3.15073 1.73117 0
M  V30 7473 C 682.111 4.45742 1.0081 0
M  V30 7474 C 683.108 5.18719 0.350255 0
M  V30 7475 C 680.793 4.92444 0.99014 0
M  V30 7476 C 682.787 6.36617 -0.315889 0
M  V30 7477 C 680.474 6.10261 0.320196 0
M  V30 7478 C 681.472 6.82194 -0.331666 0
M  V30 7479 O 681.16 7.97769 -0.990927 0
M  V30 7480 H 680.892 0.628919 0.247865 0
M  V30 7481 H 683.446 2.05096 0.111725 0
M  V30 7482 H 681.676 2.9466 2.50424 0
M  V30 7483 H 683.365 3.32597 2.32667 0
M  V30 7484 H 684.131 4.83693 0.35577 0
M  V30 7485 H 680.01 4.36361 1.48695 0
M  V30 7486 H 683.554 6.92701 -0.825272 0
M  V30 7487 H 679.451 6.44743 0.312433 0
M  V30 7488 H 680.219 8.13591 -0.895113 0
M  V30 7489 N 682.882 -0.391992 1.52647 0
M  V30 7490 C 684.112 -1.15692 1.71169 0
M  V30 7491 C 684.52 -1.84285 0.428444 0
M  V30 7492 O 683.863 -1.73393 -0.606669 0
M  V30 7493 C 683.925 -2.25033 2.80357 0
M  V30 7494 C 683.589 -1.76433 4.21569 0
M  V30 7495 C 684.586 -1.2427 5.0483 0
M  V30 7496 C 682.271 -1.82746 4.67877 0
M  V30 7497 C 684.265 -0.790657 6.32477 0
M  V30 7498 C 681.952 -1.37153 5.9551 0
M  V30 7499 C 682.95 -0.853997 6.7764 0
M  V30 7500 O 682.638 -0.404708 8.02881 0
M  V30 7501 H 682.37 -0.35297 0.576531 0
M  V30 7502 H 684.924 -0.464994 2.00067 0
M  V30 7503 H 683.154 -2.97641 2.46874 0
M  V30 7504 H 684.843 -2.86718 2.87311 0
M  V30 7505 H 685.609 -1.18752 4.70237 0
M  V30 7506 H 681.488 -2.21971 4.04042 0
M  V30 7507 H 685.032 -0.386024 6.96531 0
M  V30 7508 H 680.929 -1.42356 6.29607 0
M  V30 7509 H 681.697 -0.526459 8.16805 0
M  V30 7510 N 684.36 -1.4356 -0.65026 0
M  V30 7511 C 685.606 -1.45549 -1.41221 0
M  V30 7512 C 685.939 -0.0805472 -1.94033 0
M  V30 7513 O 685.214 0.899043 -1.72475 0
M  V30 7514 C 685.497 -2.50028 -2.59148 0
M  V30 7515 C 685.35 -3.96808 -2.1181 0
M  V30 7516 C 686.669 -2.51212 -3.61359 0
M  V30 7517 H 683.788 -0.529967 -0.512156 0
M  V30 7518 H 686.43 -1.75127 -0.736933 0
M  V30 7519 H 684.58 -2.24937 -3.16758 0
M  V30 7520 H 686.252 -4.32966 -1.59178 0
M  V30 7521 H 684.495 -4.09498 -1.43156 0
M  V30 7522 H 685.166 -4.6553 -2.96625 0
M  V30 7523 H 687.642 -2.73583 -3.13515 0
M  V30 7524 H 686.518 -3.26252 -4.41419 0
M  V30 7525 H 686.779 -1.54701 -4.1415 0
M  V30 7526 N 685.838 0.888903 -1.30139 0
M  V30 7527 C 686.786 2.0156 -1.16088 0
M  V30 7528 C 687.78 1.69239 -0.0737413 0
M  V30 7529 O 688.986 1.78468 -0.234313 0
M  V30 7530 H 685.361 0.660825 -0.358907 0
M  V30 7531 H 687.332 2.10547 -2.11453 0
M  V30 7532 C 686.081 3.36758 -0.865426 0
M  V30 7533 H 685.404 3.62137 -1.69402 0
M  V30 7534 H 686.844 4.16246 -0.807192 0
M  V30 7535 C 685.303 3.34124 0.431577 0
M  V30 7536 O 685.833 3.7445 1.45431 0
M  V30 7537 N 684.039 2.87229 0.441321 0
M  V30 7538 H 683.586 2.54609 -0.391433 0
M  V30 7539 H 683.544 2.8585 1.30909 0
M  V30 7540 N 687.317 1.12792 1.10072 0
M  V30 7541 C 688.247 0.821688 2.18565 0
M  V30 7542 C 689.228 -0.21612 1.68721 0
M  V30 7543 O 690.413 -0.0764932 1.94049 0
M  V30 7544 C 687.543 0.279624 3.46172 0
M  V30 7545 C 686.497 1.25092 4.09312 0
M  V30 7546 C 685.823 0.568916 5.31665 0
M  V30 7547 C 687.123 2.60699 4.52585 0
M  V30 7548 H 688.817 1.72888 2.44438 0
M  V30 7549 H 686.363 0.832702 1.17482 0
M  V30 7550 H 688.316 0.053099 4.21367 0
M  V30 7551 H 687.04 -0.662929 3.19801 0
M  V30 7552 H 685.699 1.46332 3.36129 0
M  V30 7553 H 685.347 -0.378898 5.01571 0
M  V30 7554 H 685.047 1.21687 5.74862 0
M  V30 7555 H 686.571 0.351517 6.09587 0
M  V30 7556 H 687.985 2.43465 5.19035 0
M  V30 7557 H 686.382 3.21608 5.06644 0
M  V30 7558 H 687.452 3.1886 3.65317 0
M  V30 7559 N 688.795 -1.27931 0.920396 0
M  V30 7560 C 689.725 -2.29487 0.431024 0
M  V30 7561 C 690.706 -1.62435 -0.504861 0
M  V30 7562 O 691.891 -1.89797 -0.411176 0
M  V30 7563 C 689.021 -3.45788 -0.323709 0
M  V30 7564 C 687.975 -4.24784 0.523658 0
M  V30 7565 C 687.301 -5.33488 -0.359809 0
M  V30 7566 C 688.601 -4.90874 1.78437 0
M  V30 7567 H 690.295 -2.70671 1.27975 0
M  V30 7568 H 687.841 -1.30121 0.616813 0
M  V30 7569 H 689.794 -4.15927 -0.676952 0
M  V30 7570 H 688.518 -3.03502 -1.2064 0
M  V30 7571 H 687.177 -3.56382 0.85951 0
M  V30 7572 H 686.825 -4.87445 -1.24124 0
M  V30 7573 H 686.525 -5.87247 0.203605 0
M  V30 7574 H 688.049 -6.06472 -0.708787 0
M  V30 7575 H 689.463 -5.53339 1.49963 0
M  V30 7576 H 687.86 -5.54659 2.29071 0
M  V30 7577 H 688.93 -4.14988 2.50824 0
M  V30 7578 N 690.273 -0.685099 -1.4193 0
M  V30 7579 C 691.203 -0.0273506 -2.33484 0
M  V30 7580 C 692.184 0.778366 -1.51246 0
M  V30 7581 O 693.369 0.733449 -1.79817 0
M  V30 7582 C 690.499 0.917272 -3.34968 0
M  V30 7583 C 689.453 0.21941 -4.27437 0
M  V30 7584 C 688.779 1.27768 -5.1921 0
M  V30 7585 C 690.079 -0.907894 -5.14349 0
M  V30 7586 H 691.773 -0.791994 -2.88735 0
M  V30 7587 H 689.319 -0.382308 -1.38832 0
M  V30 7588 H 691.272 1.38657 -3.97935 0
M  V30 7589 H 689.996 1.71346 -2.78043 0
M  V30 7590 H 688.655 -0.229757 -3.65879 0
M  V30 7591 H 688.303 2.06612 -4.58607 0
M  V30 7592 H 688.003 0.815803 -5.81909 0
M  V30 7593 H 689.527 1.7477 -5.85054 0
M  V30 7594 H 690.941 -0.519348 -5.70943 0
M  V30 7595 H 689.338 -1.2962 -5.85934 0
M  V30 7596 H 690.408 -1.75218 -4.52136 0
M  V30 7597 N 691.751 1.51645 -0.429126 0
M  V30 7598 C 693 2.01203 0.141538 0
M  V30 7599 C 693.313 1.31828 1.44502 0
M  V30 7600 O 694.519 1.7231 2.09813 0
M  V30 7601 C 692.975 3.58624 0.302786 0
M  V30 7602 C 692.583 4.3693 -0.989775 0
M  V30 7603 C 694.327 4.16353 0.827661 0
M  V30 7604 C 692.234 5.86037 -0.794619 0
M  V30 7605 H 691.164 0.751867 0.05667 0
M  V30 7606 H 693.815 1.74822 -0.557633 0
M  V30 7607 H 692.197 3.81417 1.06476 0
M  V30 7608 H 693.371 4.25887 -1.75945 0
M  V30 7609 H 691.686 3.90614 -1.44256 0
M  V30 7610 H 694.283 5.25455 0.990026 0
M  V30 7611 H 694.626 3.74995 1.80787 0
M  V30 7612 H 695.159 3.97606 0.124213 0
M  V30 7613 H 691.898 6.31792 -1.74697 0
M  V30 7614 H 691.418 5.99765 -0.0645968 0
M  V30 7615 H 693.097 6.45471 -0.444591 0
M  V30 7616 N 693.229 0.160201 1.56784 0
M  V30 7617 C 694.506 -0.533355 1.88188 0
M  V30 7618 C 694.886 -1.82072 1.06831 0
M  V30 7619 O 694.234 -2.27946 0.158959 0
M  V30 7620 C 694.444 -0.786034 3.40033 0
M  V30 7621 C 695.792 -1.12097 4.09536 0
M  V30 7622 O 696.816 -0.874949 3.45287 0
M  V30 7623 O 695.675 -1.58457 5.23023 0
M  V30 7624 H 692.769 -0.273589 0.780434 0
M  V30 7625 H 695.315 0.197803 1.68543 0
M  V30 7626 H 694.087 0.124515 3.91102 0
M  V30 7627 H 693.71 -1.57091 3.65251 0
M  V30 7628 N 694.707 -1.5719 -0.113559 0
M  V30 7629 C 695.657 -1.97166 -1.14497 0
M  V30 7630 C 696.641 -0.847413 -1.36776 0
M  V30 7631 O 697.833 -1.11114 -1.37777 0
M  V30 7632 C 694.962 -2.38411 -2.47013 0
M  V30 7633 C 694.048 -3.5748 -2.28185 0
M  V30 7634 N 694.439 -4.72998 -1.79182 0
M  V30 7635 C 692.737 -3.63218 -2.58821 0
M  V30 7636 C 693.438 -5.55007 -1.74191 0
M  V30 7637 N 692.414 -4.9765 -2.18735 0
M  V30 7638 H 696.216 -2.83937 -0.758733 0
M  V30 7639 H 693.73 -1.59191 -0.321234 0
M  V30 7640 H 695.727 -2.65269 -3.21618 0
M  V30 7641 H 694.387 -1.53007 -2.8639 0
M  V30 7642 H 695.398 -4.96109 -1.48649 0
M  V30 7643 H 692.075 -2.88434 -3.01847 0
M  V30 7644 H 693.465 -6.57678 -1.37512 0
M  V30 7645 N 696.185 0.383891 -1.52853 0
M  V30 7646 C 697.601 0.724316 -1.42218 0
M  V30 7647 C 697.801 1.93943 -0.546654 0
M  V30 7648 O 696.857 2.5249 -0.0220562 0
M  V30 7649 C 698.17 0.954635 -2.85144 0
M  V30 7650 C 699.718 1.05579 -2.94656 0
M  V30 7651 C 700.193 1.3187 -4.38605 0
M  V30 7652 N 701.684 1.38681 -4.41952 0
M  V30 7653 C 702.419 1.60699 -5.50421 0
M  V30 7654 N 701.915 1.80154 -6.68967 0
M  V30 7655 N 703.708 1.6292 -5.37972 0
M  V30 7656 H 695.859 -0.4156 -2.08294 0
M  V30 7657 H 698.122 -0.123776 -0.939885 0
M  V30 7658 H 697.828 0.133829 -3.51445 0
M  V30 7659 H 697.702 1.86788 -3.27704 0
M  V30 7660 H 700.089 1.86716 -2.2852 0
M  V30 7661 H 700.17 0.120338 -2.55517 0
M  V30 7662 H 699.814 0.512416 -5.05309 0
M  V30 7663 H 699.744 2.26708 -4.75301 0
M  V30 7664 H 702.235 1.25334 -3.56511 0
M  V30 7665 H 702.548 1.96476 -7.47407 0
M  V30 7666 H 700.893 1.77368 -6.71986 0
M  V30 7667 H 704.084 1.47276 -4.44328 0
M  V30 7668 H 704.257 1.79739 -6.22574 0
M  V30 7669 N 697.663 1.43903 0.642637 0
M  V30 7670 C 698.91 1.46079 1.40239 0
M  V30 7671 C 699.238 0.0890335 1.94296 0
M  V30 7672 O 698.493 -0.907533 1.73385 0
M  V30 7673 C 698.792 2.45907 2.59354 0
M  V30 7674 C 698.458 3.91522 2.23654 0
M  V30 7675 C 697.12 4.31179 2.1363 0
M  V30 7676 C 699.472 4.83242 1.95261 0
M  V30 7677 C 696.8 5.60495 1.73384 0
M  V30 7678 C 699.152 6.12933 1.56511 0
M  V30 7679 C 697.816 6.51556 1.4502 0
M  V30 7680 H 697.086 0.534542 0.513172 0
M  V30 7681 H 699.733 1.77047 0.72984 0
M  V30 7682 H 698.038 2.08381 3.3179 0
M  V30 7683 H 699.735 2.44842 3.17574 0
M  V30 7684 H 696.325 3.60142 2.32369 0
M  V30 7685 H 700.509 4.53367 2.0192 0
M  V30 7686 H 695.765 5.89249 1.63082 0
M  V30 7687 H 699.939 6.83469 1.33576 0
M  V30 7688 H 697.566 7.51663 1.13606 0
M  V30 7689 N 699.141 -0.881989 1.30609 0
M  V30 7690 C 700.071 -2.00413 1.1982 0
M  V30 7691 C 701.052 -1.69871 0.0881538 0
M  V30 7692 O 702.237 -1.92304 0.2707 0
M  V30 7693 C 699.367 -3.35641 0.89233 0
M  V30 7694 C 698.321 -3.80451 1.96064 0
M  V30 7695 C 697.647 -5.13003 1.5077 0
M  V30 7696 C 698.947 -3.98855 3.37213 0
M  V30 7697 H 700.641 -2.09698 2.13699 0
M  V30 7698 H 698.187 -1.00754 1.02882 0
M  V30 7699 H 700.14 -4.13669 0.803497 0
M  V30 7700 H 698.864 -3.26497 -0.0821381 0
M  V30 7701 H 697.523 -3.04654 2.03916 0
M  V30 7702 H 697.171 -5.0029 0.521417 0
M  V30 7703 H 696.871 -5.43956 2.22229 0
M  V30 7704 H 698.395 -5.93554 1.43271 0
M  V30 7705 H 699.809 -4.67312 3.32103 0
M  V30 7706 H 698.206 -4.41188 4.06784 0
M  V30 7707 H 699.276 -3.02614 3.78883 0
M  V30 7708 N 700.619 -1.13374 -1.09472 0
M  V30 7709 C 701.549 -0.833268 -2.18126 0
M  V30 7710 C 702.53 0.207169 -1.68834 0
M  V30 7711 O 703.715 0.0662012 -1.94087 0
M  V30 7712 C 700.845 -0.297979 -3.46019 0
M  V30 7713 C 699.799 -1.27261 -4.08642 0
M  V30 7714 C 699.125 -0.597104 -5.31356 0
M  V30 7715 C 700.425 -2.63095 -4.51197 0
M  V30 7716 H 702.119 -1.74182 -2.43518 0
M  V30 7717 H 699.665 -0.838921 -1.17039 0
M  V30 7718 H 701.618 -0.0754444 -4.21332 0
M  V30 7719 H 700.342 0.645959 -3.20148 0
M  V30 7720 H 699.001 -1.48113 -3.35348 0
M  V30 7721 H 698.649 0.352293 -5.01765 0
M  V30 7722 H 698.349 -1.24734 -5.74208 0
M  V30 7723 H 699.873 -0.38384 -6.09392 0
M  V30 7724 H 701.287 -2.46214 -5.17737 0
M  V30 7725 H 699.684 -3.2429 -5.04932 0
M  V30 7726 H 700.754 -3.20793 -3.6362 0
M  V30 7727 N 702.098 1.27442 -0.927168 0
M  V30 7728 C 703.514 1.46754 -0.627329 0
M  V30 7729 C 703.714 1.83902 0.823549 0
M  V30 7730 O 702.77 1.95215 1.60148 0
M  V30 7731 C 704.083 2.56045 -1.57674 0
M  V30 7732 C 705.631 2.69906 -1.58491 0
M  V30 7733 C 706.106 3.82355 -2.52128 0
M  V30 7734 N 707.597 3.89728 -2.50332 0
M  V30 7735 C 708.332 4.76155 -3.19475 0
M  V30 7736 N 707.828 5.67073 -3.97995 0
M  V30 7737 N 709.621 4.6988 -3.08496 0
M  V30 7738 H 701.772 1.01613 -1.86517 0
M  V30 7739 H 704.035 0.507443 -0.800753 0
M  V30 7740 H 703.741 2.35542 -2.61176 0
M  V30 7741 H 703.615 3.53423 -1.31804 0
M  V30 7742 H 706.002 2.89792 -0.557208 0
M  V30 7743 H 706.083 1.73018 -1.8841 0
M  V30 7744 H 705.727 3.63224 -3.55008 0
M  V30 7745 H 705.657 4.7867 -2.19505 0
M  V30 7746 H 708.148 3.24717 -1.93306 0
M  V30 7747 H 708.461 6.2988 -4.4774 0
M  V30 7748 H 706.806 5.6687 -4.02098 0
M  V30 7749 H 709.997 3.97848 -2.46646 0
M  V30 7750 H 710.17 5.37017 -3.62652 0
M  V30 7751 N 703.576 0.692616 1.41565 0
M  V30 7752 C 704.992 0.363878 1.55397 0
M  V30 7753 C 705.192 -1.1294 1.66874 0
M  V30 7754 O 704.248 -1.91517 1.64552 0
M  V30 7755 C 705.561 1.10982 2.7947 0
M  V30 7756 C 707.109 1.09387 2.93263 0
M  V30 7757 C 707.584 1.8215 4.20221 0
M  V30 7758 N 709.075 1.79105 4.27172 0
M  V30 7759 C 709.81 2.32247 5.2426 0
M  V30 7760 N 709.306 2.93847 6.27396 0
M  V30 7761 N 711.099 2.22519 5.1618 0
M  V30 7762 H 703.25 1.66116 1.3236 0
M  V30 7763 H 705.513 0.700848 0.63837 0
M  V30 7764 H 705.219 2.1647 2.77188 0
M  V30 7765 H 705.093 0.686492 3.709 0
M  V30 7766 H 707.48 0.0472638 2.95062 0
M  V30 7767 H 707.561 1.55623 2.03015 0
M  V30 7768 H 707.205 2.86789 4.19183 0
M  V30 7769 H 707.135 1.33351 5.09436 0
M  V30 7770 H 709.626 1.34191 3.53272 0
M  V30 7771 H 709.939 3.31972 6.97864 0
M  V30 7772 H 708.284 2.97924 6.27906 0
M  V30 7773 H 711.475 1.7407 4.34531 0
M  V30 7774 H 711.648 2.64239 5.91677 0
M  V30 7775 N 705.054 -1.51416 0.437162 0
M  V30 7776 C 706.302 -2.01687 -0.129108 0
M  V30 7777 C 706.623 -1.32329 -1.43227 0
M  V30 7778 O 705.893 -0.457796 -1.90476 0
M  V30 7779 H 704.473 -0.745277 -0.0507023 0
M  V30 7780 H 707.135 -1.86075 0.579828 0
M  V30 7781 H 706.231 -3.10605 -0.305141 0
M  V30 7782 N 706.532 -0.168513 -1.56696 0
M  V30 7783 C 707.442 0.775435 -2.21414 0
M  V30 7784 C 708.458 1.25529 -1.20492 0
M  V30 7785 O 709.634 1.30801 -1.53144 0
M  V30 7786 C 706.699 1.9886 -2.83999 0
M  V30 7787 C 705.76 1.5559 -4.00113 0
M  V30 7788 C 704.993 2.71124 -4.59704 0
M  V30 7789 O 705.216 3.87917 -4.18182 0
M  V30 7790 O 704.15 2.4536 -5.4962 0
M  V30 7791 H 707.976 0.254416 -3.02632 0
M  V30 7792 H 705.561 0.0595507 -1.49281 0
M  V30 7793 H 707.443 2.69816 -3.23693 0
M  V30 7794 H 706.118 2.49874 -2.05779 0
M  V30 7795 H 705.025 0.815924 -3.65094 0
M  V30 7796 H 706.358 1.09271 -4.79917 0
M  V30 7797 N 708.01 1.57248 0.105221 0
M  V30 7798 C 709.24 1.89492 0.823175 0
M  V30 7799 C 709.648 0.75934 1.73294 0
M  V30 7800 O 708.991 -0.278182 1.81581 0
M  V30 7801 C 709.053 3.16891 1.69765 0
M  V30 7802 C 708.717 4.46787 0.960769 0
M  V30 7803 C 709.714 5.19061 0.295218 0
M  V30 7804 C 707.399 4.93467 0.937854 0
M  V30 7805 C 709.393 6.36246 -0.383393 0
M  V30 7806 C 707.08 6.10566 0.255452 0
M  V30 7807 C 708.078 6.81804 -0.404003 0
M  V30 7808 O 707.766 7.96673 -1.07549 0
M  V30 7809 H 707.498 0.631512 0.24118 0
M  V30 7810 H 710.052 2.05203 0.0899655 0
M  V30 7811 H 708.282 2.973 2.47285 0
M  V30 7812 H 709.971 3.35046 2.29126 0
M  V30 7813 H 710.737 4.84044 0.304448 0
M  V30 7814 H 706.616 4.37913 1.44058 0
M  V30 7815 H 710.16 6.91787 -0.898696 0
M  V30 7816 H 706.057 6.45039 0.244032 0
M  V30 7817 H 706.825 8.12596 -0.981355 0
M  V30 7818 N 709.488 -0.375779 1.53054 0
M  V30 7819 C 710.734 -1.12114 1.68992 0
M  V30 7820 C 711.067 -1.8926 0.435238 0
M  V30 7821 O 710.342 -1.86044 -0.567278 0
M  V30 7822 C 710.625 -2.08867 2.93337 0
M  V30 7823 C 710.478 -1.35397 4.28938 0
M  V30 7824 C 711.797 -3.09124 3.13257 0
M  V30 7825 H 708.916 -0.406207 0.614951 0
M  V30 7826 H 711.558 -0.403054 1.85676 0
M  V30 7827 H 709.708 -2.70102 2.79244 0
M  V30 7828 H 711.38 -0.770242 4.54824 0
M  V30 7829 H 709.623 -0.655801 4.28814 0
M  V30 7830 H 710.294 -2.06161 5.12056 0
M  V30 7831 H 712.77 -2.57987 3.26469 0
M  V30 7832 H 711.646 -3.74054 4.01715 0
M  V30 7833 H 711.907 -3.78729 2.28072 0
M  V30 7834 N 710.966 -1.44241 -0.634997 0
M  V30 7835 C 711.896 -1.53632 -1.7584 0
M  V30 7836 C 712.877 -0.389603 -1.65578 0
M  V30 7837 O 714.062 -0.609219 -1.84397 0
M  V30 7838 C 711.192 -1.47644 -3.14354 0
M  V30 7839 C 710.146 -2.60752 -3.394 0
M  V30 7840 C 709.472 -2.39817 -4.77904 0
M  V30 7841 C 710.772 -4.02921 -3.32343 0
M  V30 7842 H 712.466 -2.47662 -1.68238 0
M  V30 7843 H 710.012 -1.19197 -0.807969 0
M  V30 7844 H 711.965 -1.52815 -3.92716 0
M  V30 7845 H 710.689 -0.501284 -3.2273 0
M  V30 7846 H 709.348 -2.54965 -2.63417 0
M  V30 7847 H 708.996 -1.40502 -4.82978 0
M  V30 7848 H 708.696 -3.15649 -4.9562 0
M  V30 7849 H 710.22 -2.46799 -5.585 0
M  V30 7850 H 711.634 -4.10098 -4.00615 0
M  V30 7851 H 710.031 -4.78925 -3.61595 0
M  V30 7852 H 711.101 -4.26766 -2.30215 0
M  V30 7853 N 712.444 0.87505 -1.31075 0
M  V30 7854 C 713.394 1.96933 -1.14898 0
M  V30 7855 C 714.378 1.60783 -0.0613703 0
M  V30 7856 O 715.57 1.74678 -0.285751 0
M  V30 7857 C 712.699 3.3253 -0.853166 0
M  V30 7858 C 711.785 3.74963 -1.98151 0
M  V30 7859 N 712.176 3.89403 -3.22799 0
M  V30 7860 C 710.474 4.04436 -1.8801 0
M  V30 7861 C 711.175 4.25563 -3.96574 0
M  V30 7862 N 710.151 4.3597 -3.24701 0
M  V30 7863 H 713.953 2.06201 -2.09424 0
M  V30 7864 H 711.467 1.06551 -1.22558 0
M  V30 7865 H 713.464 4.10666 -0.718266 0
M  V30 7866 H 712.124 3.24592 0.0839218 0
M  V30 7867 H 713.135 3.74266 -3.57974 0
M  V30 7868 H 709.812 4.04915 -1.01733 0
M  V30 7869 H 711.202 4.44375 -5.03965 0
M  V30 7870 N 713.922 1.13953 1.08869 0
M  V30 7871 C 714.855 0.765765 2.14968 0
M  V30 7872 C 715.833 -0.250689 1.60656 0
M  V30 7873 O 717.017 -0.140852 1.87973 0
M  V30 7874 C 714.144 0.136146 3.38426 0
M  V30 7875 C 713.19 1.12201 4.11477 0
M  V30 7876 S 714.023 2.65711 4.64928 0
M  V30 7877 C 715.179 2.04125 5.91679 0
M  V30 7878 H 715.412 1.66444 2.46341 0
M  V30 7879 H 712.945 0.960263 1.20906 0
M  V30 7880 H 714.903 -0.220712 4.09906 0
M  V30 7881 H 713.564 -0.739887 3.05261 0
M  V30 7882 H 712.757 0.629398 5.00055 0
M  V30 7883 H 712.359 1.42262 3.45886 0
M  V30 7884 H 714.651 1.39381 6.63008 0
M  V30 7885 H 715.594 2.90808 6.45629 0
M  V30 7886 H 716.002 1.4905 5.44467 0
M  V30 7887 N 715.4 -1.26948 0.933913 0
M  V30 7888 C 716.646 -1.94716 0.587985 0
M  V30 7889 C 717.001 -1.71994 -0.862312 0
M  V30 7890 O 716.294 -1.04208 -1.60783 0
M  V30 7891 C 716.488 -3.46963 0.857406 0
M  V30 7892 C 716.317 -3.84489 2.33234 0
M  V30 7893 C 715.087 -4.07621 2.98618 0
M  V30 7894 C 717.285 -3.93602 3.31031 0
M  V30 7895 N 715.267 -4.31976 4.362 0
M  V30 7896 C 716.638 -4.22404 4.53845 0
M  V30 7897 C 718.693 -3.76201 3.26155 0
M  V30 7898 C 717.396 -4.35615 5.72391 0
M  V30 7899 C 719.422 -3.90641 4.4402 0
M  V30 7900 C 718.784 -4.19835 5.65613 0
M  V30 7901 H 714.883 -0.735586 0.2654 0
M  V30 7902 H 717.467 -1.53181 1.20182 0
M  V30 7903 H 715.638 -3.87442 0.27268 0
M  V30 7904 H 717.37 -4.01921 0.47348 0
M  V30 7905 H 714.125 -4.02696 2.49264 0
M  V30 7906 H 714.549 -4.48199 5.07392 0
M  V30 7907 H 719.191 -3.52665 2.3321 0
M  V30 7908 H 716.909 -4.57975 6.65796 0
M  V30 7909 H 720.495 -3.78589 4.41771 0
M  V30 7910 H 719.375 -4.30765 6.55295 0
M  V30 7911 N 716.879 -0.700114 -1.41195 0
M  V30 7912 C 717.811 0.00155823 -2.292 0
M  V30 7913 C 718.824 0.739736 -1.45023 0
M  V30 7914 O 720.013 0.589684 -1.68478 0
M  V30 7915 C 717.113 1.02635 -3.22985 0
M  V30 7916 C 716.286 0.356871 -4.35942 0
M  V30 7917 C 715.345 1.28491 -5.10271 0
M  V30 7918 O 714.371 0.775562 -5.63892 0
M  V30 7919 N 715.573 2.61699 -5.18164 0
M  V30 7920 H 718.338 -0.754008 -2.9006 0
M  V30 7921 H 715.899 -0.546504 -1.52397 0
M  V30 7922 H 717.891 1.64902 -3.6958 0
M  V30 7923 H 716.461 1.68341 -2.63401 0
M  V30 7924 H 715.681 -0.445753 -3.91672 0
M  V30 7925 H 716.969 -0.108469 -5.08684 0
M  V30 7926 H 716.367 3.05594 -4.76056 0
M  V30 7927 H 714.924 3.19149 -5.6832 0
M  V30 7928 N 718.357 1.51182 -0.445186 0
M  V30 7929 C 719.606 2.01342 0.120189 0
M  V30 7930 C 719.919 1.33353 1.43095 0
M  V30 7931 O 721.125 1.74525 2.07974 0
M  V30 7932 C 719.581 3.58925 0.264732 0
M  V30 7933 C 719.189 4.35855 -1.03606 0
M  V30 7934 C 720.933 4.17208 0.783455 0
M  V30 7935 C 718.84 5.85162 -0.856731 0
M  V30 7936 H 717.77 0.752426 0.0486922 0
M  V30 7937 H 720.421 1.74221 -0.576143 0
M  V30 7938 H 718.803 3.82525 1.02425 0
M  V30 7939 H 719.977 4.23997 -1.80452 0
M  V30 7940 H 718.292 3.89062 -1.48391 0
M  V30 7941 H 720.889 5.26475 0.934239 0
M  V30 7942 H 721.232 3.76892 1.768 0
M  V30 7943 H 721.765 3.97715 0.0820346 0
M  V30 7944 H 718.504 6.29904 -1.81388 0
M  V30 7945 H 718.024 5.99663 -0.128206 0
M  V30 7946 H 719.703 6.44963 -0.513027 0
M  V30 7947 N 719.835 0.176821 1.56605 0
M  V30 7948 C 721.06 -0.47599 2.01864 0
M  V30 7949 C 721.485 -1.55645 1.05623 0
M  V30 7950 O 720.843 -1.81263 0.0366729 0
M  V30 7951 C 720.891 -1.02619 3.4569 0
M  V30 7952 O 719.995 -2.13996 3.52533 0
M  V30 7953 H 719.336 -0.113363 0.654251 0
M  V30 7954 H 721.866 0.28233 2.02643 0
M  V30 7955 H 721.876 -1.34742 3.85109 0
M  V30 7956 H 720.551 -0.235138 4.15235 0
M  V30 7957 H 719.128 -1.82876 3.24978 0
M  V30 7958 N 721.313 -1.57302 -0.09688 0
M  V30 7959 C 722.561 -1.8563 -0.799117 0
M  V30 7960 C 722.882 -0.765263 -1.79356 0
M  V30 7961 O 722.152 0.208657 -1.94786 0
M  V30 7962 H 720.732 -0.684937 -0.298111 0
M  V30 7963 H 723.394 -1.9474 -0.0789341 0
M  V30 7964 H 722.49 -2.82305 -1.3308 0
M  V30 7965 N 722.791 0.367657 -1.53252 0
M  V30 7966 C 723.738 1.45028 -1.79543 0
M  V30 7967 C 724.708 1.53288 -0.63969 0
M  V30 7968 O 725.893 1.69209 -0.881653 0
M  V30 7969 C 723.033 2.82 -1.98923 0
M  V30 7970 C 722.146 2.82722 -3.26638 0
M  V30 7971 C 721.281 4.11257 -3.36216 0
M  V30 7972 C 720.32 4.06113 -4.57972 0
M  V30 7973 N 719.457 5.26293 -4.64715 0
M  V30 7974 H 724.297 1.21908 -2.71923 0
M  V30 7975 H 721.834 0.591011 -1.34705 0
M  V30 7976 H 723.792 3.61568 -2.08146 0
M  V30 7977 H 722.422 3.03523 -1.09881 0
M  V30 7978 H 721.474 1.95399 -3.26379 0
M  V30 7979 H 722.786 2.74794 -4.16281 0
M  V30 7980 H 721.94 4.99239 -3.44739 0
M  V30 7981 H 720.679 4.21935 -2.44586 0
M  V30 7982 H 719.684 3.16517 -4.49552 0
M  V30 7983 H 720.909 3.97039 -5.50942 0
M  V30 7984 H 718.855 5.37561 -3.75985 0
M  V30 7985 H 718.772 5.20526 -5.4826 0
M  V30 7986 H 720.04 6.16113 -4.77519 0
M  V30 7987 N 724.269 1.44576 0.627338 0
M  V30 7988 C 725.517 1.47267 1.38408 0
M  V30 7989 C 725.838 0.107971 1.94701 0
M  V30 7990 O 725.108 -0.860206 1.76004 0
M  V30 7991 H 723.688 0.542276 0.513756 0
M  V30 7992 H 726.35 1.80383 0.738099 0
M  V30 7993 H 725.446 2.20025 2.21349 0
M  V30 7994 N 725.747 -0.868086 1.31537 0
M  V30 7995 C 726.657 -2.00801 1.21311 0
M  V30 7996 C 727.673 -1.73518 0.129431 0
M  V30 7997 O 728.849 -1.98378 0.347588 0
M  V30 7998 C 725.914 -3.3419 0.922935 0
M  V30 7999 C 724.975 -3.74783 2.0937 0
M  V30 8000 C 724.208 -5.01807 1.81728 0
M  V30 8001 O 724.431 -5.65404 0.753313 0
M  V30 8002 O 723.365 -5.39213 2.67457 0
M  V30 8003 H 727.191 -2.12361 2.17109 0
M  V30 8004 H 724.776 -0.996684 1.11295 0
M  V30 8005 H 726.658 -4.14174 0.777033 0
M  V30 8006 H 725.333 -3.237 -0.00500301 0
M  V30 8007 H 724.24 -2.95432 2.29501 0
M  V30 8008 H 725.573 -3.89902 3.00396 0
M  V30 8009 N 727.225 -1.14528 -1.08264 0
M  V30 8010 C 728.502 -0.825185 -1.77342 0
M  V30 8011 C 728.882 0.681037 -1.99813 0
M  V30 8012 O 728.23 1.62234 -1.60912 0
M  V30 8013 C 728.44 -1.62556 -3.08831 0
M  V30 8014 C 729.788 -1.82585 -3.83338 0
M  V30 8015 O 730.812 -1.59254 -3.18617 0
M  V30 8016 O 729.671 -2.21598 -4.99556 0
M  V30 8017 H 726.765 -0.302531 -0.769678 0
M  V30 8018 H 729.311 -1.25056 -1.14713 0
M  V30 8019 H 728.083 -2.64862 -2.88035 0
M  V30 8020 H 727.706 -1.1959 -3.79189 0
M  V30 8021 N 728.703 1.26451 -0.940633 0
M  V30 8022 C 729.635 2.25556 -0.407104 0
M  V30 8023 C 730.648 1.55888 0.469324 0
M  V30 8024 O 731.837 1.76292 0.279858 0
M  V30 8025 C 728.937 3.36109 0.434064 0
M  V30 8026 C 728.11 4.3532 -0.426082 0
M  V30 8027 C 727.169 5.25004 0.354563 0
M  V30 8028 O 726.195 5.68684 -0.242219 0
M  V30 8029 N 727.397 5.5652 1.65123 0
M  V30 8030 H 730.162 2.7197 -1.25907 0
M  V30 8031 H 727.723 1.40212 -0.809456 0
M  V30 8032 H 729.715 3.93059 0.963684 0
M  V30 8033 H 728.285 2.89194 1.18683 0
M  V30 8034 H 727.505 3.77449 -1.13692 0
M  V30 8035 H 728.793 4.986 -1.01366 0
M  V30 8036 H 728.191 5.22912 2.15822 0
M  V30 8037 H 726.748 6.16115 2.12711 0
M  V30 8038 N 730.181 0.707592 1.40822 0
M  V30 8039 C 731.429 0.243189 2.00632 0
M  V30 8040 C 731.75 -1.16512 1.56365 0
M  V30 8041 O 731.02 -1.78841 0.799553 0
M  V30 8042 H 729.6 0.0869203 0.741926 0
M  V30 8043 H 732.262 0.911438 1.72275 0
M  V30 8044 H 731.358 0.270014 3.1093 0
M  V30 8045 N 731.66 -1.50943 0.453197 0
M  V30 8046 C 732.885 -2.07116 -0.108463 0
M  V30 8047 C 733.31 -1.31681 -1.3432 0
M  V30 8048 O 732.668 -0.359256 -1.77705 0
M  V30 8049 C 732.716 -3.58447 -0.393424 0
M  V30 8050 O 731.82 -3.85038 -1.47714 0
M  V30 8051 H 731.161 -0.66398 0.0050993 0
M  V30 8052 H 733.691 -1.94362 0.639095 0
M  V30 8053 H 733.701 -4.02961 -0.639222 0
M  V30 8054 H 732.376 -4.12774 0.508946 0
M  V30 8055 H 730.953 -3.52376 -1.22006 0
M  V30 8056 N 733.138 -0.185124 -1.56509 0
M  V30 8057 C 734.385 0.456258 -1.97293 0
M  V30 8058 C 734.713 1.62314 -1.07165 0
M  V30 8059 O 733.968 1.95398 -0.108621 0
M  V30 8060 C 734.267 0.967977 -3.44042 0
M  V30 8061 C 733.933 -0.084476 -4.50821 0
M  V30 8062 C 732.595 -0.373689 -4.79747 0
M  V30 8063 C 734.947 -0.79812 -5.15053 0
M  V30 8064 C 732.275 -1.3817 -5.70198 0
M  V30 8065 C 734.627 -1.79521 -6.06593 0
M  V30 8066 C 733.291 -2.09172 -6.3388 0
M  V30 8067 H 732.561 0.166957 -0.721946 0
M  V30 8068 H 735.208 -0.279992 -1.89442 0
M  V30 8069 H 733.513 1.78231 -3.48914 0
M  V30 8070 H 735.21 1.47347 -3.72948 0
M  V30 8071 H 731.8 0.15111 -4.28334 0
M  V30 8072 H 735.984 -0.587903 -4.92806 0
M  V30 8073 H 731.24 -1.61745 -5.89617 0
M  V30 8074 H 735.414 -2.35347 -6.55427 0
M  V30 8075 H 733.041 -2.87427 -7.03768 0
M  V30 8076 N 734.616 1.57351 0.0885366 0
M  V30 8077 C 735.564 2.03542 1.12576 0
M  V30 8078 C 736.558 0.937668 1.41082 0
M  V30 8079 O 737.764 1.12283 1.40686 0
M  V30 8080 H 734.139 0.648752 0.380296 0
M  V30 8081 H 736.11 2.89833 0.709906 0
M  V30 8082 C 734.859 2.4811 2.43591 0
M  V30 8083 H 734.182 3.32164 2.22502 0
M  V30 8084 H 735.622 2.842 3.14653 0
M  V30 8085 C 734.081 1.35708 3.08359 0
M  V30 8086 O 734.611 0.689852 3.95732 0
M  V30 8087 N 732.817 1.10641 2.68713 0
M  V30 8088 H 732.364 1.6508 1.97753 0
M  V30 8089 H 732.322 0.356355 3.12374 0
M  V30 8090 N 736.094 -0.359525 1.53444 0
M  V30 8091 C 737.057 -1.42357 1.7963 0
M  V30 8092 C 738.057 -1.46319 0.666884 0
M  V30 8093 O 739.247 -1.46974 0.935113 0
M  V30 8094 C 736.379 -2.81425 1.92387 0
M  V30 8095 H 737.572 -1.20409 2.74666 0
M  V30 8096 H 735.125 -0.593007 1.44614 0
M  V30 8097 H 735.86 -3.08679 0.994384 0
M  V30 8098 H 735.645 -2.79947 2.74539 0
M  V30 8099 H 737.135 -3.5847 2.14218 0
M  V30 8100 N 737.572 -1.44907 -0.619662 0
M  V30 8101 C 738.849 -1.38766 -1.37852 0
M  V30 8102 C 739.229 -0.0521393 -2.11036 0
M  V30 8103 O 738.577 0.965613 -2.07095 0
M  V30 8104 C 738.787 -2.59344 -2.33541 0
M  V30 8105 C 740.135 -3.03909 -2.96521 0
M  V30 8106 O 741.159 -2.59631 -2.43865 0
M  V30 8107 O 740.018 -3.80713 -3.92071 0
M  V30 8108 H 737.112 -0.550083 -0.617525 0
M  V30 8109 H 739.658 -1.57015 -0.643759 0
M  V30 8110 H 738.43 -3.48142 -1.78642 0
M  V30 8111 H 738.053 -2.43367 -3.14417 0
M  V30 8112 N 739.05 0.861098 -1.31996 0
M  V30 8113 C 739.997 1.96912 -1.20392 0
M  V30 8114 C 740.967 1.65869 -0.0875899 0
M  V30 8115 O 742.152 1.88992 -0.262011 0
M  V30 8116 C 739.292 3.32435 -0.926335 0
M  V30 8117 C 738.405 3.76018 -2.12684 0
M  V30 8118 C 737.54 5.00301 -1.78529 0
M  V30 8119 C 736.579 5.36357 -2.94937 0
M  V30 8120 N 735.716 6.51818 -2.60917 0
M  V30 8121 H 740.556 2.06169 -2.1517 0
M  V30 8122 H 738.093 1.00917 -1.07024 0
M  V30 8123 H 740.051 4.10478 -0.745917 0
M  V30 8124 H 738.681 3.22796 -0.0153578 0
M  V30 8125 H 737.733 2.93683 -2.41774 0
M  V30 8126 H 739.045 3.98664 -2.99781 0
M  V30 8127 H 738.199 5.86034 -1.57001 0
M  V30 8128 H 736.938 4.79578 -0.886356 0
M  V30 8129 H 735.943 4.49139 -3.17103 0
M  V30 8130 H 737.168 5.59041 -3.85552 0
M  V30 8131 H 735.114 6.32624 -1.73558 0
M  V30 8132 H 735.031 6.7445 -3.41544 0
M  V30 8133 H 736.299 7.4072 -2.42804 0
M  V30 8134 N 740.528 1.15101 1.07655 0
M  V30 8135 C 741.458 0.867864 2.16773 0
M  V30 8136 C 742.439 -0.180283 1.69142 0
M  V30 8137 O 743.624 -0.0353152 1.94168 0
M  V30 8138 C 740.754 0.35299 3.45501 0
M  V30 8139 C 739.708 1.33746 4.06566 0
M  V30 8140 C 739.034 0.681562 5.30338 0
M  V30 8141 C 740.334 2.7024 4.46954 0
M  V30 8142 H 742.028 1.78034 2.40716 0
M  V30 8143 H 739.574 0.857435 1.15689 0
M  V30 8144 H 741.527 0.142465 4.21159 0
M  V30 8145 H 740.251 -0.594945 3.21135 0
M  V30 8146 H 738.91 1.53429 3.32949 0
M  V30 8147 H 738.558 -0.272422 5.02262 0
M  V30 8148 H 738.258 1.33853 5.72151 0
M  V30 8149 H 739.782 0.48074 6.08705 0
M  V30 8150 H 741.196 2.5442 5.13754 0
M  V30 8151 H 739.593 3.32282 4.99709 0
M  V30 8152 H 740.663 3.26537 3.58471 0
M  V30 8153 N 742.006 -1.2595 0.947325 0
M  V30 8154 C 743.234 -1.97544 0.615127 0
M  V30 8155 C 743.649 -1.70484 -0.811221 0
M  V30 8156 O 743.006 -0.97662 -1.5417 0
M  V30 8157 C 743.057 -3.51236 0.855328 0
M  V30 8158 O 742.778 -3.77359 2.22558 0
M  V30 8159 C 744.279 -4.40066 0.534515 0
M  V30 8160 H 741.499 -0.629888 0.231263 0
M  V30 8161 H 744.043 -1.60308 1.26971 0
M  V30 8162 H 742.198 -3.8661 0.247266 0
M  V30 8163 H 742.612 -4.71857 2.29022 0
M  V30 8164 H 744.086 -5.46838 0.753168 0
M  V30 8165 H 744.563 -4.35982 -0.530701 0
M  V30 8166 H 745.169 -4.10245 1.12158 0
M  V30 8167 N 743.484 -0.715051 -1.40445 0
M  V30 8168 C 744.709 -0.26254 -2.05732 0
M  V30 8169 C 745.134 1.08691 -1.53519 0
M  V30 8170 O 744.492 1.68453 -0.670328 0
M  V30 8171 C 744.54 -0.25195 -3.59719 0
M  V30 8172 O 743.644 0.766998 -4.05205 0
M  V30 8173 H 742.985 -0.123398 -0.652433 0
M  V30 8174 H 745.515 -0.975382 -1.79854 0
M  V30 8175 H 745.525 -0.0894537 -4.07902 0
M  V30 8176 H 744.2 -1.23672 -3.97087 0
M  V30 8177 H 742.777 0.572269 -3.68483 0
M  V30 8178 N 744.962 1.50701 -0.461195 0
M  V30 8179 C 745.925 2.2686 0.326679 0
M  V30 8180 C 746.925 1.31243 0.929085 0
M  V30 8181 O 748.115 1.54754 0.799807 0
M  V30 8182 C 745.247 3.07844 1.46441 0
M  V30 8183 H 746.44 2.97954 -0.341095 0
M  V30 8184 H 743.993 1.54814 -0.214984 0
M  V30 8185 H 744.728 2.41223 2.16753 0
M  V30 8186 H 744.513 3.78101 1.03836 0
M  V30 8187 H 746.003 3.65469 2.02044 0
M  V30 8188 N 746.441 0.193421 1.56409 0
M  V30 8189 C 747.669 -0.451438 2.01915 0
M  V30 8190 C 748.084 -1.55306 1.07357 0
M  V30 8191 O 747.441 -1.82333 0.0781512 0
M  V30 8192 C 747.492 -1.00931 3.47124 0
M  V30 8193 O 747.213 0.0483623 4.38073 0
M  V30 8194 C 748.714 -1.73021 4.0814 0
M  V30 8195 H 745.934 -0.113495 0.661332 0
M  V30 8196 H 748.478 0.301636 2.02263 0
M  V30 8197 H 746.633 -1.71277 3.47481 0
M  V30 8198 H 747.047 -0.366644 5.23217 0
M  V30 8199 H 748.521 -2.07289 5.11601 0
M  V30 8200 H 748.998 -2.6333 3.51502 0
M  V30 8201 H 749.604 -1.07264 4.11551 0
M  V30 8202 N 747.919 -1.57396 -0.0801906 0
M  V30 8203 C 748.867 -2.04136 -1.11495 0
M  V30 8204 C 749.861 -0.945137 -1.40583 0
M  V30 8205 O 751.067 -1.13028 -1.40088 0
M  V30 8206 H 747.442 -0.65076 -0.37685 0
M  V30 8207 H 749.413 -2.90205 -0.694526 0
M  V30 8208 C 748.162 -2.49399 -2.42272 0
M  V30 8209 H 747.485 -3.33339 -2.20737 0
M  V30 8210 H 748.925 -2.85864 -3.13142 0
M  V30 8211 C 747.384 -1.37341 -3.07635 0
M  V30 8212 O 747.914 -0.710829 -3.95361 0
M  V30 8213 N 746.12 -1.12064 -2.68123 0
M  V30 8214 H 745.667 -1.66126 -1.96875 0
M  V30 8215 H 745.625 -0.372916 -3.12181 0
M  V30 8216 N 749.397 0.351382 -1.53633 0
M  V30 8217 C 750.808 0.927429 -1.62036 0
M  V30 8218 C 751.159 1.89809 -0.496706 0
M  V30 8219 O 750.284 2.1313 0.374749 0
M  V30 8220 C 750.879 1.68886 -2.93706 0
M  V30 8221 C 749.438 2.21404 -3.04397 0
M  V30 8222 C 748.585 1.03075 -2.57431 0
M  V30 8223 H 751.536 0.129748 -1.58169 0
M  V30 8224 H 751.557 2.55116 -2.82305 0
M  V30 8225 H 751.069 0.982149 -3.75467 0
M  V30 8226 H 749.17 2.95274 -2.27253 0
M  V30 8227 H 749.283 2.48312 -4.09729 0
M  V30 8228 H 747.647 1.40188 -2.12649 0
M  V30 8229 H 748.43 0.338793 -3.41624 0
M  V30 8230 N 750.875 1.45233 0.611969 0
M  V30 8231 C 752.152 1.39495 1.37115 0
M  V30 8232 C 752.532 0.0633303 2.11005 0
M  V30 8233 O 751.88 -0.954617 2.07604 0
M  V30 8234 C 752.09 2.60579 2.32163 0
M  V30 8235 C 753.438 3.05477 2.94905 0
M  V30 8236 O 754.462 2.60921 2.42485 0
M  V30 8237 O 753.321 3.82787 3.90047 0
M  V30 8238 H 750.415 0.55335 0.614599 0
M  V30 8239 H 752.961 1.57355 0.635423 0
M  V30 8240 H 751.733 3.49085 1.76793 0
M  V30 8241 H 751.356 2.45031 3.13122 0
M  V30 8242 N 752.353 -0.854086 1.3245 0
M  V30 8243 C 753.3 -1.96271 1.21434 0
M  V30 8244 C 754.27 -1.6582 0.0963851 0
M  V30 8245 O 755.455 -1.88851 0.27203 0
M  V30 8246 C 752.595 -3.31939 0.943952 0
M  V30 8247 C 751.708 -3.74885 2.14675 0
M  V30 8248 C 750.843 -4.99347 1.81179 0
M  V30 8249 C 749.882 -5.34785 2.97777 0
M  V30 8250 N 749.019 -6.50425 2.6437 0
M  V30 8251 H 753.859 -2.05025 2.16261 0
M  V30 8252 H 751.396 -1.00348 1.07558 0
M  V30 8253 H 753.354 -4.10076 0.767675 0
M  V30 8254 H 751.984 -3.22784 0.0324763 0
M  V30 8255 H 751.036 -2.92396 2.43328 0
M  V30 8256 H 752.348 -3.97068 3.01891 0
M  V30 8257 H 751.502 -5.85193 1.60107 0
M  V30 8258 H 750.241 -4.79101 0.911777 0
M  V30 8259 H 749.246 -4.47451 3.1948 0
M  V30 8260 H 750.471 -5.56988 3.88511 0
M  V30 8261 H 748.417 -6.31695 1.7691 0
M  V30 8262 H 748.334 -6.7263 3.45116 0
M  V30 8263 H 749.602 -7.39422 2.46729 0
M  V30 8264 N 753.831 -1.1567 -1.07043 0
M  V30 8265 C 754.741 -0.870435 -2.17855 0
M  V30 8266 C 755.757 0.154452 -1.73313 0
M  V30 8267 O 756.933 -0.0203759 -2.0139 0
M  V30 8268 C 753.998 -0.367219 -3.4475 0
M  V30 8269 C 753.059 -1.45639 -4.03841 0
M  V30 8270 C 752.292 -0.977092 -5.2468 0
M  V30 8271 O 752.515 0.176127 -5.70128 0
M  V30 8272 O 751.449 -1.76215 -5.75527 0
M  V30 8273 H 755.275 -1.79687 -2.44839 0
M  V30 8274 H 752.86 -0.936064 -1.1644 0
M  V30 8275 H 754.742 -0.0931947 -4.21297 0
M  V30 8276 H 753.417 0.53131 -3.1931 0
M  V30 8277 H 752.324 -1.78406 -3.28819 0
M  V30 8278 H 753.657 -2.32995 -4.3356 0
M  V30 8279 N 755.309 1.25446 -0.953992 0
M  V30 8280 C 756.257 2.27909 -0.46478 0
M  V30 8281 C 757.251 1.62904 0.464607 0
M  V30 8282 O 758.457 1.76733 0.341407 0
M  V30 8283 H 754.832 0.74036 -0.131798 0
M  V30 8284 H 756.803 2.66559 -1.34122 0
M  V30 8285 C 755.552 3.46853 0.242589 0
M  V30 8286 H 754.875 3.97105 -0.463418 0
M  V30 8287 H 756.315 4.20432 0.548919 0
M  V30 8288 C 754.774 3.03386 1.46487 0
M  V30 8289 O 755.304 3.09342 2.56262 0
M  V30 8290 N 753.51 2.58584 1.32599 0
M  V30 8291 H 753.057 2.53938 0.432834 0
M  V30 8292 H 753.015 2.29866 2.14497 0
M  V30 8293 N 756.787 0.722489 1.40064 0
M  V30 8294 C 758.012 0.273446 2.05589 0
M  V30 8295 C 758.437 -1.07875 1.54093 0
M  V30 8296 O 757.795 -1.68095 0.679252 0
M  V30 8297 C 757.843 0.271023 3.5958 0
M  V30 8298 O 756.947 -0.745499 4.05606 0
M  V30 8299 H 756.288 0.126856 0.65177 0
M  V30 8300 H 758.818 0.984906 1.79334 0
M  V30 8301 H 758.828 0.111084 4.07849 0
M  V30 8302 H 757.503 1.25776 3.96425 0
M  V30 8303 H 756.08 -0.552719 3.68781 0
M  V30 8304 N 758.265 -1.50454 0.469181 0
M  V30 8305 C 759.198 -2.25149 -0.371928 0
M  V30 8306 C 760.176 -1.28382 -0.997845 0
M  V30 8307 O 761.36 -1.57599 -1.03415 0
M  V30 8308 C 758.487 -3.02629 -1.52097 0
M  V30 8309 C 757.533 -4.14305 -1.01262 0
M  V30 8310 S 758.366 -5.35453 0.0711459 0
M  V30 8311 C 759.522 -6.1648 -1.08181 0
M  V30 8312 H 759.755 -2.96142 0.262134 0
M  V30 8313 H 757.288 -1.52296 0.254042 0
M  V30 8314 H 759.246 -3.47861 -2.17952 0
M  V30 8315 H 757.907 -2.31165 -2.12654 0
M  V30 8316 H 757.1 -4.67913 -1.87278 0
M  V30 8317 H 756.702 -3.71499 -0.431804 0
M  V30 8318 H 758.994 -6.47497 -1.99382 0
M  V30 8319 H 759.937 -7.05679 -0.585028 0
M  V30 8320 H 760.345 -5.48492 -1.33478 0
M  V30 8321 N 759.743 -0.201713 -1.56304 0
M  V30 8322 C 760.968 0.443815 -2.02596 0
M  V30 8323 C 761.393 1.53945 -1.08086 0
M  V30 8324 O 760.751 1.81182 -0.0655056 0
M  V30 8325 C 760.799 0.971066 -3.47279 0
M  V30 8326 O 759.903 2.0836 -3.55893 0
M  V30 8327 H 759.244 0.10294 -0.655972 0
M  V30 8328 H 761.774 -0.314533 -2.02168 0
M  V30 8329 H 761.784 1.28598 -3.87204 0
M  V30 8330 H 760.459 0.169048 -4.15556 0
M  V30 8331 H 759.036 1.77683 -3.27846 0
M  V30 8332 N 761.222 1.57436 0.0718424 0
M  V30 8333 C 762.471 1.86431 0.769826 0
M  V30 8334 C 762.784 0.794355 1.78744 0
M  V30 8335 O 763.99 0.972148 2.53499 0
M  V30 8336 C 762.446 3.307 1.42006 0
M  V30 8337 C 762.054 4.45824 0.441017 0
M  V30 8338 C 763.798 3.68894 2.10041 0
M  V30 8339 C 761.705 5.81134 1.09717 0
M  V30 8340 H 760.635 0.695474 0.291259 0
M  V30 8341 H 763.286 1.83485 0.0231224 0
M  V30 8342 H 761.668 3.28257 2.21502 0
M  V30 8343 H 762.842 4.59659 -0.32413 0
M  V30 8344 H 761.157 4.16181 -0.134886 0
M  V30 8345 H 763.754 4.67281 2.59908 0
M  V30 8346 H 764.097 2.98692 2.89981 0
M  V30 8347 H 764.63 3.73326 1.37376 0
M  V30 8348 H 761.369 6.54628 0.338095 0
M  V30 8349 H 760.889 5.711 1.83317 0
M  V30 8350 H 762.568 6.26468 1.617 0
M  V30 8351 N 762.7 -0.34323 1.53817 0
M  V30 8352 C 763.925 -1.1079 1.75329 0
M  V30 8353 C 764.35 -1.81571 0.491293 0
M  V30 8354 O 763.708 -1.72561 -0.556089 0
M  V30 8355 C 763.756 -2.09681 2.9337 0
M  V30 8356 O 762.86 -3.17207 2.63541 0
M  V30 8357 H 762.201 -0.320402 0.581583 0
M  V30 8358 H 764.731 -0.393525 2.0078 0
M  V30 8359 H 764.741 -2.52897 3.20168 0
M  V30 8360 H 763.416 -1.5756 3.84899 0
M  V30 8361 H 761.993 -2.78806 2.47632 0
M  V30 8362 N 764.178 -1.45556 -0.604258 0
M  V30 8363 C 765.427 -1.49019 -1.35928 0
M  V30 8364 C 765.74 -0.137409 -1.95117 0
M  V30 8365 O 766.946 -0.0497032 -2.71455 0
M  V30 8366 C 765.402 -2.62477 -2.46239 0
M  V30 8367 C 765.01 -4.04082 -1.93447 0
M  V30 8368 C 766.754 -2.7519 -3.23219 0
M  V30 8369 C 764.661 -5.08917 -3.0126 0
M  V30 8370 H 763.591 -0.554518 -0.510907 0
M  V30 8371 H 766.242 -1.71705 -0.647262 0
M  V30 8372 H 764.624 -2.3308 -3.2014 0
M  V30 8373 H 765.798 -4.43173 -1.26232 0
M  V30 8374 H 764.113 -3.95849 -1.29201 0
M  V30 8375 H 766.71 -3.50683 -4.0364 0
M  V30 8376 H 767.053 -1.81941 -3.74437 0
M  V30 8377 H 767.586 -3.04129 -2.56418 0
M  V30 8378 H 764.325 -6.03886 -2.54955 0
M  V30 8379 H 763.845 -4.74393 -3.67031 0
M  V30 8380 H 765.524 -5.33814 -3.65584 0
M  V30 8381 N 765.656 0.84705 -1.32902 0
M  V30 8382 C 766.586 1.97166 -1.25091 0
M  V30 8383 C 767.567 1.69578 -0.133161 0
M  V30 8384 O 768.752 1.91519 -0.321591 0
M  V30 8385 C 765.882 3.33157 -0.981006 0
M  V30 8386 C 764.836 3.75119 -2.06082 0
M  V30 8387 C 764.162 5.08826 -1.64318 0
M  V30 8388 C 765.462 3.89774 -3.47669 0
M  V30 8389 H 767.156 2.03958 -2.19184 0
M  V30 8390 H 764.702 0.979907 -1.05517 0
M  V30 8391 H 766.655 4.11393 -0.912891 0
M  V30 8392 H 765.379 3.266 -0.00445559 0
M  V30 8393 H 764.038 2.9914 -2.11921 0
M  V30 8394 H 763.686 4.98732 -0.653876 0
M  V30 8395 H 763.386 5.37873 -2.36572 0
M  V30 8396 H 764.91 5.89546 -1.58958 0
M  V30 8397 H 766.324 4.58343 -3.44376 0
M  V30 8398 H 764.721 4.30248 -4.18338 0
M  V30 8399 H 765.791 2.92463 -3.86773 0
M  V30 8400 N 767.134 1.16236 1.06428 0
M  V30 8401 C 768.064 0.890807 2.1584 0
M  V30 8402 C 769.045 -0.162333 1.69324 0
M  V30 8403 O 770.23 -0.0147191 1.94194 0
M  V30 8404 C 767.36 0.389615 3.45108 0
M  V30 8405 C 766.314 1.38051 4.05125 0
M  V30 8406 C 765.64 0.737773 5.29586 0
M  V30 8407 C 766.94 2.74965 4.44062 0
M  V30 8408 H 768.634 1.80577 2.38814 0
M  V30 8409 H 766.18 0.869657 1.14774 0
M  V30 8410 H 768.133 0.187127 4.20984 0
M  V30 8411 H 766.857 -0.560851 3.21748 0
M  V30 8412 H 765.516 1.56952 3.31303 0
M  V30 8413 H 765.164 -0.219135 5.02522 0
M  V30 8414 H 764.864 1.39914 5.70699 0
M  V30 8415 H 766.388 0.545275 6.0816 0
M  V30 8416 H 767.802 2.59855 5.11027 0
M  V30 8417 H 766.199 3.37563 4.96156 0
M  V30 8418 H 767.269 3.30321 3.54987 0
M  V30 8419 N 768.612 -1.24939 0.960631 0
M  V30 8420 C 769.889 -1.88118 0.535807 0
M  V30 8421 C 770.269 -1.86605 -0.987009 0
M  V30 8422 O 769.617 -1.33375 -1.85536 0
M  V30 8423 C 769.827 -3.30565 1.11927 0
M  V30 8424 C 771.175 -4.07296 1.19981 0
M  V30 8425 O 772.199 -3.39709 1.07126 0
M  V30 8426 O 771.058 -5.28206 1.40218 0
M  V30 8427 H 768.152 -0.807698 0.177631 0
M  V30 8428 H 770.698 -1.32964 1.05445 0
M  V30 8429 H 769.47 -3.26128 2.16231 0
M  V30 8430 H 769.093 -3.93284 0.584245 0
M  V30 8431 N 770.09 -0.729906 -1.39679 0
M  V30 8432 C 771.038 -0.0756589 -2.32477 0
M  V30 8433 C 772.032 0.731438 -1.52795 0
M  V30 8434 O 773.238 0.633195 -1.68495 0
M  V30 8435 H 769.613 -0.00566492 -0.751979 0
M  V30 8436 H 771.584 -0.874797 -2.85289 0
M  V30 8437 C 770.333 0.821313 -3.37861 0
M  V30 8438 H 769.656 0.209666 -3.9925 0
M  V30 8439 H 771.096 1.24679 -4.05254 0
M  V30 8440 C 769.555 1.9533 -2.74495 0
M  V30 8441 O 770.085 3.04548 -2.61942 0
M  V30 8442 N 768.291 1.74119 -2.3266 0
M  V30 8443 H 767.838 0.852908 -2.4307 0
M  V30 8444 H 767.796 2.50036 -1.90603 0
M  V30 8445 N 771.568 1.50203 -0.477153 0
M  V30 8446 C 772.798 2.0647 0.0731427 0
M  V30 8447 C 773.206 1.3405 1.33518 0
M  V30 8448 O 772.549 0.405164 1.79176 0
M  V30 8449 C 772.611 3.57025 0.421121 0
M  V30 8450 C 772.275 4.50973 -0.739765 0
M  V30 8451 C 773.272 4.939 -1.62353 0
M  V30 8452 C 770.957 4.93581 -0.93181 0
M  V30 8453 C 772.951 5.78149 -2.6837 0
M  V30 8454 C 770.638 5.77612 -1.99519 0
M  V30 8455 C 771.636 6.19798 -2.86949 0
M  V30 8456 O 771.324 7.02152 -3.91456 0
M  V30 8457 H 771.056 0.675969 -0.00648243 0
M  V30 8458 H 773.61 1.94278 -0.66673 0
M  V30 8459 H 771.84 3.67141 1.21426 0
M  V30 8460 H 773.529 3.95632 0.907213 0
M  V30 8461 H 774.295 4.61646 -1.48687 0
M  V30 8462 H 770.174 4.60262 -0.260739 0
M  V30 8463 H 773.718 6.10997 -3.36643 0
M  V30 8464 H 769.615 6.09279 -2.13189 0
M  V30 8465 H 770.383 7.20414 -3.88518 0
M  V30 8466 N 773.046 0.209999 1.56195 0
M  V30 8467 C 774.286 -0.4268 1.99894 0
M  V30 8468 C 774.65 -1.57763 1.0943 0
M  V30 8469 O 775.851 -2.27964 1.42428 0
M  V30 8470 C 774.122 -0.861188 3.46869 0
M  V30 8471 S 775.681 -1.49372 4.12593 0
M  V30 8472 H 772.499 -0.135922 0.697887 0
M  V30 8473 H 775.101 0.316573 1.9292 0
M  V30 8474 H 773.805 -0.0137653 4.10398 0
M  V30 8475 H 773.336 -1.63766 3.57693 0
M  V30 8476 H 775.351 -2.7827 4.10829 0
M  V30 8477 N 774.524 -1.57472 -0.0634922 0
M  V30 8478 C 775.474 -2.00709 -1.08166 0
M  V30 8479 C 776.458 -0.890498 -1.34011 0
M  V30 8480 O 777.65 -1.15441 -1.34173 0
M  V30 8481 C 774.779 -2.46148 -2.39303 0
M  V30 8482 C 773.865 -3.64559 -2.16697 0
M  V30 8483 N 774.256 -4.78459 -1.64043 0
M  V30 8484 C 772.554 -3.71269 -2.47135 0
M  V30 8485 C 773.255 -5.60268 -1.56445 0
M  V30 8486 N 772.231 -5.04357 -2.02792 0
M  V30 8487 H 776.033 -2.86208 -0.668016 0
M  V30 8488 H 773.547 -1.60133 -0.270426 0
M  V30 8489 H 775.544 -2.75367 -3.13016 0
M  V30 8490 H 774.204 -1.62041 -2.81377 0
M  V30 8491 H 775.215 -5.00587 -1.32791 0
M  V30 8492 H 771.892 -2.97891 -2.92518 0
M  V30 8493 H 773.282 -6.6172 -1.16519 0
M  V30 8494 N 776.003 0.335068 -1.53997 0
M  V30 8495 C 777.414 0.910191 -1.6301 0
M  V30 8496 C 777.765 1.89271 -0.516809 0
M  V30 8497 O 776.89 2.13516 0.352123 0
M  V30 8498 C 777.485 1.65761 -2.9548 0
M  V30 8499 C 776.044 2.18163 -3.06728 0
M  V30 8500 C 775.191 1.00338 -2.5851 0
M  V30 8501 H 778.142 0.112965 -1.58297 0
M  V30 8502 H 778.163 2.52107 -2.84995 0
M  V30 8503 H 777.675 0.94227 -3.76488 0
M  V30 8504 H 775.776 2.92847 -2.30372 0
M  V30 8505 H 775.889 2.43952 -4.1234 0
M  V30 8506 H 774.253 1.37925 -2.14124 0
M  V30 8507 H 775.036 0.30254 -3.41964 0
M  V30 8508 N 777.481 1.45874 0.596531 0
M  V30 8509 C 778.73 1.49737 1.35135 0
M  V30 8510 C 779.043 0.147755 1.95041 0
M  V30 8511 O 780.249 0.0640984 2.71424 0
M  V30 8512 C 778.705 2.6378 2.44843 0
M  V30 8513 C 778.313 4.05102 1.91301 0
M  V30 8514 C 780.057 2.769 3.21755 0
M  V30 8515 C 777.964 5.10508 2.98557 0
M  V30 8516 H 776.894 0.557219 0.507959 0
M  V30 8517 H 779.545 1.72046 0.638147 0
M  V30 8518 H 777.927 2.34774 3.189 0
M  V30 8519 H 779.101 4.43836 1.2388 0
M  V30 8520 H 777.416 3.96528 1.271 0
M  V30 8521 H 780.013 3.52819 4.01775 0
M  V30 8522 H 780.356 1.83924 3.73467 0
M  V30 8523 H 780.889 3.05485 2.54802 0
M  V30 8524 H 777.628 6.0523 2.51749 0
M  V30 8525 H 777.148 4.76332 3.6451 0
M  V30 8526 H 778.827 5.35745 3.62748 0
M  V30 8527 N 778.959 -0.83999 1.33349 0
M  V30 8528 C 779.922 -1.93128 1.23426 0
M  V30 8529 C 780.922 -1.60065 0.153599 0
M  V30 8530 O 782.112 -1.69425 0.405049 0
M  V30 8531 C 779.244 -3.28761 0.901622 0
M  V30 8532 H 780.437 -2.03352 2.20427 0
M  V30 8533 H 777.99 -1.03194 1.17391 0
M  V30 8534 H 778.725 -3.24233 -0.0659337 0
M  V30 8535 H 778.51 -3.54138 1.68311 0
M  V30 8536 H 780 -4.08714 0.856913 0
M  V30 8537 N 780.437 -1.16799 -1.0581 0
M  V30 8538 C 781.367 -0.902241 -2.15364 0
M  V30 8539 C 782.348 0.153351 -1.69407 0
M  V30 8540 O 783.533 0.00442032 -1.94199 0
M  V30 8541 C 780.663 -0.407911 -3.44896 0
M  V30 8542 C 779.617 -1.40197 -4.04387 0
M  V30 8543 C 778.943 -0.765848 -5.29187 0
M  V30 8544 C 780.243 -2.77316 -4.42598 0
M  V30 8545 H 781.937 -1.81841 -2.37853 0
M  V30 8546 H 779.483 -0.875731 -1.14311 0
M  V30 8547 H 781.436 -0.20945 -4.20879 0
M  V30 8548 H 780.16 0.54378 -3.22041 0
M  V30 8549 H 778.819 -1.58707 -3.30466 0
M  V30 8550 H 778.467 0.192482 -5.02632 0
M  V30 8551 H 778.167 -1.42939 -5.69949 0
M  V30 8552 H 779.691 -0.577519 -6.07863 0
M  V30 8553 H 781.105 -2.62561 -5.09642 0
M  V30 8554 H 779.502 -3.4019 -4.94359 0
M  V30 8555 H 780.572 -3.32199 -3.53231 0
M  V30 8556 N 781.915 1.24427 -0.967243 0
M  V30 8557 C 783.326 1.74349 -0.667785 0
M  V30 8558 C 783.677 1.78403 0.816509 0
M  V30 8559 O 782.802 1.41315 1.63887 0
M  V30 8560 C 783.397 3.16628 -1.20548 0
M  V30 8561 C 781.956 3.64059 -0.955934 0
M  V30 8562 C 781.103 2.42715 -1.34106 0
M  V30 8563 H 784.054 1.10136 -1.14262 0
M  V30 8564 H 784.075 3.76183 -0.571547 0
M  V30 8565 H 783.587 3.13646 -2.28578 0
M  V30 8566 H 781.688 3.72441 0.108858 0
M  V30 8567 H 781.801 4.51549 -1.60126 0
M  V30 8568 H 780.165 2.43114 -0.759452 0
M  V30 8569 H 780.948 2.42414 -2.43085 0
M  V30 8570 N 783.393 0.737304 1.3929 0
M  V30 8571 C 784.34 0.0988364 2.30588 0
M  V30 8572 C 785.31 -0.727206 1.49335 0
M  V30 8573 O 786.495 -0.686694 1.78014 0
M  V30 8574 C 783.635 -0.800734 3.35682 0
M  V30 8575 C 782.748 0.0381731 4.31983 0
M  V30 8576 C 781.883 -0.862884 5.24145 0
M  V30 8577 C 780.922 -0.0193639 6.12097 0
M  V30 8578 N 780.059 -0.87648 6.96608 0
M  V30 8579 H 784.899 0.883031 2.84617 0
M  V30 8580 H 782.436 0.447111 1.4014 0
M  V30 8581 H 784.394 -1.33676 3.95205 0
M  V30 8582 H 783.024 -1.55088 2.83103 0
M  V30 8583 H 782.076 0.691641 3.74059 0
M  V30 8584 H 783.388 0.690294 4.94 0
M  V30 8585 H 782.542 -1.46667 5.88705 0
M  V30 8586 H 781.281 -1.54878 4.62454 0
M  V30 8587 H 780.286 0.597202 5.46547 0
M  V30 8588 H 781.511 0.663348 6.75852 0
M  V30 8589 H 779.457 -1.54762 6.37483 0
M  V30 8590 H 779.374 -0.280892 7.55478 0
M  V30 8591 H 780.642 -1.46575 7.65595 0
M  V30 8592 N 784.871 -1.49948 0.485112 0
M  V30 8593 C 785.821 -2.25734 -0.320658 0
M  V30 8594 C 786.805 -1.29907 -0.949373 0
M  V30 8595 O 787.997 -1.54725 -0.859601 0
M  V30 8596 C 785.126 -3.13728 -1.39391 0
M  V30 8597 C 784.212 -4.1701 -0.772225 0
M  V30 8598 N 784.603 -5.05667 0.115782 0
M  V30 8599 C 782.901 -4.33834 -1.03461 0
M  V30 8600 C 783.602 -5.79798 0.47004 0
M  V30 8601 N 782.578 -5.4337 -0.158204 0
M  V30 8602 H 786.38 -2.91647 0.36319 0
M  V30 8603 H 783.894 -1.59602 0.300154 0
M  V30 8604 H 785.891 -3.66639 -1.98447 0
M  V30 8605 H 784.551 -2.49365 -2.0796 0
M  V30 8606 H 785.562 -5.15619 0.485557 0
M  V30 8607 H 782.239 -3.80684 -1.71424 0
M  V30 8608 H 783.629 -6.61177 1.19558 0
M  V30 8609 N 786.349 -0.21828 -1.56081 0
M  V30 8610 C 787.281 0.725447 -2.17416 0
M  V30 8611 C 788.294 1.15995 -1.14233 0
M  V30 8612 O 789.483 1.09166 -1.41227 0
M  V30 8613 C 786.583 1.99401 -2.7403 0
M  V30 8614 C 785.756 1.7156 -4.02351 0
M  V30 8615 C 784.815 2.8309 -4.43561 0
M  V30 8616 O 783.841 2.51701 -5.10525 0
M  V30 8617 N 785.043 4.11972 -4.08973 0
M  V30 8618 H 787.808 0.200801 -2.99027 0
M  V30 8619 H 785.369 -0.0371514 -1.61857 0
M  V30 8620 H 787.361 2.73198 -2.98571 0
M  V30 8621 H 785.931 2.42923 -1.96742 0
M  V30 8622 H 785.151 0.814233 -3.85699 0
M  V30 8623 H 786.439 1.50385 -4.86068 0
M  V30 8624 H 785.837 4.40319 -3.55156 0
M  V30 8625 H 784.394 4.82323 -4.38415 0
M  V30 8626 N 787.827 1.57504 0.0551401 0
M  V30 8627 C 789.238 1.76626 0.604979 0
M  V30 8628 C 789.589 0.845978 1.77024 0
M  V30 8629 O 788.714 0.0341936 2.16373 0
M  V30 8630 C 789.309 3.203 1.10425 0
M  V30 8631 C 787.868 3.4071 1.59981 0
M  V30 8632 C 787.015 2.72258 0.526414 0
M  V30 8633 H 789.966 1.57775 -0.171072 0
M  V30 8634 H 789.987 3.25377 1.97256 0
M  V30 8635 H 789.499 3.87255 0.255939 0
M  V30 8636 H 787.6 2.78892 2.47083 0
M  V30 8637 H 787.713 4.49227 1.66528 0
M  V30 8638 H 786.077 2.35283 0.97539 0
M  V30 8639 H 786.86 3.41879 -0.311991 0
M  V30 8640 N 789.305 -0.326896 1.54172 0
M  V30 8641 C 790.533 -1.08486 1.76177 0
M  V30 8642 C 790.948 -1.81815 0.508788 0
M  V30 8643 O 790.305 -1.74924 -0.520362 0
M  V30 8644 C 790.356 -2.08552 2.95276 0
M  V30 8645 O 790.077 -1.38202 4.15731 0
M  V30 8646 C 791.578 -2.96593 3.29466 0
M  V30 8647 H 788.798 -0.322835 0.588233 0
M  V30 8648 H 791.342 -0.374036 2.0105 0
M  V30 8649 H 789.497 -2.75174 2.72687 0
M  V30 8650 H 789.911 -2.05186 4.827 0
M  V30 8651 H 791.385 -3.62708 4.16109 0
M  V30 8652 H 791.862 -3.63511 2.46487 0
M  V30 8653 H 792.468 -2.35537 3.54122 0
M  V30 8654 N 790.784 -1.46188 -0.588786 0
M  V30 8655 C 792.195 -1.45421 -1.17088 0
M  V30 8656 C 792.546 -0.191801 -1.9526 0
M  V30 8657 O 791.671 0.705497 -2.04577 0
M  V30 8658 C 792.266 -2.63467 -2.13004 0
M  V30 8659 C 790.825 -2.6576 -2.6655 0
M  V30 8660 C 789.972 -2.38002 -1.42304 0
M  V30 8661 H 792.923 -1.54156 -0.377052 0
M  V30 8662 H 792.944 -2.38638 -2.96365 0
M  V30 8663 H 792.456 -3.55331 -1.56081 0
M  V30 8664 H 790.557 -1.77952 -3.27359 0
M  V30 8665 H 790.67 -3.65545 -3.09699 0
M  V30 8666 H 789.034 -1.87936 -1.71907 0
M  V30 8667 H 789.817 -3.32035 -0.872209 0
M  V30 8668 N 792.262 0.832906 -1.33792 0
M  V30 8669 C 793.539 1.57359 -1.16178 0
M  V30 8670 C 793.919 2.09372 0.269532 0
M  V30 8671 O 793.267 1.89993 1.26944 0
M  V30 8672 C 793.477 2.70279 -2.20795 0
M  V30 8673 C 794.825 3.39305 -2.55259 0
M  V30 8674 O 795.849 2.80526 -2.19508 0
M  V30 8675 O 794.708 4.45428 -3.16632 0
M  V30 8676 H 791.802 0.694025 -0.449731 0
M  V30 8677 H 794.348 0.875144 -1.45394 0
M  V30 8678 H 793.12 2.29527 -3.16911 0
M  V30 8679 H 792.743 3.47782 -1.927 0
M  V30 8680 N 793.74 1.17359 1.05189 0
M  V30 8681 C 795.151 0.96793 1.5965 0
M  V30 8682 C 795.502 -0.485355 1.90102 0
M  V30 8683 O 794.627 -1.36066 1.6827 0
M  V30 8684 C 795.222 1.75068 2.90063 0
M  V30 8685 C 793.781 1.58969 3.41183 0
M  V30 8686 C 792.928 1.75231 2.14917 0
M  V30 8687 H 795.879 1.32067 0.880001 0
M  V30 8688 H 795.9 1.23308 3.59966 0
M  V30 8689 H 795.412 2.80835 2.67868 0
M  V30 8690 H 793.513 0.556906 3.68415 0
M  V30 8691 H 793.626 2.38067 4.15766 0
M  V30 8692 H 791.99 1.18073 2.25679 0
M  V30 8693 H 792.773 2.8241 1.95191 0
M  V30 8694 N 795.218 -1.23913 0.973828 0
M  V30 8695 C 796.128 -2.28838 0.516735 0
M  V30 8696 C 797.144 -1.68723 -0.425282 0
M  V30 8697 O 798.32 -1.99201 -0.296819 0
M  V30 8698 C 795.385 -3.46233 -0.179914 0
M  V30 8699 C 794.446 -4.21729 0.80269 0
M  V30 8700 C 793.679 -5.33518 0.139191 0
M  V30 8701 O 793.902 -5.60252 -1.07118 0
M  V30 8702 O 792.836 -5.96088 0.834447 0
M  V30 8703 H 796.662 -2.70067 1.38916 0
M  V30 8704 H 794.247 -1.2972 0.74115 0
M  V30 8705 H 796.129 -4.17514 -0.570991 0
M  V30 8706 H 794.804 -3.06969 -1.02721 0
M  V30 8707 H 793.711 -3.52799 1.24434 0
M  V30 8708 H 795.044 -4.64825 1.61859 0
M  V30 8709 N 796.696 -0.74468 -1.38897 0
M  V30 8710 C 797.944 -0.296298 -1.99916 0
M  V30 8711 C 798.265 1.12325 -1.59399 0
M  V30 8712 O 797.535 1.76658 -0.846689 0
M  V30 8713 H 796.115 -0.106561 -0.73936 0
M  V30 8714 H 798.777 -0.956793 -1.69798 0
M  V30 8715 H 797.873 -0.352356 -3.10105 0
M  V30 8716 N 798.174 1.49689 -0.493057 0
M  V30 8717 C 799.451 1.9525 0.116907 0
M  V30 8718 C 799.831 1.43429 1.54892 0
M  V30 8719 O 799.179 0.644621 2.19219 0
M  V30 8720 C 799.389 3.4898 0.037705 0
M  V30 8721 C 800.737 4.24052 0.215621 0
M  V30 8722 O 801.761 3.5602 0.113266 0
M  V30 8723 O 800.62 5.44847 0.42477 0
M  V30 8724 H 797.714 0.820973 0.099662 0
M  V30 8725 H 800.26 1.60367 -0.555029 0
M  V30 8726 H 799.032 3.79309 -0.961251 0
M  V30 8727 H 798.655 3.9046 0.750137 0
M  V30 8728 N 799.652 0.226554 1.55963 0
M  V30 8729 C 801.068 -0.128733 1.5908 0
M  V30 8730 C 801.268 -1.58558 1.24345 0
M  V30 8731 O 800.324 -2.32661 0.981069 0
M  V30 8732 C 801.637 0.202076 3.0002 0
M  V30 8733 C 803.185 0.144718 3.12665 0
M  V30 8734 C 803.66 0.449272 4.55791 0
M  V30 8735 N 805.151 0.399026 4.61478 0
M  V30 8736 C 805.886 0.608106 5.70166 0
M  V30 8737 N 805.382 0.879227 6.87198 0
M  V30 8738 N 807.175 0.5402 5.59498 0
M  V30 8739 H 799.326 1.17686 1.76816 0
M  V30 8740 H 801.589 0.472072 0.822102 0
M  V30 8741 H 801.295 1.21341 3.30105 0
M  V30 8742 H 801.169 -0.480554 3.74126 0
M  V30 8743 H 803.556 -0.857261 2.82374 0
M  V30 8744 H 803.637 0.860899 2.40878 0
M  V30 8745 H 803.281 1.44871 4.86801 0
M  V30 8746 H 803.211 -0.288157 5.25811 0
M  V30 8747 H 805.702 0.197372 3.77384 0
M  V30 8748 H 806.015 1.02673 7.65949 0
M  V30 8749 H 804.36 0.916477 6.88931 0
M  V30 8750 H 807.551 0.328581 4.66945 0
M  V30 8751 H 807.724 0.706548 6.44137 0
M  V30 8752 N 801.13 -1.57531 -0.0467866 0
M  V30 8753 C 802.376 -1.8873 -0.742218 0
M  V30 8754 C 802.709 -0.822084 -1.75941 0
M  V30 8755 O 801.984 0.164922 -1.938 0
M  V30 8756 C 802.267 -3.30586 -1.42776 0
M  V30 8757 C 802.12 -4.47785 -0.425285 0
M  V30 8758 C 803.439 -3.71068 -2.36636 0
M  V30 8759 H 800.558 -0.686406 -0.268359 0
M  V30 8760 H 803.2 -1.89999 -0.00511341 0
M  V30 8761 H 801.35 -3.29634 -2.05605 0
M  V30 8762 H 803.022 -4.60867 0.199721 0
M  V30 8763 H 801.265 -4.33037 0.25713 0
M  V30 8764 H 801.936 -5.43884 -0.943086 0
M  V30 8765 H 804.412 -3.73273 -1.83866 0
M  V30 8766 H 803.288 -4.71165 -2.81593 0
M  V30 8767 H 803.549 -3.02355 -3.22542 0
M  V30 8768 N 802.608 0.318715 -1.54344 0
M  V30 8769 C 804.024 0.663345 -1.45162 0
M  V30 8770 C 804.224 1.9145 -0.62842 0
M  V30 8771 O 803.28 2.5217 -0.129126 0
M  V30 8772 C 804.593 0.832836 -2.88937 0
M  V30 8773 C 806.141 0.929866 -2.98869 0
M  V30 8774 C 806.616 1.13149 -4.43803 0
M  V30 8775 N 808.107 1.19811 -4.47437 0
M  V30 8776 C 808.842 1.37209 -5.56742 0
M  V30 8777 N 808.338 1.51619 -6.76006 0
M  V30 8778 N 810.131 1.39956 -5.44398 0
M  V30 8779 H 802.282 -0.50357 -2.06344 0
M  V30 8780 H 804.545 -0.163528 -0.933789 0
M  V30 8781 H 804.251 -0.0153519 -3.51697 0
M  V30 8782 H 804.125 1.72721 -3.35332 0
M  V30 8783 H 806.512 1.76855 -2.36233 0
M  V30 8784 H 806.593 0.0118561 -2.55797 0
M  V30 8785 H 806.237 0.297636 -5.07027 0
M  V30 8786 H 806.167 2.06345 -4.84489 0
M  V30 8787 H 808.658 1.101 -3.61506 0
M  V30 8788 H 808.971 1.64599 -7.55067 0
M  V30 8789 H 807.316 1.48708 -6.78904 0
M  V30 8790 H 810.507 1.28298 -4.50175 0
M  V30 8791 H 810.68 1.53172 -6.29637 0
M  V30 8792 N 804.086 1.46499 0.581025 0
M  V30 8793 C 805.049 1.5677 1.672 0
M  V30 8794 C 806.049 0.444716 1.54528 0
M  V30 8795 O 807.239 0.709074 1.59116 0
M  V30 8796 C 804.371 1.4896 3.06633 0
M  V30 8797 H 805.564 2.54 1.5945 0
M  V30 8798 H 803.117 1.34334 0.799003 0
M  V30 8799 H 803.852 0.530168 3.19937 0
M  V30 8800 H 803.637 2.30439 3.17239 0
M  V30 8801 H 805.127 1.59237 3.86048 0
M  V30 8802 N 805.565 -0.825799 1.34232 0
M  V30 8803 C 806.475 -1.9684 1.27638 0
M  V30 8804 C 807.491 -1.73018 0.184569 0
M  V30 8805 O 808.667 -1.97172 0.410525 0
M  V30 8806 C 805.732 -3.31084 1.02879 0
M  V30 8807 C 804.793 -3.67933 2.21188 0
M  V30 8808 C 804.026 -4.95772 1.976 0
M  V30 8809 O 804.249 -5.62721 0.93281 0
M  V30 8810 O 803.183 -5.30431 2.84477 0
M  V30 8811 H 807.009 -2.05346 2.23756 0
M  V30 8812 H 804.594 -0.960772 1.1441 0
M  V30 8813 H 806.476 -4.11492 0.908406 0
M  V30 8814 H 805.151 -3.23552 0.0979821 0
M  V30 8815 H 804.058 -2.87981 2.38784 0
M  V30 8816 H 805.391 -3.80147 3.12648 0
M  V30 8817 N 807.043 -1.17915 -1.04565 0
M  V30 8818 C 807.976 -0.845021 -2.11978 0
M  V30 8819 C 808.954 0.19089 -1.61476 0
M  V30 8820 O 810.138 0.0709905 -1.88366 0
M  V30 8821 C 807.265 -0.261657 -3.37688 0
M  V30 8822 C 806.311 -1.27396 -4.07029 0
M  V30 8823 S 807.144 -2.82783 -4.54746 0
M  V30 8824 C 808.3 -2.25944 -5.83695 0
M  V30 8825 H 808.533 -1.75472 -2.39993 0
M  V30 8826 H 806.066 -1.00447 -1.17259 0
M  V30 8827 H 808.024 0.0684257 -4.10443 0
M  V30 8828 H 806.685 0.626082 -3.07797 0
M  V30 8829 H 805.878 -0.814557 -4.97374 0
M  V30 8830 H 805.48 -1.55002 -3.40368 0
M  V30 8831 H 807.772 -1.63892 -6.57378 0
M  V30 8832 H 808.715 -3.14569 -6.34391 0
M  V30 8833 H 809.123 -1.69155 -5.3856 0
M  V30 8834 N 808.521 1.23394 -0.980386 0
M  V30 8835 C 809.932 1.73631 -0.686239 0
M  V30 8836 C 810.283 1.79259 0.797541 0
M  V30 8837 O 809.408 1.43046 1.62379 0
M  V30 8838 C 810.003 3.15332 -1.239 0
M  V30 8839 C 808.562 3.63024 -0.994494 0
M  V30 8840 C 807.709 2.41279 -1.36673 0
M  V30 8841 H 810.66 1.08918 -1.15423 0
M  V30 8842 H 810.681 3.75556 -0.611414 0
M  V30 8843 H 810.193 3.11204 -2.31892 0
M  V30 8844 H 808.294 3.72535 0.0693492 0
M  V30 8845 H 808.407 4.49825 -1.64906 0
M  V30 8846 H 806.771 2.42295 -0.785195 0
M  V30 8847 H 807.554 2.39822 -2.45642 0
M  V30 8848 N 809.999 0.752036 1.385 0
M  V30 8849 C 810.947 0.112634 2.32327 0
M  V30 8850 C 811.941 -0.707037 1.53939 0
M  V30 8851 O 813.147 -0.606309 1.69481 0
M  V30 8852 H 809.522 0.0176275 0.751793 0
M  V30 8853 H 811.493 0.920074 2.83861 0
M  V30 8854 C 810.242 -0.767458 3.39124 0
M  V30 8855 H 809.565 -0.146122 3.99533 0
M  V30 8856 H 811.005 -1.18216 4.07187 0
M  V30 8857 C 809.464 -1.90938 2.77568 0
M  V30 8858 O 809.994 -3.00342 2.66754 0
M  V30 8859 N 808.2 -1.70396 2.35401 0
M  V30 8860 H 807.747 -0.81413 2.44397 0
M  V30 8861 H 807.705 -2.46972 1.94557 0
M  V30 8862 N 811.477 -1.49425 0.500989 0
M  V30 8863 C 812.409 -2.27037 -0.314159 0
M  V30 8864 C 813.422 -1.33578 -0.930626 0
M  V30 8865 O 814.611 -1.58861 -0.813968 0
M  V30 8866 C 811.711 -3.05968 -1.45729 0
M  V30 8867 C 810.884 -4.27 -0.948135 0
M  V30 8868 C 809.943 -4.87977 -1.96888 0
M  V30 8869 O 808.969 -5.48044 -1.53743 0
M  V30 8870 N 810.171 -4.77627 -3.29928 0
M  V30 8871 H 812.936 -2.97634 0.351336 0
M  V30 8872 H 810.497 -1.58427 0.333536 0
M  V30 8873 H 812.489 -3.43634 -2.1377 0
M  V30 8874 H 811.059 -2.37978 -2.02695 0
M  V30 8875 H 810.279 -3.94091 -0.0926311 0
M  V30 8876 H 811.567 -5.0541 -0.586362 0
M  V30 8877 H 810.965 -4.29926 -3.67669 0
M  V30 8878 H 809.522 -5.19478 -3.93682 0
M  V30 8879 N 812.955 -0.234822 -1.55841 0
M  V30 8880 C 813.885 0.664217 -2.23854 0
M  V30 8881 C 814.866 1.19076 -1.2147 0
M  V30 8882 O 816.051 1.23232 -1.50091 0
M  V30 8883 C 813.181 1.86666 -2.9287 0
M  V30 8884 C 812.135 1.47341 -4.01839 0
M  V30 8885 C 811.461 2.75571 -4.58219 0
M  V30 8886 C 812.761 0.653479 -5.18196 0
M  V30 8887 H 814.455 0.0971213 -2.99242 0
M  V30 8888 H 812.001 0.0452724 -1.43929 0
M  V30 8889 H 813.954 2.50116 -3.39146 0
M  V30 8890 H 812.678 2.45894 -2.1495 0
M  V30 8891 H 811.337 0.862314 -3.56314 0
M  V30 8892 H 810.985 3.32971 -3.77014 0
M  V30 8893 H 810.685 2.49987 -5.31771 0
M  V30 8894 H 812.209 3.39939 -5.07221 0
M  V30 8895 H 813.623 1.19198 -5.60771 0
M  V30 8896 H 812.02 0.494188 -5.98062 0
M  V30 8897 H 813.09 -0.337004 -4.83728 0
M  V30 8898 N 814.433 1.57553 0.0384317 0
M  V30 8899 C 815.849 1.54663 0.39391 0
M  V30 8900 C 816.049 0.959685 1.77179 0
M  V30 8901 O 815.105 0.576647 2.45827 0
M  V30 8902 C 816.418 2.99156 0.304352 0
M  V30 8903 C 817.966 3.10659 0.382119 0
M  V30 8904 C 818.441 4.56866 0.322111 0
M  V30 8905 N 819.932 4.61629 0.38119 0
M  V30 8906 C 820.667 5.72284 0.357501 0
M  V30 8907 N 820.163 6.92207 0.286654 0
M  V30 8908 N 821.956 5.60628 0.406538 0
M  V30 8909 H 814.107 1.9406 -0.86339 0
M  V30 8910 H 816.37 0.889673 -0.327392 0
M  V30 8911 H 816.076 3.45788 -0.642141 0
M  V30 8912 H 815.95 3.60753 1.10168 0
M  V30 8913 H 818.337 2.6398 1.31904 0
M  V30 8914 H 818.418 2.5191 -0.444391 0
M  V30 8915 H 818.062 5.0421 -0.611104 0
M  V30 8916 H 817.992 5.13515 1.1666 0
M  V30 8917 H 820.483 3.75343 0.438838 0
M  V30 8918 H 820.796 7.72316 0.273421 0
M  V30 8919 H 819.141 6.9454 0.252841 0
M  V30 8920 H 822.332 4.65836 0.459812 0
M  V30 8921 H 822.505 6.46858 0.384608 0
M  V30 8922 N 815.911 -0.310526 1.54511 0
M  V30 8923 C 816.858 -1.38264 1.84802 0
M  V30 8924 C 817.828 -1.50808 0.696141 0
M  V30 8925 O 819.013 -1.6582 0.943846 0
M  V30 8926 C 816.153 -2.74422 2.09252 0
M  V30 8927 C 815.266 -2.70405 3.36906 0
M  V30 8928 C 814.401 -3.98495 3.51248 0
M  V30 8929 C 813.44 -3.88836 4.72729 0
M  V30 8930 N 812.577 -5.08683 4.83928 0
M  V30 8931 H 817.417 -1.11732 2.76261 0
M  V30 8932 H 814.954 -0.540609 1.36806 0
M  V30 8933 H 816.912 -3.53593 2.21422 0
M  V30 8934 H 815.542 -2.99235 1.2107 0
M  V30 8935 H 814.594 -1.83151 3.33406 0
M  V30 8936 H 815.906 -2.59155 4.26193 0
M  V30 8937 H 815.06 -4.861 3.63031 0
M  V30 8938 H 813.799 -4.12567 2.60077 0
M  V30 8939 H 812.804 -2.99615 4.60989 0
M  V30 8940 H 814.029 -3.76318 5.65298 0
M  V30 8941 H 811.975 -5.23236 3.95677 0
M  V30 8942 H 811.892 -4.99819 5.67201 0
M  V30 8943 H 813.16 -5.97966 5.00057 0
M  V30 8944 N 817.389 -1.46805 -0.573248 0
M  V30 8945 C 818.321 -1.54127 -1.6964 0
M  V30 8946 C 819.334 -0.428778 -1.57052 0
M  V30 8947 O 820.523 -0.697612 -1.64303 0
M  V30 8948 C 817.623 -1.41438 -3.07975 0
M  V30 8949 C 816.796 -2.66974 -3.46474 0
M  V30 8950 C 815.855 -2.48349 -4.63906 0
M  V30 8951 O 814.881 -3.22109 -4.69292 0
M  V30 8952 N 816.083 -1.55129 -5.59388 0
M  V30 8953 H 818.848 -2.50971 -1.6381 0
M  V30 8954 H 816.409 -1.42981 -0.759479 0
M  V30 8955 H 818.401 -1.26737 -3.84343 0
M  V30 8956 H 816.971 -0.527388 -3.08119 0
M  V30 8957 H 816.191 -2.9655 -2.59715 0
M  V30 8958 H 817.479 -3.50347 -3.68964 0
M  V30 8959 H 816.877 -0.94324 -5.57781 0
M  V30 8960 H 815.434 -1.46387 -6.35149 0
M  V30 8961 N 818.867 0.818669 -1.34668 0
M  V30 8962 C 819.797 1.94468 -1.29245 0
M  V30 8963 C 820.778 1.69257 -0.169101 0
M  V30 8964 O 821.963 1.90794 -0.362143 0
M  V30 8965 C 819.093 3.31001 -1.05145 0
M  V30 8966 C 818.047 3.70663 -2.13992 0
M  V30 8967 C 817.373 5.05226 -1.75074 0
M  V30 8968 C 818.673 3.82312 -3.55858 0
M  V30 8969 H 820.367 1.99263 -2.2346 0
M  V30 8970 H 817.913 0.957304 -1.07572 0
M  V30 8971 H 819.866 4.09364 -0.999949 0
M  V30 8972 H 818.59 3.26517 -0.0737312 0
M  V30 8973 H 817.249 2.94578 -2.18219 0
M  V30 8974 H 816.897 4.97233 -0.759518 0
M  V30 8975 H 816.597 5.32734 -2.47928 0
M  V30 8976 H 818.121 5.86042 -1.71427 0
M  V30 8977 H 819.535 4.50935 -3.5402 0
M  V30 8978 H 817.932 4.21278 -4.2737 0
M  V30 8979 H 819.002 2.84193 -3.9289 0
M  V30 8980 N 820.346 1.18468 1.03938 0
M  V30 8981 C 821.256 0.927889 2.1547 0
M  V30 8982 C 822.272 -0.108447 1.73662 0
M  V30 8983 O 823.448 0.0737636 2.01265 0
M  V30 8984 C 820.513 0.458494 3.43655 0
M  V30 8985 C 819.574 1.56295 3.99838 0
M  V30 8986 C 818.807 1.11586 5.21904 0
M  V30 8987 O 819.03 -0.0249057 5.70395 0
M  V30 8988 O 817.964 1.91412 5.70653 0
M  V30 8989 H 821.79 1.86116 2.39989 0
M  V30 8990 H 819.375 0.966607 1.13917 0
M  V30 8991 H 821.257 0.204861 4.20902 0
M  V30 8992 H 819.932 -0.446464 3.20606 0
M  V30 8993 H 818.839 1.87061 3.23974 0
M  V30 8994 H 820.172 2.44408 4.2723 0
M  V30 8995 N 821.824 -1.22873 0.986916 0
M  V30 8996 C 822.787 -2.2281 0.537442 0
M  V30 8997 C 823.787 -1.56331 -0.37646 0
M  V30 8998 O 824.977 -1.73376 -0.169247 0
M  V30 8999 C 822.109 -3.40195 -0.219082 0
M  V30 9000 H 823.302 -2.64089 1.42116 0
M  V30 9001 H 820.855 -1.35819 0.773488 0
M  V30 9002 H 821.59 -3.04381 -1.11905 0
M  V30 9003 H 821.375 -3.89657 0.437026 0
M  V30 9004 H 822.865 -4.14326 -0.521926 0
M  V30 9005 N 823.302 -0.75937 -1.38099 0
M  V30 9006 C 824.551 -0.314864 -1.99227 0
M  V30 9007 C 824.864 1.1113 -1.60964 0
M  V30 9008 O 826.07 1.65657 -2.15105 0
M  V30 9009 C 824.526 -0.512001 -3.56239 0
M  V30 9010 C 824.134 -1.94762 -4.0345 0
M  V30 9011 C 825.878 -0.130497 -4.24299 0
M  V30 9012 C 823.785 -2.09301 -5.53125 0
M  V30 9013 H 822.715 -0.113978 -0.745335 0
M  V30 9014 H 825.366 -0.936736 -1.57789 0
M  V30 9015 H 823.748 0.179144 -3.95595 0
M  V30 9016 H 824.922 -2.67271 -3.75371 0
M  V30 9017 H 823.237 -2.28457 -3.48133 0
M  V30 9018 H 825.834 -0.21781 -5.34256 0
M  V30 9019 H 826.177 0.917644 -4.0606 0
M  V30 9020 H 826.71 -0.773716 -3.90203 0
M  V30 9021 H 823.449 -3.1239 -5.76275 0
M  V30 9022 H 822.969 -1.41261 -5.82928 0
M  V30 9023 H 824.648 -1.88571 -6.1891 0
M  V30 9024 N 824.78 1.49157 -0.508906 0
M  V30 9025 C 826.029 2.0167 0.0346854 0
M  V30 9026 C 826.342 1.39302 1.37311 0
M  V30 9027 O 827.548 1.83189 2.00385 0
M  V30 9028 C 826.004 3.59725 0.112261 0
M  V30 9029 C 825.612 4.31069 -1.21999 0
M  V30 9030 C 827.356 4.20155 0.605798 0
M  V30 9031 C 825.263 5.81001 -1.10415 0
M  V30 9032 H 824.193 0.753814 0.0167355 0
M  V30 9033 H 826.844 1.7162 -0.649518 0
M  V30 9034 H 825.226 3.86525 0.861087 0
M  V30 9035 H 826.4 4.15962 -1.98273 0
M  V30 9036 H 824.715 3.82418 -1.64759 0
M  V30 9037 H 827.312 5.29964 0.710102 0
M  V30 9038 H 827.655 3.84051 1.60656 0
M  V30 9039 H 828.188 3.97705 -0.0867239 0
M  V30 9040 H 824.927 6.21643 -2.07941 0
M  V30 9041 H 824.447 5.9858 -0.382428 0
M  V30 9042 H 826.126 6.42207 -0.786116 0
M  V30 9043 N 826.258 0.243083 1.55714 0
M  V30 9044 C 827.221 -0.644723 2.19945 0
M  V30 9045 C 828.221 -1.10562 1.16759 0
M  V30 9046 O 829.411 -1.01095 1.41865 0
M  V30 9047 C 826.543 -1.88569 2.83997 0
M  V30 9048 H 827.736 -0.0843839 2.99781 0
M  V30 9049 H 825.289 -0.00647246 1.56299 0
M  V30 9050 H 826.024 -2.48736 2.08089 0
M  V30 9051 H 825.809 -1.56345 3.59581 0
M  V30 9052 H 827.299 -2.51774 3.33166 0
M  V30 9053 N 827.736 -1.57571 -0.0300757 0
M  V30 9054 C 828.964 -1.93485 -0.732891 0
M  V30 9055 C 829.379 -0.842758 -1.68947 0
M  V30 9056 O 828.736 0.180904 -1.81601 0
M  V30 9057 C 828.787 -3.29328 -1.49082 0
M  V30 9058 O 828.508 -4.34341 -0.572639 0
M  V30 9059 C 830.009 -3.79517 -2.29088 0
M  V30 9060 H 827.229 -0.638588 -0.206026 0
M  V30 9061 H 829.773 -2.04496 0.0120966 0
M  V30 9062 H 827.928 -3.19716 -2.1877 0
M  V30 9063 H 828.342 -5.12748 -1.10406 0
M  V30 9064 H 829.816 -4.77081 -2.77665 0
M  V30 9065 H 830.293 -3.10659 -3.10464 0
M  V30 9066 H 830.899 -3.92208 -1.64477 0
M  V30 9067 N 829.214 0.302327 -1.54673 0
M  V30 9068 C 830.491 1.05721 -1.64567 0
M  V30 9069 C 830.871 2.0526 -0.493108 0
M  V30 9070 O 830.219 2.22729 0.510315 0
M  V30 9071 C 830.429 1.74025 -3.02517 0
M  V30 9072 C 831.777 2.26271 -3.59286 0
M  V30 9073 O 832.801 1.8406 -3.0496 0
M  V30 9074 O 831.66 3.0361 -4.54404 0
M  V30 9075 H 828.754 0.488577 -0.667249 0
M  V30 9076 H 831.3 0.300521 -1.67018 0
M  V30 9077 H 830.072 1.0174 -3.77842 0
M  V30 9078 H 829.695 2.56454 -3.03838 0
M  V30 9079 N 830.692 1.47107 0.565454 0
M  V30 9080 C 832.103 1.47266 1.1476 0
M  V30 9081 C 832.454 0.222841 1.9493 0
M  V30 9082 O 831.579 -0.672862 2.05673 0
M  V30 9083 C 832.174 2.66822 2.08785 0
M  V30 9084 C 830.733 2.69967 2.62288 0
M  V30 9085 C 829.88 2.40236 1.38499 0
M  V30 9086 H 832.831 1.54736 0.352479 0
M  V30 9087 H 832.852 2.43323 2.92531 0
M  V30 9088 H 832.364 3.5777 1.50408 0
M  V30 9089 H 830.465 1.83137 3.24487 0
M  V30 9090 H 830.578 3.70426 3.03845 0
M  V30 9091 H 828.942 1.90648 1.68895 0
M  V30 9092 H 829.725 3.33381 0.819274 0
M  V30 9093 N 832.17 -0.811516 1.35101 0
M  V30 9094 C 833.1 -1.9378 1.30275 0
M  V30 9095 C 834.081 -1.69165 0.178075 0
M  V30 9096 O 835.266 -1.90599 0.372256 0
M  V30 9097 C 832.396 -3.30439 1.06899 0
M  V30 9098 C 831.35 -3.69523 2.15955 0
M  V30 9099 C 830.676 -5.0429 1.77751 0
M  V30 9100 C 831.976 -3.80419 3.57881 0
M  V30 9101 H 833.67 -1.98075 2.24514 0
M  V30 9102 H 831.216 -0.951586 1.08078 0
M  V30 9103 H 833.169 -4.08828 1.02164 0
M  V30 9104 H 831.893 -3.26473 0.0910462 0
M  V30 9105 H 830.552 -2.93416 2.19778 0
M  V30 9106 H 830.2 -4.96823 0.785876 0
M  V30 9107 H 829.9 -5.31411 2.5075 0
M  V30 9108 H 831.424 -5.85125 1.74533 0
M  V30 9109 H 832.838 -4.49051 3.56407 0
M  V30 9110 H 831.235 -4.19005 4.29598 0
M  V30 9111 H 832.305 -2.82105 3.94391 0
M  V30 9112 N 833.648 -1.19017 -1.03309 0
M  V30 9113 C 834.596 -0.920627 -2.13605 0
M  V30 9114 C 835.59 0.121969 -1.6896 0
M  V30 9115 O 836.796 -0.0268854 -1.7998 0
M  V30 9116 H 833.171 -0.280284 -0.697814 0
M  V30 9117 H 835.142 -1.85755 -2.33533 0
M  V30 9118 C 833.891 -0.471198 -3.44492 0
M  V30 9119 H 833.214 -1.26499 -3.7926 0
M  V30 9120 H 834.654 -0.321663 -4.22778 0
M  V30 9121 C 833.113 0.81411 -3.26916 0
M  V30 9122 O 833.643 1.87654 -3.55175 0
M  V30 9123 N 831.849 0.769695 -2.80221 0
M  V30 9124 H 831.396 -0.0951278 -2.57424 0
M  V30 9125 H 831.354 1.63008 -2.68842 0
M  V30 9126 N 835.127 1.22348 -0.993418 0
M  V30 9127 C 836.538 1.72893 -0.704616 0
M  V30 9128 C 836.889 1.80095 0.778483 0
M  V30 9129 O 836.014 1.4476 1.60853 0
M  V30 9130 C 836.609 3.14 -1.27237 0
M  V30 9131 C 835.168 3.61949 -1.03294 0
M  V30 9132 C 834.315 2.39816 -1.39225 0
M  V30 9133 H 837.266 1.07688 -1.16572 0
M  V30 9134 H 837.287 3.74886 -0.651212 0
M  V30 9135 H 836.799 3.08727 -2.3518 0
M  V30 9136 H 834.9 3.72588 0.0298329 0
M  V30 9137 H 835.013 4.48051 -1.69668 0
M  V30 9138 H 833.377 2.41448 -0.810849 0
M  V30 9139 H 834.16 2.37203 -2.48172 0
M  V30 9140 N 836.605 0.766683 1.37694 0
M  V30 9141 C 837.535 0.163432 2.32927 0
M  V30 9142 C 838.516 -0.688861 1.55527 0
M  V30 9143 O 839.701 -0.627363 1.83787 0
M  V30 9144 C 836.831 -0.720416 3.39746 0
M  V30 9145 C 835.785 0.0301718 4.27989 0
M  V30 9146 C 835.111 -0.972788 5.25776 0
M  V30 9147 C 836.411 1.20623 5.0818 0
M  V30 9148 H 838.105 0.958988 2.83626 0
M  V30 9149 H 835.651 0.462601 1.36367 0
M  V30 9150 H 837.604 -1.15221 4.05342 0
M  V30 9151 H 836.328 -1.54844 2.8756 0
M  V30 9152 H 834.987 0.442685 3.63917 0
M  V30 9153 H 834.635 -1.79522 4.69873 0
M  V30 9154 H 834.335 -0.475145 5.85676 0
M  V30 9155 H 835.859 -1.40362 5.94248 0
M  V30 9156 H 837.273 0.851341 5.66944 0
M  V30 9157 H 835.67 1.63561 5.7738 0
M  V30 9158 H 836.74 2.01281 4.41151 0
M  V30 9159 N 838.083 -1.48885 0.516809 0
M  V30 9160 C 839.311 -2.06892 -0.0184017 0
M  V30 9161 C 839.726 -1.37511 -1.29368 0
M  V30 9162 O 839.083 -0.458409 -1.76649 0
M  V30 9163 C 839.134 -3.60566 -0.259673 0
M  V30 9164 O 838.855 -4.27338 0.965065 0
M  V30 9165 C 840.356 -4.35331 -0.836751 0
M  V30 9166 H 837.576 -0.670433 0.0275743 0
M  V30 9167 H 840.12 -1.91455 0.718689 0
M  V30 9168 H 838.275 -3.75653 -0.94678 0
M  V30 9169 H 838.689 -5.19287 0.737647 0
M  V30 9170 H 840.163 -5.43675 -0.955065 0
M  V30 9171 H 840.64 -3.9887 -1.83845 0
M  V30 9172 H 841.246 -4.2489 -0.186622 0
M  V30 9173 N 839.561 -0.251338 -1.55583 0
M  V30 9174 C 840.524 0.63305 -2.20284 0
M  V30 9175 C 841.524 1.09941 -1.17344 0
M  V30 9176 O 842.714 1.00341 -1.42399 0
M  V30 9177 C 839.846 1.8706 -2.84993 0
M  V30 9178 H 841.039 0.0684846 -2.99822 0
M  V30 9179 H 838.592 -0.00181653 -1.563 0
M  V30 9180 H 839.327 2.47629 -2.09405 0
M  V30 9181 H 839.112 1.54436 -3.60405 0
M  V30 9182 H 840.602 2.50004 -3.34496 0
M  V30 9183 N 841.039 1.57585 0.0217189 0
M  V30 9184 C 841.949 2.10444 1.03684 0
M  V30 9185 C 842.965 1.04472 1.39146 0
M  V30 9186 O 844.141 1.36249 1.48317 0
M  V30 9187 C 841.206 2.5794 2.31664 0
M  V30 9188 C 840.267 3.78425 2.02714 0
M  V30 9189 C 839.5 4.23646 3.24592 0
M  V30 9190 O 839.723 3.6834 4.35525 0
M  V30 9191 O 838.657 5.16013 3.09862 0
M  V30 9192 H 842.483 2.97354 0.617584 0
M  V30 9193 H 840.068 1.47473 0.239174 0
M  V30 9194 H 841.95 2.88785 3.06889 0
M  V30 9195 H 840.625 1.74138 2.7287 0
M  V30 9196 H 839.532 3.52587 1.25033 0
M  V30 9197 H 840.865 4.63234 1.66359 0
M  V30 9198 N 842.517 -0.29412 1.54831 0
M  V30 9199 C 843.794 -1.04847 1.65126 0
M  V30 9200 C 844.174 -2.04996 0.503986 0
M  V30 9201 O 843.522 -2.22996 -0.498496 0
M  V30 9202 C 843.732 -1.72418 3.03435 0
M  V30 9203 C 845.08 -2.24362 3.60481 0
M  V30 9204 O 846.104 -1.8244 3.05932 0
M  V30 9205 O 844.963 -3.01196 4.56008 0
M  V30 9206 H 842.057 -0.485032 0.669831 0
M  V30 9207 H 844.603 -0.291659 1.67175 0
M  V30 9208 H 843.375 -0.997351 3.78376 0
M  V30 9209 H 842.998 -2.54839 3.05193 0
M  V30 9210 N 843.995 -1.47404 -0.557645 0
M  V30 9211 C 844.942 -1.59859 -1.66475 0
M  V30 9212 C 845.912 -0.441644 -1.60121 0
M  V30 9213 O 847.097 -0.661641 -1.78961 0
M  V30 9214 C 844.237 -1.61843 -3.04797 0
M  V30 9215 C 843.35 -2.8845 -3.2159 0
M  V30 9216 C 842.485 -2.81773 -4.50308 0
M  V30 9217 C 841.524 -4.03208 -4.60532 0
M  V30 9218 N 840.661 -3.94769 -5.80604 0
M  V30 9219 H 845.501 -2.54415 -1.55168 0
M  V30 9220 H 843.038 -1.26194 -0.755876 0
M  V30 9221 H 844.996 -1.60976 -3.84893 0
M  V30 9222 H 843.626 -0.707997 -3.1494 0
M  V30 9223 H 842.678 -2.99186 -2.34929 0
M  V30 9224 H 843.99 -3.78379 -3.25009 0
M  V30 9225 H 843.144 -2.79153 -5.38663 0
M  V30 9226 H 841.883 -1.89527 -4.49367 0
M  V30 9227 H 840.888 -4.06133 -3.70589 0
M  V30 9228 H 842.113 -4.9658 -4.63233 0
M  V30 9229 H 840.059 -3.05326 -5.80613 0
M  V30 9230 H 839.976 -4.78375 -5.854 0
M  V30 9231 H 841.244 -3.96165 -6.71322 0
M  V30 9232 N 845.473 0.80434 -1.35529 0
M  V30 9233 C 846.383 1.94784 -1.30753 0
M  V30 9234 C 847.399 1.72703 -0.212071 0
M  V30 9235 O 848.575 1.96494 -0.441841 0
M  V30 9236 C 845.64 3.29406 -1.08133 0
M  V30 9237 C 844.701 3.64367 -2.27013 0
M  V30 9238 C 843.934 4.92566 -2.05463 0
M  V30 9239 O 844.157 5.61166 -1.02222 0
M  V30 9240 O 843.091 5.25838 -2.92879 0
M  V30 9241 H 846.917 2.01761 -2.26994 0
M  V30 9242 H 844.502 0.942448 -1.15924 0
M  V30 9243 H 846.384 4.09995 -0.973756 0
M  V30 9244 H 845.059 3.23355 -0.149444 0
M  V30 9245 H 843.966 2.84146 -2.43335 0
M  V30 9246 H 845.299 3.75125 -3.18656 0
M  V30 9247 N 846.951 1.19563 1.02676 0
M  V30 9248 C 847.881 0.959024 2.12897 0
M  V30 9249 C 848.862 -0.108382 1.69754 0
M  V30 9250 O 850.047 0.0470698 1.94143 0
M  V30 9251 C 847.177 0.499211 3.43693 0
M  V30 9252 C 846.131 1.5087 4.00528 0
M  V30 9253 C 845.457 0.905884 5.2697 0
M  V30 9254 C 846.757 2.88954 4.3509 0
M  V30 9255 H 848.451 1.88084 2.32948 0
M  V30 9256 H 845.997 0.905731 1.11949 0
M  V30 9257 H 847.95 0.320965 4.20176 0
M  V30 9258 H 846.674 -0.458205 3.2337 0
M  V30 9259 H 845.333 1.67413 3.26142 0
M  V30 9260 H 844.981 -0.0591506 5.02965 0
M  V30 9261 H 844.681 1.58 5.65959 0
M  V30 9262 H 846.205 0.73848 6.06118 0
M  V30 9263 H 847.619 2.75981 5.02501 0
M  V30 9264 H 846.016 3.53177 4.85166 0
M  V30 9265 H 847.086 3.41447 3.44299 0
M  V30 9266 N 848.429 -1.21819 0.999893 0
M  V30 9267 C 849.359 -2.26282 0.576096 0
M  V30 9268 C 850.34 -1.65317 -0.400537 0
M  V30 9269 O 851.525 -1.92028 -0.28964 0
M  V30 9270 C 848.655 -3.47147 -0.103145 0
M  V30 9271 C 847.609 -4.20594 0.792745 0
M  V30 9272 C 846.935 -5.34696 -0.0198026 0
M  V30 9273 C 848.235 -4.78533 2.09293 0
M  V30 9274 H 849.929 -2.61984 1.4493 0
M  V30 9275 H 847.475 -1.25935 0.698316 0
M  V30 9276 H 849.428 -4.1939 -0.411068 0
M  V30 9277 H 848.152 -3.1056 -1.01094 0
M  V30 9278 H 846.811 -3.50194 1.08442 0
M  V30 9279 H 846.459 -4.94352 -0.928729 0
M  V30 9280 H 846.159 -5.84764 0.576661 0
M  V30 9281 H 847.683 -6.09752 -0.321659 0
M  V30 9282 H 849.097 -5.42682 1.8485 0
M  V30 9283 H 847.494 -5.38968 2.63881 0
M  V30 9284 H 848.564 -3.98197 2.76708 0
M  V30 9285 N 849.908 -0.773975 -1.37286 0
M  V30 9286 C 851.154 -0.348833 -2.00386 0
M  V30 9287 C 851.509 1.06347 -1.60337 0
M  V30 9288 O 850.802 1.72178 -0.840545 0
M  V30 9289 C 850.996 -0.432651 -3.54772 0
M  V30 9290 C 850.825 -1.85155 -4.09814 0
M  V30 9291 C 849.595 -2.47272 -4.40664 0
M  V30 9292 C 851.793 -2.8114 -4.30656 0
M  V30 9293 N 849.775 -3.80912 -4.81435 0
M  V30 9294 C 851.146 -3.99582 -4.74061 0
M  V30 9295 C 853.201 -2.78398 -4.12794 0
M  V30 9296 C 851.904 -5.1567 -5.01475 0
M  V30 9297 C 853.93 -3.9366 -4.41345 0
M  V30 9298 C 853.292 -5.10844 -4.84992 0
M  V30 9299 H 849.391 -0.174738 -0.762227 0
M  V30 9300 H 851.975 -1.00828 -1.66559 0
M  V30 9301 H 850.146 0.19663 -3.87902 0
M  V30 9302 H 851.878 0.0147601 -4.04697 0
M  V30 9303 H 848.633 -1.98872 -4.29822 0
M  V30 9304 H 849.057 -4.49628 -5.06126 0
M  V30 9305 H 853.699 -1.8897 -3.7822 0
M  V30 9306 H 851.417 -6.05696 -5.34938 0
M  V30 9307 H 855.003 -3.92882 -4.2911 0
M  V30 9308 H 853.883 -5.98553 -5.0666 0
M  V30 9309 N 851.386 1.48609 -0.524698 0
M  V30 9310 C 852.336 2.26505 0.260696 0
M  V30 9311 C 853.32 1.32378 0.914597 0
M  V30 9312 O 854.512 1.5695 0.818277 0
M  V30 9313 C 851.641 3.17313 1.31024 0
M  V30 9314 C 850.727 4.18911 0.661391 0
M  V30 9315 N 851.118 5.05183 -0.24981 0
M  V30 9316 C 849.416 4.36425 0.91922 0
M  V30 9317 C 850.117 5.78348 -0.623598 0
M  V30 9318 N 849.093 5.43598 0.0140839 0
M  V30 9319 H 852.895 2.90582 -0.440388 0
M  V30 9320 H 850.409 1.5875 -0.342364 0
M  V30 9321 H 852.406 3.71772 1.88656 0
M  V30 9322 H 851.066 2.54791 2.01275 0
M  V30 9323 H 852.077 5.1415 -0.622093 0
M  V30 9324 H 848.754 3.85095 1.6127 0
M  V30 9325 H 850.144 6.57775 -1.37046 0
M  V30 9326 N 852.864 0.259585 1.55447 0
M  V30 9327 C 854.111 -0.361607 1.99245 0
M  V30 9328 C 854.439 -1.57017 1.14787 0
M  V30 9329 O 853.694 -1.94658 0.201724 0
M  V30 9330 C 853.993 -0.802727 3.48269 0
M  V30 9331 C 853.659 0.299472 4.49904 0
M  V30 9332 C 852.321 0.602157 4.77418 0
M  V30 9333 C 854.673 1.04295 5.10658 0
M  V30 9334 C 852.001 1.65217 5.62957 0
M  V30 9335 C 854.353 2.08257 5.97337 0
M  V30 9336 C 853.017 2.39177 6.23178 0
M  V30 9337 H 852.287 -0.132322 0.72909 0
M  V30 9338 H 854.934 0.370059 1.8789 0
M  V30 9339 H 853.239 -1.61381 3.5702 0
M  V30 9340 H 854.936 -1.29385 3.79553 0
M  V30 9341 H 851.526 0.0534256 4.28567 0
M  V30 9342 H 855.71 0.822358 4.89439 0
M  V30 9343 H 850.966 1.89692 5.81229 0
M  V30 9344 H 855.14 2.6635 6.43452 0
M  V30 9345 H 852.767 3.20677 6.89253 0
M  V30 9346 N 854.342 -1.57594 -0.0133615 0
M  V30 9347 C 855.758 -1.5527 -0.369255 0
M  V30 9348 C 855.958 -0.987751 -1.7563 0
M  V30 9349 O 855.014 -0.615683 -2.44879 0
M  V30 9350 C 856.327 -2.99602 -0.25672 0
M  V30 9351 C 857.875 -3.11227 -0.332647 0
M  V30 9352 C 858.35 -4.57321 -0.249387 0
M  V30 9353 N 859.841 -4.62177 -0.3077 0
M  V30 9354 C 860.576 -5.72781 -0.26641 0
M  V30 9355 N 860.072 -6.92575 -0.176494 0
M  V30 9356 N 861.865 -5.61204 -0.317295 0
M  V30 9357 H 854.016 -1.92662 0.894154 0
M  V30 9358 H 856.279 -0.884352 0.341505 0
M  V30 9359 H 855.985 -3.44723 0.697072 0
M  V30 9360 H 855.859 -3.6246 -1.04415 0
M  V30 9361 H 858.246 -2.66045 -1.27688 0
M  V30 9362 H 858.327 -2.51171 0.484412 0
M  V30 9363 H 857.971 -5.03174 0.691242 0
M  V30 9364 H 857.901 -5.15306 -1.08476 0
M  V30 9365 H 860.392 -3.75994 -0.379069 0
M  V30 9366 H 860.705 -7.72653 -0.150518 0
M  V30 9367 H 859.05 -6.94854 -0.142314 0
M  V30 9368 H 862.241 -4.66509 -0.385643 0
M  V30 9369 H 862.414 -6.47388 -0.28165 0
M  V30 9370 N 855.82 0.285905 -1.54985 0
M  V30 9371 C 857.05 1.03626 -1.78732 0
M  V30 9372 C 857.458 1.80896 -0.554377 0
M  V30 9373 O 856.801 1.77161 0.48578 0
M  V30 9374 C 856.863 2.05185 -2.95193 0
M  V30 9375 C 856.527 1.46973 -4.32722 0
M  V30 9376 C 857.524 0.891986 -5.12191 0
M  V30 9377 C 855.209 1.50081 -4.79355 0
M  V30 9378 C 857.203 0.353078 -6.36421 0
M  V30 9379 C 854.89 0.958037 -6.03544 0
M  V30 9380 C 855.888 0.385157 -6.81913 0
M  V30 9381 O 855.576 -0.149341 -8.03761 0
M  V30 9382 H 855.308 0.312416 -0.599477 0
M  V30 9383 H 857.862 0.326067 -2.02795 0
M  V30 9384 H 856.092 2.79928 -2.66791 0
M  V30 9385 H 857.781 2.66244 -3.0638 0
M  V30 9386 H 858.547 0.860762 -4.77301 0
M  V30 9387 H 854.426 1.9361 -4.18373 0
M  V30 9388 H 857.97 -0.0947181 -6.97536 0
M  V30 9389 H 853.867 0.986458 -6.37918 0
M  V30 9390 H 854.635 -0.0374719 -8.18491 0
M  V30 9391 N 857.298 1.47698 0.54982 0
M  V30 9392 C 858.208 1.63386 1.68351 0
M  V30 9393 C 859.224 0.516583 1.66155 0
M  V30 9394 O 860.4 0.785088 1.85468 0
M  V30 9395 C 857.465 1.6513 3.04849 0
M  V30 9396 C 856.526 2.88338 3.18056 0
M  V30 9397 C 855.759 2.8999 4.48042 0
M  V30 9398 O 855.982 2.00633 5.3395 0
M  V30 9399 O 854.916 3.81938 4.65196 0
M  V30 9400 H 858.742 2.59329 1.58057 0
M  V30 9401 H 856.327 1.30869 0.72067 0
M  V30 9402 H 858.209 1.68913 3.86065 0
M  V30 9403 H 856.884 0.723555 3.1551 0
M  V30 9404 H 855.791 2.90097 2.36209 0
M  V30 9405 H 857.124 3.80431 3.12302 0
M  V30 9406 N 858.776 -0.797141 1.35954 0
M  V30 9407 C 860.001 -1.59097 1.33053 0
M  V30 9408 C 860.426 -1.87897 -0.0874592 0
M  V30 9409 O 859.784 -1.47291 -1.05712 0
M  V30 9410 C 859.832 -2.89346 2.152 0
M  V30 9411 O 858.936 -3.826 1.5392 0
M  V30 9412 H 858.277 -0.482895 0.45575 0
M  V30 9413 H 860.807 -0.988633 1.79129 0
M  V30 9414 H 860.817 -3.38686 2.27499 0
M  V30 9415 H 859.492 -2.6771 3.18283 0
M  V30 9416 H 858.069 -3.41174 1.50516 0
M  V30 9417 N 860.254 -1.20106 -1.0204 0
M  V30 9418 C 861.184 -0.970301 -2.12385 0
M  V30 9419 C 862.165 0.099378 -1.69809 0
M  V30 9420 O 863.35 -0.057365 -1.94115 0
M  V30 9421 C 860.48 -0.517431 -3.43424 0
M  V30 9422 C 859.434 -1.52992 -3.99722 0
M  V30 9423 C 858.76 -0.933817 -5.26483 0
M  V30 9424 C 860.06 -2.91257 -4.33551 0
M  V30 9425 H 861.754 -1.89316 -2.31948 0
M  V30 9426 H 859.3 -0.911655 -1.11467 0
M  V30 9427 H 861.253 -0.343243 -4.2 0
M  V30 9428 H 859.977 0.441049 -3.23608 0
M  V30 9429 H 858.636 -1.6914 -3.2525 0
M  V30 9430 H 858.284 0.0324763 -5.0299 0
M  V30 9431 H 857.984 -1.60999 -5.65113 0
M  V30 9432 H 859.508 -0.770614 -6.05718 0
M  V30 9433 H 860.922 -2.78642 -5.0103 0
M  V30 9434 H 859.319 -3.55745 -4.83286 0
M  V30 9435 H 860.389 -3.43269 -3.42483 0
M  V30 9436 N 861.732 1.21287 -1.00634 0
M  V30 9437 C 862.679 2.23705 -0.567876 0
M  V30 9438 C 863.649 1.61043 0.406753 0
M  V30 9439 O 864.834 1.88289 0.308499 0
M  V30 9440 C 861.974 3.44961 0.097996 0
M  V30 9441 C 861.087 4.22091 -0.919972 0
M  V30 9442 C 860.222 5.30718 -0.226222 0
M  V30 9443 C 859.261 5.99581 -1.23165 0
M  V30 9444 N 858.398 6.99821 -0.565278 0
M  V30 9445 H 863.238 2.60571 -1.44592 0
M  V30 9446 H 860.775 1.28049 -0.724006 0
M  V30 9447 H 862.733 4.1418 0.501097 0
M  V30 9448 H 861.363 3.08818 0.939744 0
M  V30 9449 H 860.415 3.52038 -1.44131 0
M  V30 9450 H 861.727 4.69476 -1.68505 0
M  V30 9451 H 860.881 6.06253 0.232917 0
M  V30 9452 H 859.62 4.84343 0.571247 0
M  V30 9453 H 858.625 5.22816 -1.70128 0
M  V30 9454 H 859.85 6.48042 -2.03022 0
M  V30 9455 H 857.796 6.55656 0.212508 0
M  V30 9456 H 857.713 7.4528 -1.26858 0
M  V30 9457 H 858.981 7.79393 -0.129389 0
M  V30 9458 N 863.21 0.781244 1.36873 0
M  V30 9459 C 864.16 0.147313 2.27524 0
M  V30 9460 C 865.144 -0.663928 1.46563 0
M  V30 9461 O 866.336 -0.525343 1.69024 0
M  V30 9462 C 863.465 -0.723511 3.35589 0
M  V30 9463 C 862.551 0.0960763 4.23991 0
M  V30 9464 N 862.942 1.14649 4.92635 0
M  V30 9465 C 861.24 -0.126397 4.45821 0
M  V30 9466 C 861.941 1.64474 5.57964 0
M  V30 9467 N 860.917 0.955316 5.3514 0
M  V30 9468 H 864.719 0.951406 2.78075 0
M  V30 9469 H 862.233 0.619913 1.50103 0
M  V30 9470 H 864.23 -1.19351 3.99451 0
M  V30 9471 H 862.89 -1.52624 2.86594 0
M  V30 9472 H 863.901 1.5288 4.94821 0
M  V30 9473 H 860.578 -0.900284 4.07678 0
M  V30 9474 H 861.968 2.52124 6.22803 0
M  V30 9475 N 864.689 -1.48329 0.532571 0
M  V30 9476 C 866.1 -1.86469 0.0927749 0
M  V30 9477 C 866.451 -1.44186 -1.3306 0
M  V30 9478 O 865.576 -0.833741 -1.99694 0
M  V30 9479 C 866.171 -3.38414 0.161588 0
M  V30 9480 C 864.73 -3.75739 -0.223028 0
M  V30 9481 C 863.877 -2.72377 0.520199 0
M  V30 9482 H 866.828 -1.40197 0.743678 0
M  V30 9483 H 866.849 -3.75314 -0.626059 0
M  V30 9484 H 866.361 -3.69159 1.19765 0
M  V30 9485 H 864.462 -3.50608 -1.26113 0
M  V30 9486 H 864.575 -4.78954 0.118385 0
M  V30 9487 H 862.939 -2.54678 -0.0338425 0
M  V30 9488 H 863.722 -3.05965 1.55694 0
M  V30 9489 N 866.167 -0.267825 -1.55308 0
M  V30 9490 C 867.114 0.6228 -2.22238 0
M  V30 9491 C 868.084 1.15536 -1.19334 0
M  V30 9492 O 869.269 1.206 -1.47852 0
M  V30 9493 C 866.409 1.80447 -2.94164 0
M  V30 9494 C 865.522 1.30646 -4.11771 0
M  V30 9495 C 864.657 2.44935 -4.7136 0
M  V30 9496 C 863.696 1.92099 -5.81175 0
M  V30 9497 N 862.833 2.99834 -6.34857 0
M  V30 9498 H 867.673 0.0453874 -2.97965 0
M  V30 9499 H 865.21 0.0106371 -1.47096 0
M  V30 9500 H 867.168 2.49896 -3.34078 0
M  V30 9501 H 865.798 2.35403 -2.20874 0
M  V30 9502 H 864.85 0.505314 -3.77029 0
M  V30 9503 H 866.162 0.879409 -4.90987 0
M  V30 9504 H 865.316 3.2239 -5.13955 0
M  V30 9505 H 864.055 2.90951 -3.91406 0
M  V30 9506 H 863.06 1.13122 -5.38037 0
M  V30 9507 H 864.285 1.47027 -6.62993 0
M  V30 9508 H 862.231 3.45246 -5.578 0
M  V30 9509 H 862.148 2.61524 -7.09324 0
M  V30 9510 H 863.416 3.77286 -6.82111 0
M  V30 9511 N 867.645 1.57599 0.00500368 0
M  V30 9512 C 868.608 2.07058 0.982832 0
M  V30 9513 C 869.608 0.979045 1.27559 0
M  V30 9514 O 870.798 1.24187 1.22161 0
M  V30 9515 C 867.93 2.50782 2.30914 0
M  V30 9516 H 869.123 2.94718 0.555119 0
M  V30 9517 H 866.676 1.54249 0.25237 0
M  V30 9518 H 867.411 1.66351 2.78385 0
M  V30 9519 H 867.196 3.30495 2.10987 0
M  V30 9520 H 868.686 2.89391 3.0107 0
M  V30 9521 N 869.123 -0.277682 1.55134 0
M  V30 9522 C 870.353 -1.02677 1.79279 0
M  V30 9523 C 870.761 -1.80599 0.563962 0
M  V30 9524 O 870.104 -1.77416 -0.476378 0
M  V30 9525 C 870.166 -2.03617 2.96277 0
M  V30 9526 C 869.83 -1.44676 4.33495 0
M  V30 9527 C 870.827 -0.864811 5.12657 0
M  V30 9528 C 868.512 -1.47537 4.80144 0
M  V30 9529 C 870.506 -0.319322 6.366 0
M  V30 9530 C 868.193 -0.926016 6.04043 0
M  V30 9531 C 869.191 -0.348988 6.82108 0
M  V30 9532 O 868.879 0.191964 8.03671 0
M  V30 9533 H 868.611 -0.309232 0.601125 0
M  V30 9534 H 871.165 -0.315308 2.02965 0
M  V30 9535 H 869.395 -2.78509 2.68272 0
M  V30 9536 H 871.084 -2.64616 3.07788 0
M  V30 9537 H 871.85 -0.835438 4.7775 0
M  V30 9538 H 867.729 -1.91389 4.19394 0
M  V30 9539 H 871.273 0.131709 6.97476 0
M  V30 9540 H 867.17 -0.952613 6.38432 0
M  V30 9541 H 867.938 0.0808779 8.1846 0
M  V30 9542 N 870.601 -1.47988 -0.541979 0
M  V30 9543 C 872.012 -1.49073 -1.12402 0
M  V30 9544 C 872.363 -0.253825 -1.94551 0
M  V30 9545 O 871.488 0.640056 -2.06718 0
M  V30 9546 C 872.083 -2.7011 -2.04514 0
M  V30 9547 C 870.642 -2.74105 -2.5796 0
M  V30 9548 C 869.789 -2.42409 -1.3466 0
M  V30 9549 H 872.74 -1.55277 -0.327818 0
M  V30 9550 H 872.761 -2.47946 -2.88623 0
M  V30 9551 H 872.273 -3.60117 -1.44697 0
M  V30 9552 H 870.374 -1.88276 -3.21532 0
M  V30 9553 H 870.487 -3.75213 -2.97913 0
M  V30 9554 H 868.851 -1.9331 -1.65841 0
M  V30 9555 H 869.634 -3.34642 -0.766133 0
M  V30 9556 N 872.079 0.78992 -1.36375 0
M  V30 9557 C 873.026 1.90254 -1.3066 0
M  V30 9558 C 873.996 1.65171 -0.17539 0
M  V30 9559 O 875.181 1.87338 -0.361824 0
M  V30 9560 C 872.321 3.27057 -1.10125 0
M  V30 9561 C 871.434 3.64215 -2.32317 0
M  V30 9562 C 870.569 4.90134 -2.04798 0
M  V30 9563 C 869.608 5.19969 -3.22953 0
M  V30 9564 N 868.745 6.37071 -2.95102 0
M  V30 9565 H 873.585 1.94474 -2.25796 0
M  V30 9566 H 871.122 0.951022 -1.12223 0
M  V30 9567 H 873.08 4.05947 -0.962453 0
M  V30 9568 H 871.71 3.22261 -0.186444 0
M  V30 9569 H 870.762 2.80454 -2.57002 0
M  V30 9570 H 872.074 3.82212 -3.20492 0
M  V30 9571 H 871.228 5.76888 -1.87845 0
M  V30 9572 H 869.967 4.74205 -1.13932 0
M  V30 9573 H 868.972 4.31699 -3.40465 0
M  V30 9574 H 870.197 5.37817 -4.14644 0
M  V30 9575 H 868.143 6.22535 -2.06848 0
M  V30 9576 H 868.06 6.55398 -3.76815 0
M  V30 9577 H 869.328 7.26808 -2.81727 0
M  V30 9578 N 873.557 1.20646 1.01402 0
M  V30 9579 C 874.487 0.98155 2.11867 0
M  V30 9580 C 875.468 -0.0903712 1.6986 0
M  V30 9581 O 876.653 0.0676586 1.94082 0
M  V30 9582 C 873.783 0.535636 3.43145 0
M  V30 9583 C 872.737 1.55109 3.98905 0
M  V30 9584 C 872.063 0.961725 5.2598 0
M  V30 9585 C 873.363 2.93552 4.32001 0
M  V30 9586 H 875.057 1.90544 2.3094 0
M  V30 9587 H 872.603 0.917554 1.10982 0
M  V30 9588 H 874.556 0.365512 4.19812 0
M  V30 9589 H 873.28 -0.423882 3.23838 0
M  V30 9590 H 871.939 1.70862 3.24348 0
M  V30 9591 H 871.587 -0.00580108 5.03 0
M  V30 9592 H 871.287 1.63993 5.64252 0
M  V30 9593 H 872.811 0.802726 6.053 0
M  V30 9594 H 874.225 2.81295 4.99546 0
M  V30 9595 H 872.622 3.58303 4.81393 0
M  V30 9596 H 873.692 3.4508 3.40658 0
M  V30 9597 N 875.035 -1.20752 1.01276 0
M  V30 9598 C 876.282 -1.90021 0.699887 0
M  V30 9599 C 876.61 -1.78604 -0.770113 0
M  V30 9600 O 875.865 -1.16195 -1.57471 0
M  V30 9601 C 876.164 -3.40808 1.07633 0
M  V30 9602 C 875.83 -3.72423 2.54189 0
M  V30 9603 C 874.492 -3.80762 2.94234 0
M  V30 9604 C 876.844 -3.87025 3.49086 0
M  V30 9605 C 874.172 -4.01158 4.28123 0
M  V30 9606 C 876.524 -4.0893 4.82658 0
M  V30 9607 C 875.188 -4.15498 5.22415 0
M  V30 9608 H 874.458 -0.695335 0.256107 0
M  V30 9609 H 877.105 -1.43096 1.27263 0
M  V30 9610 H 875.41 -3.89521 0.421944 0
M  V30 9611 H 877.107 -3.92693 0.811997 0
M  V30 9612 H 873.697 -3.66529 2.22158 0
M  V30 9613 H 877.881 -3.79942 3.19309 0
M  V30 9614 H 873.137 -4.04476 4.58486 0
M  V30 9615 H 877.311 -4.19172 5.56119 0
M  V30 9616 H 874.938 -4.31055 6.26176 0
M  V30 9617 N 876.513 -0.788492 -1.36457 0
M  V30 9618 C 877.738 -0.371224 -2.04051 0
M  V30 9619 C 878.163 1.004 -1.59064 0
M  V30 9620 O 877.521 1.64663 -0.758679 0
M  V30 9621 C 877.569 -0.442275 -3.57877 0
M  V30 9622 O 876.673 0.55113 -4.08701 0
M  V30 9623 H 876.014 -0.157808 -0.644975 0
M  V30 9624 H 878.544 -1.06935 -1.74431 0
M  V30 9625 H 878.554 -0.305548 -4.06854 0
M  V30 9626 H 877.229 -1.44547 -3.89973 0
M  V30 9627 H 875.806 0.37614 -3.70998 0
M  V30 9628 N 877.991 1.48044 -0.54043 0
M  V30 9629 C 879.216 2.07396 -0.0124765 0
M  V30 9630 C 879.641 1.39288 1.26414 0
M  V30 9631 O 878.999 0.462252 1.75308 0
M  V30 9632 C 879.047 3.60131 0.18377 0
M  V30 9633 O 878.151 3.92995 1.25014 0
M  V30 9634 H 877.492 0.662554 -0.0438026 0
M  V30 9635 H 880.022 1.90306 -0.751327 0
M  V30 9636 H 880.032 4.06003 0.403197 0
M  V30 9637 H 878.707 4.09105 -0.74874 0
M  V30 9638 H 877.284 3.5889 1.01254 0
M  V30 9639 N 879.47 0.276058 1.55163 0
M  V30 9640 C 880.716 -0.340959 1.99913 0
M  V30 9641 C 881.049 -1.55434 1.16422 0
M  V30 9642 O 880.324 -1.93081 0.234517 0
M  V30 9643 C 880.607 -0.722211 3.52783 0
M  V30 9644 C 880.46 0.498575 4.47028 0
M  V30 9645 C 881.779 -1.5583 4.11589 0
M  V30 9646 H 878.898 -0.122455 0.726756 0
M  V30 9647 H 881.54 0.38319 1.86096 0
M  V30 9648 H 879.69 -1.33919 3.64689 0
M  V30 9649 H 881.362 1.13713 4.47065 0
M  V30 9650 H 879.605 1.13646 4.18649 0
M  V30 9651 H 880.276 0.188041 5.5168 0
M  V30 9652 H 882.752 -1.03722 4.02965 0
M  V30 9653 H 881.628 -1.79387 5.1876 0
M  V30 9654 H 881.889 -2.53963 3.61877 0
M  V30 9655 N 880.948 -1.576 0.00335426 0
M  V30 9656 C 881.895 -2.08632 -0.986975 0
M  V30 9657 C 882.865 -0.982491 -1.33927 0
M  V30 9658 O 884.05 -1.25513 -1.43705 0
M  V30 9659 C 881.19 -2.59705 -2.27261 0
M  V30 9660 C 880.303 -3.84002 -1.97905 0
M  V30 9661 C 879.438 -4.23563 -3.20574 0
M  V30 9662 C 878.477 -5.40688 -2.8692 0
M  V30 9663 N 877.614 -5.75526 -4.02136 0
M  V30 9664 H 882.454 -2.92977 -0.544855 0
M  V30 9665 H 879.991 -1.44831 -0.257376 0
M  V30 9666 H 881.949 -2.87395 -3.02423 0
M  V30 9667 H 880.579 -1.7823 -2.69136 0
M  V30 9668 H 879.631 -3.63199 -1.13096 0
M  V30 9669 H 880.943 -4.69261 -1.69102 0
M  V30 9670 H 880.097 -4.52554 -4.04079 0
M  V30 9671 H 878.836 -3.37019 -3.52518 0
M  V30 9672 H 877.841 -5.11417 -2.01822 0
M  V30 9673 H 879.066 -6.2891 -2.5622 0
M  V30 9674 H 877.012 -4.9194 -4.33971 0
M  V30 9675 H 876.929 -6.55367 -3.76869 0
M  V30 9676 H 878.197 -6.0911 -4.8642 0
M  V30 9677 N 882.426 0.269451 -1.5528 0
M  V30 9678 C 883.672 0.997946 -1.77236 0
M  V30 9679 C 884.027 1.83808 -0.568546 0
M  V30 9680 O 883.32 1.8651 0.438706 0
M  V30 9681 C 883.514 1.91 -3.02082 0
M  V30 9682 C 883.343 1.15963 -4.34491 0
M  V30 9683 C 882.113 0.873873 -4.97686 0
M  V30 9684 C 884.311 0.548307 -5.11369 0
M  V30 9685 N 882.293 0.0970863 -6.13823 0
M  V30 9686 C 883.664 -0.0941413 -6.19929 0
M  V30 9687 C 885.719 0.456507 -4.95803 0
M  V30 9688 C 884.422 -0.819547 -7.14616 0
M  V30 9689 C 886.448 -0.255315 -5.90849 0
M  V30 9690 C 885.81 -0.886488 -6.988 0
M  V30 9691 H 881.909 0.347038 -0.700777 0
M  V30 9692 H 884.493 0.273262 -1.92773 0
M  V30 9693 H 882.664 2.60691 -2.87915 0
M  V30 9694 H 884.396 2.57237 -3.12428 0
M  V30 9695 H 881.151 1.18003 -4.58663 0
M  V30 9696 H 881.575 -0.278741 -6.76426 0
M  V30 9697 H 886.217 0.930164 -4.12441 0
M  V30 9698 H 883.935 -1.30488 -7.97495 0
M  V30 9699 H 887.521 -0.32671 -5.80882 0
M  V30 9700 H 886.401 -1.42851 -7.71079 0
M  V30 9701 N 883.904 1.48273 0.534124 0
M  V30 9702 C 885.152 1.55771 1.28762 0
M  V30 9703 C 885.473 0.231575 1.9362 0
M  V30 9704 O 884.743 -0.746533 1.81118 0
M  V30 9705 H 883.323 0.573851 0.47823 0
M  V30 9706 H 885.985 1.84712 0.621888 0
M  V30 9707 H 885.081 2.33657 2.06908 0
M  V30 9708 N 885.382 -0.782676 1.36792 0
M  V30 9709 C 886.314 -1.9044 1.27536 0
M  V30 9710 C 887.327 -1.61647 0.193426 0
M  V30 9711 O 888.516 -1.72769 0.448692 0
M  V30 9712 C 885.616 -3.2541 0.946641 0
M  V30 9713 C 884.789 -3.81932 2.13183 0
M  V30 9714 C 883.848 -4.95355 1.7751 0
M  V30 9715 O 882.874 -5.11517 2.49678 0
M  V30 9716 N 884.076 -5.76108 0.712755 0
M  V30 9717 H 886.841 -1.98899 2.24186 0
M  V30 9718 H 884.402 -0.96127 1.30274 0
M  V30 9719 H 886.394 -3.98791 0.689043 0
M  V30 9720 H 884.964 -3.12524 0.0690591 0
M  V30 9721 H 884.184 -3.00459 2.55183 0
M  V30 9722 H 885.472 -4.16426 2.92347 0
M  V30 9723 H 884.87 -5.65586 0.113662 0
M  V30 9724 H 883.427 -6.49762 0.514995 0
M  V30 9725 N 886.86 -1.21182 -1.00761 0
M  V30 9726 C 887.792 -0.926523 -2.09638 0
M  V30 9727 C 888.805 0.0892511 -1.62555 0
M  V30 9728 O 889.994 -0.142915 -1.77927 0
M  V30 9729 C 887.094 -0.369175 -3.36883 0
M  V30 9730 C 886.267 -1.43866 -4.13063 0
M  V30 9731 C 885.326 -0.891015 -5.18601 0
M  V30 9732 O 884.352 -1.57384 -5.47009 0
M  V30 9733 N 885.554 0.295057 -5.7975 0
M  V30 9734 H 888.319 -1.8638 -2.34697 0
M  V30 9735 H 885.88 -1.11671 -1.17223 0
M  V30 9736 H 887.872 0.011534 -4.04698 0
M  V30 9737 H 886.442 0.472861 -3.09003 0
M  V30 9738 H 885.662 -1.99332 -3.40089 0
M  V30 9739 H 886.95 -2.15866 -4.60738 0
M  V30 9740 H 886.348 0.8669 -5.59018 0
M  V30 9741 H 884.905 0.617306 -6.4887 0
M  V30 9742 N 888.338 1.20213 -1.01915 0
M  V30 9743 C 889.248 2.26763 -0.601311 0
M  V30 9744 C 890.264 1.70185 0.362369 0
M  V30 9745 O 891.44 2.00165 0.222682 0
M  V30 9746 C 888.505 3.46662 0.0512879 0
M  V30 9747 C 887.566 4.18459 -0.958659 0
M  V30 9748 C 886.799 5.32634 -0.337107 0
M  V30 9749 O 887.022 5.63841 0.86251 0
M  V30 9750 O 885.956 5.9258 -1.05511 0
M  V30 9751 H 889.782 2.64725 -1.48844 0
M  V30 9752 H 887.367 1.2688 -0.788784 0
M  V30 9753 H 889.249 4.19345 0.41564 0
M  V30 9754 H 887.924 3.1057 0.912572 0
M  V30 9755 H 886.831 3.47937 -1.37442 0
M  V30 9756 H 888.164 4.58498 -1.78999 0
M  V30 9757 N 889.816 0.795718 1.36037 0
M  V30 9758 C 891.065 0.367575 1.98322 0
M  V30 9759 C 891.378 -1.06823 1.63854 0
M  V30 9760 O 892.584 -1.59895 2.19421 0
M  V30 9761 C 891.04 0.606272 3.54757 0
M  V30 9762 C 890.648 2.0539 3.98144 0
M  V30 9763 C 892.392 0.242947 4.23804 0
M  V30 9764 C 890.299 2.23893 5.47381 0
M  V30 9765 H 889.229 0.133699 0.742052 0
M  V30 9766 H 891.88 0.978242 1.5525 0
M  V30 9767 H 890.262 -0.0741957 3.9593 0
M  V30 9768 H 891.436 2.77129 3.68152 0
M  V30 9769 H 889.751 2.37607 3.41953 0
M  V30 9770 H 892.348 0.359382 5.33491 0
M  V30 9771 H 892.691 -0.809661 4.08351 0
M  V30 9772 H 893.224 0.876899 3.88015 0
M  V30 9773 H 889.963 3.27559 5.6779 0
M  V30 9774 H 889.483 1.56666 5.78978 0
M  V30 9775 H 891.162 2.04914 6.13693 0
M  V30 9776 N 891.294 -1.47756 0.548274 0
M  V30 9777 C 892.54 -2.02789 0.0209265 0
M  V30 9778 C 892.873 -1.42268 -1.32187 0
M  V30 9779 O 892.148 -0.575001 -1.85806 0
M  V30 9780 C 892.431 -3.60007 -0.0816674 0
M  V30 9781 C 892.284 -4.30977 1.28759 0
M  V30 9782 C 893.603 -4.32777 -0.799515 0
M  V30 9783 H 890.722 -0.736944 0.00907884 0
M  V30 9784 H 893.364 -1.76282 0.708839 0
M  V30 9785 H 891.514 -3.82722 -0.667537 0
M  V30 9786 H 893.186 -4.19629 1.91597 0
M  V30 9787 H 891.429 -3.9168 1.86466 0
M  V30 9788 H 892.1 -5.39488 1.16861 0
M  V30 9789 H 894.576 -4.15001 -0.30216 0
M  V30 9790 H 893.452 -5.42431 -0.840239 0
M  V30 9791 H 893.713 -4.01358 -1.85375 0
M  V30 9792 N 892.772 -0.284283 -1.55015 0
M  V30 9793 C 893.735 0.586182 -2.21577 0
M  V30 9794 C 894.735 1.07427 -1.1965 0
M  V30 9795 O 895.925 0.972977 -1.44495 0
M  V30 9796 C 893.057 1.80973 -2.88897 0
M  V30 9797 H 894.25 0.00487253 -2.999 0
M  V30 9798 H 891.803 -0.0349696 -1.56261 0
M  V30 9799 H 892.538 2.43131 -2.14611 0
M  V30 9800 H 892.323 1.46757 -3.636 0
M  V30 9801 H 893.813 2.42853 -3.39724 0
M  V30 9802 N 894.251 1.57596 -0.0117121 0
M  V30 9803 C 895.198 2.09153 0.975897 0
M  V30 9804 C 896.168 0.989579 1.33404 0
M  V30 9805 O 897.353 1.26273 1.43038 0
M  V30 9806 C 894.493 2.60906 2.2588 0
M  V30 9807 C 893.606 3.85046 1.95866 0
M  V30 9808 C 892.741 4.25257 3.18323 0
M  V30 9809 C 891.78 5.42202 2.84049 0
M  V30 9810 N 890.917 5.77651 3.99079 0
M  V30 9811 H 895.757 2.93261 0.52931 0
M  V30 9812 H 893.294 1.44965 0.249691 0
M  V30 9813 H 895.252 2.88995 3.00895 0
M  V30 9814 H 893.882 1.79654 2.68187 0
M  V30 9815 H 892.934 3.63794 1.11168 0
M  V30 9816 H 894.246 4.70151 1.66611 0
M  V30 9817 H 893.4 4.5469 4.01674 0
M  V30 9818 H 892.139 3.38884 3.50726 0
M  V30 9819 H 891.144 5.1248 1.99107 0
M  V30 9820 H 892.369 6.3026 2.52881 0
M  V30 9821 H 890.315 4.94235 4.31356 0
M  V30 9822 H 890.232 6.57356 3.73388 0
M  V30 9823 H 891.5 6.11681 4.83183 0
M  V30 9824 N 895.729 -0.261212 1.5542 0
M  V30 9825 C 896.957 -1.00916 1.8062 0
M  V30 9826 C 897.372 -1.79494 0.585444 0
M  V30 9827 O 896.729 -1.76974 -0.445702 0
M  V30 9828 C 896.78 -1.95841 3.03856 0
M  V30 9829 O 896.501 -1.20445 4.21218 0
M  V30 9830 C 898.002 -2.82352 3.41749 0
M  V30 9831 H 895.222 -0.297596 0.601397 0
M  V30 9832 H 897.766 -0.288427 2.02456 0
M  V30 9833 H 895.921 -2.63361 2.84112 0
M  V30 9834 H 896.335 -1.84528 4.90968 0
M  V30 9835 H 897.809 -3.44733 4.31118 0
M  V30 9836 H 898.286 -3.5273 2.61683 0
M  V30 9837 H 898.892 -2.20306 3.63793 0
M  V30 9838 N 897.207 -1.48554 -0.526253 0
M  V30 9839 C 898.437 -1.60197 -1.30463 0
M  V30 9840 C 898.845 -0.26278 -1.87366 0
M  V30 9841 O 898.188 0.758537 -1.67308 0
M  V30 9842 C 898.25 -2.59223 -2.49085 0
M  V30 9843 C 897.914 -4.04199 -2.13241 0
M  V30 9844 C 898.911 -4.91771 -1.68694 0
M  V30 9845 C 896.596 -4.49762 -2.2365 0
M  V30 9846 C 898.59 -6.22934 -1.35026 0
M  V30 9847 C 896.277 -5.80945 -1.89594 0
M  V30 9848 C 897.275 -6.67354 -1.45353 0
M  V30 9849 O 896.963 -7.96096 -1.11745 0
M  V30 9850 H 896.695 -0.54284 -0.402866 0
M  V30 9851 H 899.249 -1.95137 -0.641157 0
M  V30 9852 H 897.479 -2.19412 -3.18426 0
M  V30 9853 H 899.168 -2.60661 -3.11144 0
M  V30 9854 H 899.934 -4.57806 -1.6012 0
M  V30 9855 H 895.813 -3.8269 -2.5704 0
M  V30 9856 H 899.357 -6.90334 -1.00422 0
M  V30 9857 H 895.254 -6.14444 -1.9781 0
M  V30 9858 H 896.022 -8.08882 -1.25111 0
M  V30 9859 N 898.685 0.775411 -1.37205 0
M  V30 9860 C 899.617 1.89761 -1.28544 0
M  V30 9861 C 900.63 1.61542 -0.201996 0
M  V30 9862 O 901.819 1.72528 -0.457848 0
M  V30 9863 C 898.919 3.24904 -0.963885 0
M  V30 9864 C 898.092 3.80796 -2.15205 0
M  V30 9865 C 897.151 4.94407 -1.80135 0
M  V30 9866 O 896.177 5.10185 -2.52388 0
M  V30 9867 N 897.379 5.75722 -0.743298 0
M  V30 9868 H 900.144 1.97708 -2.25237 0
M  V30 9869 H 897.705 0.954348 -1.30782 0
M  V30 9870 H 899.697 3.9842 -0.710182 0
M  V30 9871 H 898.267 3.12483 -0.085632 0
M  V30 9872 H 897.487 2.99101 -2.56773 0
M  V30 9873 H 898.775 4.1487 -2.94552 0
M  V30 9874 H 898.173 5.65518 -0.143655 0
M  V30 9875 H 896.73 6.4948 -0.549446 0
M  V30 9876 N 900.163 1.21714 1.00117 0
M  V30 9877 C 901.093 1.00397 2.10815 0
M  V30 9878 C 902.074 -0.0723502 1.69946 0
M  V30 9879 O 903.259 0.0882398 1.93999 0
M  V30 9880 C 900.389 0.572001 3.42557 0
M  V30 9881 C 899.343 1.59331 3.97237 0
M  V30 9882 C 898.669 1.01746 5.2493 0
M  V30 9883 C 899.969 2.98117 4.28863 0
M  V30 9884 H 901.663 1.92983 2.28906 0
M  V30 9885 H 899.209 0.929273 1.10002 0
M  V30 9886 H 901.162 0.410018 4.19401 0
M  V30 9887 H 899.886 -0.38951 3.24269 0
M  V30 9888 H 898.545 1.74293 3.22518 0
M  V30 9889 H 898.193 0.0475491 5.02978 0
M  V30 9890 H 897.893 1.69969 5.62481 0
M  V30 9891 H 899.417 0.866881 6.04415 0
M  V30 9892 H 900.831 2.86578 4.96534 0
M  V30 9893 H 899.228 3.63389 4.77565 0
M  V30 9894 H 900.298 3.48674 3.36979 0
M  V30 9895 N 901.641 -1.19671 1.02551 0
M  V30 9896 C 902.571 -2.25009 0.623965 0
M  V30 9897 C 903.552 -1.66129 -0.36538 0
M  V30 9898 O 904.737 -1.92599 -0.248842 0
M  V30 9899 C 901.867 -3.47287 -0.0294869 0
M  V30 9900 C 900.821 -4.18818 0.881781 0
M  V30 9901 C 900.147 -5.34618 0.0936189 0
M  V30 9902 C 901.447 -4.73986 2.19396 0
M  V30 9903 H 903.141 -2.58851 1.50454 0
M  V30 9904 H 900.687 -1.24425 0.724872 0
M  V30 9905 H 902.64 -4.20168 -0.322016 0
M  V30 9906 H 901.364 -3.12635 -0.944838 0
M  V30 9907 H 900.023 -3.47815 1.15845 0
M  V30 9908 H 899.671 -4.9621 -0.823661 0
M  V30 9909 H 899.371 -5.83409 0.700568 0
M  V30 9910 H 900.895 -6.10297 -0.192249 0
M  V30 9911 H 902.309 -5.38639 1.96319 0
M  V30 9912 H 900.706 -5.3325 2.75254 0
M  V30 9913 H 901.776 -3.92238 2.85092 0
M  V30 9914 N 903.119 -0.802921 -1.35613 0
M  V30 9915 C 904.082 -0.216422 -2.28176 0
M  V30 9916 C 905.082 0.594101 -1.49422 0
M  V30 9917 O 906.272 0.41312 -1.6923 0
M  V30 9918 C 903.404 0.698746 -3.33662 0
M  V30 9919 H 904.597 -1.03276 -2.81557 0
M  V30 9920 H 902.15 -0.573307 -1.45406 0
M  V30 9921 H 902.885 1.53891 -2.85461 0
M  V30 9922 H 902.67 0.119314 -3.91918 0
M  V30 9923 H 904.16 1.10354 -4.02755 0
M  V30 9924 N 904.597 1.47463 -0.556102 0
M  V30 9925 C 906.013 1.58134 -0.21579 0
M  V30 9926 C 906.213 1.55486 1.28166 0
M  V30 9927 O 905.269 1.45768 2.06174 0
M  V30 9928 C 906.582 2.88686 -0.841464 0
M  V30 9929 C 908.13 3.02268 -0.812591 0
M  V30 9930 C 908.605 4.35518 -1.41731 0
M  V30 9931 N 910.096 4.42151 -1.38045 0
M  V30 9932 C 910.831 5.43817 -1.81799 0
M  V30 9933 N 910.327 6.52299 -2.33404 0
M  V30 9934 N 912.12 5.34855 -1.72877 0
M  V30 9935 H 904.271 1.47428 -1.52901 0
M  V30 9936 H 906.534 0.701586 -0.637559 0
M  V30 9937 H 906.24 2.96358 -1.8938 0
M  V30 9938 H 906.114 3.7572 -0.333846 0
M  V30 9939 H 908.501 2.94194 0.231056 0
M  V30 9940 H 908.582 2.16779 -1.35796 0
M  V30 9941 H 908.226 4.44348 -2.46002 0
M  V30 9942 H 908.156 5.19737 -0.847402 0
M  V30 9943 H 910.647 3.64348 -1.00296 0
M  V30 9944 H 910.96 7.26047 -2.64717 0
M  V30 9945 H 909.305 6.53192 -2.37414 0
M  V30 9946 H 912.496 4.49004 -1.32338 0
M  V30 9947 H 912.669 6.13949 -2.07294 0
M  V30 9948 N 906.075 0.2925 1.54862 0
M  V30 9949 C 907.491 -0.0611461 1.59483 0
M  V30 9950 C 907.691 -1.53141 1.30958 0
M  V30 9951 O 906.747 -2.28291 1.07887 0
M  V30 9952 C 908.06 0.329143 2.98893 0
M  V30 9953 C 909.608 0.2772 3.1177 0
M  V30 9954 C 910.083 0.642185 4.53475 0
M  V30 9955 N 911.574 0.594396 4.5937 0
M  V30 9956 C 912.309 0.849385 5.67074 0
M  V30 9957 N 911.805 1.1699 6.82851 0
M  V30 9958 N 913.598 0.777016 5.56704 0
M  V30 9959 H 905.749 1.25079 1.71665 0
M  V30 9960 H 908.012 0.506516 0.80134 0
M  V30 9961 H 907.718 1.35233 3.24661 0
M  V30 9962 H 907.592 -0.321442 3.75828 0
M  V30 9963 H 909.979 -0.736725 2.85756 0
M  V30 9964 H 910.06 0.962289 2.3701 0
M  V30 9965 H 909.704 1.65388 4.80218 0
M  V30 9966 H 909.634 -0.0648831 5.2656 0
M  V30 9967 H 912.125 0.357256 3.76208 0
M  V30 9968 H 912.438 1.35067 7.60905 0
M  V30 9969 H 910.783 1.20785 6.84424 0
M  V30 9970 H 913.974 0.526333 4.65132 0
M  V30 9971 H 914.147 0.979113 6.4056 0
M  V30 9972 N 907.553 -1.57587 0.0200696 0
M  V30 9973 C 908.463 -2.13119 -0.980676 0
M  V30 9974 C 909.479 -1.08124 -1.36328 0
M  V30 9975 O 910.655 -1.40134 -1.44653 0
M  V30 9976 C 907.72 -2.63991 -2.24743 0
M  V30 9977 C 906.781 -3.83667 -1.9261 0
M  V30 9978 C 906.014 -4.32103 -3.13246 0
M  V30 9979 O 906.237 -3.79758 -4.25606 0
M  V30 9980 O 905.171 -5.24047 -2.96072 0
M  V30 9981 H 908.997 -2.98887 -0.538528 0
M  V30 9982 H 906.582 -1.48055 -0.19999 0
M  V30 9983 H 908.464 -2.9682 -2.99125 0
M  V30 9984 H 907.139 -1.81311 -2.68157 0
M  V30 9985 H 906.046 -3.55778 -1.15641 0
M  V30 9986 H 907.379 -4.67482 -1.54019 0
M  V30 9987 N 909.032 0.252966 -1.55557 0
M  V30 9988 C 910.278 0.983306 -1.77367 0
M  V30 9989 C 910.611 1.85203 -0.584258 0
M  V30 9990 O 909.886 1.89963 0.417644 0
M  V30 9991 C 910.169 1.84896 -3.09007 0
M  V30 9992 C 910.022 1.00883 -4.38341 0
M  V30 9993 C 911.341 2.83254 -3.36831 0
M  V30 9994 H 908.46 0.356056 -0.645286 0
M  V30 9995 H 911.102 0.254232 -1.88291 0
M  V30 9996 H 909.252 2.47058 -2.99825 0
M  V30 9997 H 910.924 0.40638 -4.59507 0
M  V30 9998 H 909.167 0.31297 -4.3267 0
M  V30 9999 H 909.838 1.64818 -5.2682 0
M  V30 10000 H 912.314 2.31228 -3.45937 0
M  V30 10001 H 911.19 3.40949 -4.30169 0
M  V30 10002 H 911.451 3.59407 -2.57447 0
M  V30 10003 N 910.51 1.48831 0.518367 0
M  V30 10004 C 911.756 1.58649 1.27287 0
M  V30 10005 C 912.111 0.262085 1.90607 0
M  V30 10006 O 911.404 -0.736154 1.76894 0
M  V30 10007 C 911.598 2.67003 2.3758 0
M  V30 10008 C 911.427 4.09851 1.85073 0
M  V30 10009 C 910.197 4.76852 1.67154 0
M  V30 10010 C 912.395 4.95646 1.37256 0
M  V30 10011 N 910.377 6.04075 1.09394 0
M  V30 10012 C 911.748 6.13208 0.915189 0
M  V30 10013 C 913.803 4.8178 1.25666 0
M  V30 10014 C 912.506 7.18431 0.353411 0
M  V30 10015 C 914.532 5.87136 0.708873 0
M  V30 10016 C 913.894 7.03914 0.261642 0
M  V30 10017 H 909.993 0.635017 0.456374 0
M  V30 10018 H 912.577 1.85763 0.583097 0
M  V30 10019 H 910.748 2.41691 3.04039 0
M  V30 10020 H 912.48 2.6644 3.04617 0
M  V30 10021 H 909.235 4.3337 1.91017 0
M  V30 10022 H 909.659 6.71955 0.824917 0
M  V30 10023 H 914.301 3.91826 1.58846 0
M  V30 10024 H 912.019 8.08099 0.00931313 0
M  V30 10025 H 915.605 5.78463 0.622221 0
M  V30 10026 H 914.485 7.84046 -0.155634 0
M  V30 10027 N 911.988 -0.768124 1.37614 0
M  V30 10028 C 913.265 -1.51637 1.23554 0
M  V30 10029 C 913.645 -2.1042 -0.169331 0
M  V30 10030 O 912.993 -1.95834 -1.17735 0
M  V30 10031 C 913.203 -2.59436 2.33439 0
M  V30 10032 C 914.551 -3.2674 2.71157 0
M  V30 10033 O 915.575 -2.69733 2.32642 0
M  V30 10034 O 914.434 -4.29814 3.37524 0
M  V30 10035 H 911.528 -0.671778 0.482332 0
M  V30 10036 H 914.074 -0.804779 1.49403 0
M  V30 10037 H 912.846 -2.14146 3.27502 0
M  V30 10038 H 912.469 -3.38192 2.09073 0
M  V30 10039 N 913.466 -1.22244 -0.994698 0
M  V30 10040 C 914.398 -0.948706 -2.08644 0
M  V30 10041 C 915.411 0.0720049 -1.62641 0
M  V30 10042 O 916.6 -0.161778 -1.77765 0
M  V30 10043 C 913.7 -0.404885 -3.36473 0
M  V30 10044 C 912.873 -1.48239 -4.11514 0
M  V30 10045 C 911.932 -0.94597 -5.17627 0
M  V30 10046 O 910.958 -1.63177 -5.45309 0
M  V30 10047 N 912.16 0.23355 -5.8003 0
M  V30 10048 H 914.925 -1.88858 -2.32707 0
M  V30 10049 H 912.486 -1.12908 -1.16032 0
M  V30 10050 H 914.478 -0.0313903 -4.04688 0
M  V30 10051 H 913.048 0.440061 -3.09487 0
M  V30 10052 H 912.268 -2.02928 -3.37955 0
M  V30 10053 H 913.556 -2.20741 -4.58422 0
M  V30 10054 H 912.954 0.80756 -5.59906 0
M  V30 10055 H 911.511 0.54845 -6.49488 0
M  V30 10056 N 914.944 1.19125 -1.03184 0
M  V30 10057 C 916.169 1.93379 -0.749628 0
M  V30 10058 C 916.594 1.75153 0.685785 0
M  V30 10059 O 915.952 1.05579 1.47386 0
M  V30 10060 C 916 3.43101 -1.1097 0
M  V30 10061 O 915.104 4.11758 -0.230053 0
M  V30 10062 H 914.445 0.603605 -0.276689 0
M  V30 10063 H 916.975 1.51116 -1.37931 0
M  V30 10064 H 916.985 3.93778 -1.06785 0
M  V30 10065 H 915.66 3.55688 -2.15544 0
M  V30 10066 H 914.237 3.7143 -0.330748 0
M  V30 10067 N 916.422 0.810101 1.35185 0
M  V30 10068 C 917.385 0.22852 2.28058 0
M  V30 10069 C 918.385 -0.586168 1.49735 0
M  V30 10070 O 919.575 -0.40414 1.69447 0
M  V30 10071 C 916.707 -0.681041 3.34028 0
M  V30 10072 H 917.9 1.04768 2.81005 0
M  V30 10073 H 915.453 0.58101 1.451 0
M  V30 10074 H 916.188 -1.52375 2.86273 0
M  V30 10075 H 915.973 -0.0985276 3.91976 0
M  V30 10076 H 917.463 -1.08217 4.03335 0
M  V30 10077 N 917.9 -1.47166 0.563914 0
M  V30 10078 C 918.83 -2.32894 -0.168148 0
M  V30 10079 C 919.811 -1.44202 -0.902214 0
M  V30 10080 O 920.996 -1.73048 -0.881365 0
M  V30 10081 C 918.126 -3.26116 -1.19439 0
M  V30 10082 C 917.08 -4.24101 -0.576363 0
M  V30 10083 C 916.406 -5.06696 -1.70772 0
M  V30 10084 C 917.706 -5.20142 0.47425 0
M  V30 10085 H 919.4 -2.9435 0.547573 0
M  V30 10086 H 916.946 -1.41545 0.264778 0
M  V30 10087 H 918.899 -3.84935 -1.71474 0
M  V30 10088 H 917.623 -2.62728 -1.94014 0
M  V30 10089 H 916.282 -3.66519 -0.0772534 0
M  V30 10090 H 915.93 -4.39707 -2.44268 0
M  V30 10091 H 915.63 -5.7304 -1.29994 0
M  V30 10092 H 917.154 -5.68375 -2.2312 0
M  V30 10093 H 918.568 -5.73286 0.0397035 0
M  V30 10094 H 916.965 -5.94726 0.801287 0
M  V30 10095 H 918.035 -4.65214 1.36764 0
M  V30 10096 N 919.378 -0.300708 -1.54705 0
M  V30 10097 C 920.655 0.361757 -1.92226 0
M  V30 10098 C 921.035 1.71714 -1.2279 0
M  V30 10099 O 920.383 2.2559 -0.363542 0
M  V30 10100 C 920.593 0.476699 -3.45729 0
M  V30 10101 C 921.941 0.7477 -4.17965 0
M  V30 10102 O 922.965 0.560521 -3.51762 0
M  V30 10103 O 921.824 1.10724 -5.35166 0
M  V30 10104 H 918.918 0.202213 -0.801897 0
M  V30 10105 H 921.464 -0.348746 -1.66078 0
M  V30 10106 H 920.236 -0.476132 -3.88392 0
M  V30 10107 H 919.859 1.23568 -3.77911 0
M  V30 10108 N 920.856 1.57574 -0.0284266 0
M  V30 10109 C 922.102 1.92056 0.651327 0
M  V30 10110 C 922.435 0.905092 1.71819 0
M  V30 10111 O 921.71 -0.0722703 1.94366 0
M  V30 10112 C 921.993 3.37021 1.26841 0
M  V30 10113 C 921.846 4.49304 0.211157 0
M  V30 10114 C 923.165 3.81936 2.18662 0
M  V30 10115 H 920.284 0.698428 0.235304 0
M  V30 10116 H 922.926 1.89807 -0.0855435 0
M  V30 10117 H 921.076 3.39068 1.89644 0
M  V30 10118 H 922.748 4.5939 -0.419379 0
M  V30 10119 H 920.991 4.31317 -0.463445 0
M  V30 10120 H 921.662 5.47764 0.682518 0
M  V30 10121 H 924.138 3.8162 1.65847 0
M  V30 10122 H 923.014 4.84064 2.58792 0
M  V30 10123 H 923.275 3.174 3.07749 0
M  V30 10124 N 922.334 -0.244713 1.55689 0
M  V30 10125 C 923.582 -0.970525 1.77272 0
M  V30 10126 C 923.903 -1.85771 0.592804 0
M  V30 10127 O 923.173 -1.91952 -0.391323 0
M  V30 10128 H 921.753 -0.361342 0.653789 0
M  V30 10129 H 924.415 -0.262134 1.93129 0
M  V30 10130 H 923.511 -1.59096 2.68505 0
M  V30 10131 N 923.813 -1.49104 -0.510467 0
M  V30 10132 C 924.743 -1.67981 -1.62187 0
M  V30 10133 C 925.724 -0.528529 -1.6168 0
M  V30 10134 O 926.909 -0.763305 -1.7857 0
M  V30 10135 C 924.039 -1.73755 -3.0071 0
M  V30 10136 C 922.993 -2.88579 -3.1608 0
M  V30 10137 C 922.319 -2.79457 -4.5586 0
M  V30 10138 C 923.619 -4.29638 -2.97 0
M  V30 10139 H 925.313 -2.61029 -1.46643 0
M  V30 10140 H 922.859 -1.25615 -0.704042 0
M  V30 10141 H 924.812 -1.85548 -3.78352 0
M  V30 10142 H 923.536 -0.772996 -3.17321 0
M  V30 10143 H 922.195 -2.76372 -2.40861 0
M  V30 10144 H 921.843 -1.80929 -4.69333 0
M  V30 10145 H 921.543 -3.56518 -4.67086 0
M  V30 10146 H 923.067 -2.93245 -5.35574 0
M  V30 10147 H 924.481 -4.42575 -3.64418 0
M  V30 10148 H 922.878 -5.07847 -3.19704 0
M  V30 10149 H 923.948 -4.44741 -1.93219 0
M  V30 10150 N 925.291 0.760815 -1.38019 0
M  V30 10151 C 926.519 1.55001 -1.37048 0
M  V30 10152 C 926.934 1.88754 0.0415261 0
M  V30 10153 O 926.291 1.52254 1.00624 0
M  V30 10154 C 926.342 2.8536 -2.21928 0
M  V30 10155 O 926.063 2.53049 -3.57628 0
M  V30 10156 C 927.564 3.79536 -2.29057 0
M  V30 10157 H 924.784 0.479844 -0.469032 0
M  V30 10158 H 927.328 0.942148 -1.81504 0
M  V30 10159 H 925.483 3.42542 -1.80953 0
M  V30 10160 H 925.897 3.36604 -4.02241 0
M  V30 10161 H 927.371 4.67977 -2.92749 0
M  V30 10162 H 927.848 4.19453 -1.30213 0
M  V30 10163 H 928.454 3.28281 -2.70392 0
M  V30 10164 N 926.769 1.22769 0.988202 0
M  V30 10165 C 927.702 0.945196 2.07705 0
M  V30 10166 C 928.68 -0.11363 1.62202 0
M  V30 10167 O 929.864 0.0189624 1.8849 0
M  V30 10168 C 926.991 0.422474 3.36055 0
M  V30 10169 C 926.037 1.4667 4.00487 0
M  V30 10170 S 926.87 3.04158 4.40736 0
M  V30 10171 C 928.026 2.53536 5.7225 0
M  V30 10172 H 928.259 1.86723 2.31348 0
M  V30 10173 H 925.792 1.05928 1.12333 0
M  V30 10174 H 927.75 0.12748 4.10302 0
M  V30 10175 H 926.411 -0.478515 3.10434 0
M  V30 10176 H 925.604 1.05093 4.92921 0
M  V30 10177 H 925.206 1.71064 3.32585 0
M  V30 10178 H 927.498 1.95069 6.4881 0
M  V30 10179 H 928.441 3.44479 6.1866 0
M  V30 10180 H 928.849 1.94658 5.29876 0
M  V30 10181 N 928.247 -1.18576 1.03814 0
M  V30 10182 C 929.179 -2.21607 0.585055 0
M  V30 10183 C 930.192 -1.59125 -0.343963 0
M  V30 10184 O 931.381 -1.77959 -0.138882 0
M  V30 10185 C 928.481 -3.38495 -0.165602 0
M  V30 10186 C 927.654 -4.30557 0.770662 0
M  V30 10187 C 926.713 -5.26161 0.0637534 0
M  V30 10188 O 925.739 -5.64961 0.693359 0
M  V30 10189 N 926.941 -5.67882 -1.20377 0
M  V30 10190 H 929.706 -2.61104 1.47121 0
M  V30 10191 H 927.267 -1.33336 0.918316 0
M  V30 10192 H 929.259 -3.99474 -0.648292 0
M  V30 10193 H 927.829 -2.97711 -0.953268 0
M  V30 10194 H 927.049 -3.67221 1.43326 0
M  V30 10195 H 928.337 -4.88969 1.40667 0
M  V30 10196 H 927.735 -5.38409 -1.73586 0
M  V30 10197 H 926.292 -6.31069 -1.63079 0
M  V30 10198 N 929.725 -0.817259 -1.34754 0
M  V30 10199 C 930.655 -0.249769 -2.3216 0
M  V30 10200 C 931.636 0.630663 -1.57977 0
M  V30 10201 O 932.821 0.558719 -1.85989 0
M  V30 10202 C 929.951 0.593825 -3.42186 0
M  V30 10203 C 928.905 -0.188997 -4.27583 0
M  V30 10204 C 928.231 0.776979 -5.29025 0
M  V30 10205 C 929.531 -1.39401 -5.03354 0
M  V30 10206 H 931.225 -1.06359 -2.79872 0
M  V30 10207 H 928.771 -0.512894 -1.34556 0
M  V30 10208 H 930.724 1.00097 -4.09339 0
M  V30 10209 H 929.448 1.44064 -2.93109 0
M  V30 10210 H 928.107 -0.577445 -3.62024 0
M  V30 10211 H 927.755 1.61959 -4.76212 0
M  V30 10212 H 927.455 0.257448 -5.87036 0
M  V30 10213 H 928.979 1.18211 -5.99048 0
M  V30 10214 H 930.393 -1.06117 -5.63393 0
M  V30 10215 H 928.79 -1.84878 -5.70912 0
M  V30 10216 H 929.86 -2.17515 -4.33377 0
M  V30 10217 N 931.203 1.46865 -0.571711 0
M  V30 10218 C 932.133 2.3298 0.155795 0
M  V30 10219 C 933.114 1.44678 0.894553 0
M  V30 10220 O 934.299 1.73513 0.872176 0
M  V30 10221 C 931.429 3.26745 1.17708 0
M  V30 10222 C 930.383 4.24401 0.553863 0
M  V30 10223 C 929.709 5.07595 1.68083 0
M  V30 10224 C 931.009 5.19884 -0.501827 0
M  V30 10225 H 932.703 2.94056 -0.563176 0
M  V30 10226 H 930.249 1.41402 -0.27228 0
M  V30 10227 H 932.202 3.85838 1.6943 0
M  V30 10228 H 930.926 2.63753 1.92618 0
M  V30 10229 H 929.585 3.66554 0.057815 0
M  V30 10230 H 929.233 4.40996 2.41933 0
M  V30 10231 H 928.933 5.73722 1.26953 0
M  V30 10232 H 930.457 5.6955 2.20103 0
M  V30 10233 H 931.871 5.73257 -0.0701057 0
M  V30 10234 H 930.268 5.94293 -0.832815 0
M  V30 10235 H 931.338 4.64482 -1.39229 0
M  V30 10236 N 932.681 0.308908 1.54543 0
M  V30 10237 C 933.958 -0.351558 1.92415 0
M  V30 10238 C 934.338 -1.71061 1.23699 0
M  V30 10239 O 933.686 -2.25394 0.3755 0
M  V30 10240 C 933.896 -0.458357 3.45977 0
M  V30 10241 C 935.244 -0.725524 4.18355 0
M  V30 10242 O 936.268 -0.541859 3.52054 0
M  V30 10243 O 935.127 -1.07884 5.35745 0
M  V30 10244 H 932.221 -0.197957 0.802958 0
M  V30 10245 H 934.767 0.357548 1.65891 0
M  V30 10246 H 933.539 0.496723 3.88134 0
M  V30 10247 H 933.162 -1.21562 3.78561 0
M  V30 10248 N 934.159 -1.57557 0.0367827 0
M  V30 10249 C 935.399 -1.93981 -0.644252 0
M  V30 10250 C 935.763 -0.913982 -1.6885 0
M  V30 10251 O 936.964 -1.16468 -2.42257 0
M  V30 10252 C 935.235 -3.35281 -1.23779 0
M  V30 10253 S 936.794 -3.93643 -1.93883 0
M  V30 10254 H 933.612 -0.678683 -0.21192 0
M  V30 10255 H 936.214 -1.95232 0.102281 0
M  V30 10256 H 934.918 -4.07752 -0.465451 0
M  V30 10257 H 934.449 -3.37492 -2.02146 0
M  V30 10258 H 936.464 -3.777 -3.21803 0
M  V30 10259 N 935.637 0.236453 -1.55816 0
M  V30 10260 C 936.585 1.31259 -1.92025 0
M  V30 10261 C 937.579 1.49292 -0.800518 0
M  V30 10262 O 938.785 1.50643 -0.985229 0
M  V30 10263 H 935.16 0.439751 -0.610019 0
M  V30 10264 H 937.131 0.979926 -2.81851 0
M  V30 10265 C 935.88 2.65892 -2.24046 0
M  V30 10266 H 935.203 2.5282 -3.09713 0
M  V30 10267 H 936.643 3.40039 -2.53277 0
M  V30 10268 C 935.102 3.19777 -1.0604 0
M  V30 10269 O 935.632 4.00473 -0.313786 0
M  V30 10270 N 933.838 2.77946 -0.848209 0
M  V30 10271 H 933.385 2.12433 -1.45706 0
M  V30 10272 H 933.343 3.14342 -0.0603424 0
M  V30 10273 N 937.115 1.49373 0.502552 0
M  V30 10274 C 938.362 1.58781 1.25678 0
M  V30 10275 C 938.69 0.273819 1.92563 0
M  V30 10276 O 937.945 -0.738141 1.81246 0
M  V30 10277 C 938.244 2.69508 2.34735 0
M  V30 10278 C 937.91 4.11057 1.85318 0
M  V30 10279 C 936.572 4.49578 1.7156 0
M  V30 10280 C 938.924 4.99653 1.48312 0
M  V30 10281 C 936.252 5.74469 1.19172 0
M  V30 10282 C 938.604 6.2506 0.97377 0
M  V30 10283 C 937.268 6.62412 0.822573 0
M  V30 10284 H 936.538 0.581021 0.459887 0
M  V30 10285 H 939.185 1.83197 0.557767 0
M  V30 10286 H 937.49 2.39057 3.10418 0
M  V30 10287 H 939.187 2.73997 2.92791 0
M  V30 10288 H 935.777 3.80651 1.96985 0
M  V30 10289 H 939.961 4.70549 1.57789 0
M  V30 10290 H 935.217 6.0211 1.06176 0
M  V30 10291 H 939.391 6.93089 0.678233 0
M  V30 10292 H 937.018 7.59069 0.414453 0
M  V30 10293 N 938.594 -0.753485 1.38421 0
M  V30 10294 C 939.819 -1.54783 1.38047 0
M  V30 10295 C 940.244 -1.8808 -0.0276371 0
M  V30 10296 O 939.602 -1.5058 -1.00973 0
M  V30 10297 C 939.65 -2.82353 2.24297 0
M  V30 10298 O 938.754 -3.77509 1.66014 0
M  V30 10299 H 938.095 -0.468151 0.470883 0
M  V30 10300 H 940.625 -0.931144 1.82184 0
M  V30 10301 H 940.635 -3.31277 2.38159 0
M  V30 10302 H 939.31 -2.57449 3.26639 0
M  V30 10303 H 937.887 -3.36212 1.61294 0
M  V30 10304 N 940.072 -1.23292 -0.981677 0
M  V30 10305 C 941.349 -0.972514 -1.6971 0
M  V30 10306 C 941.729 0.509244 -2.04866 0
M  V30 10307 O 941.077 1.48013 -1.74082 0
M  V30 10308 C 941.287 -1.88144 -2.93943 0
M  V30 10309 C 942.635 -2.14416 -3.66485 0
M  V30 10310 O 943.659 -1.85684 -3.03974 0
M  V30 10311 O 942.518 -2.63139 -4.78978 0
M  V30 10312 H 939.612 -0.366673 -0.741269 0
M  V30 10313 H 942.158 -1.34328 -1.03701 0
M  V30 10314 H 940.93 -2.8832 -2.64551 0
M  V30 10315 H 940.553 -1.51296 -3.67689 0
M  V30 10316 N 941.55 1.18024 -1.04442 0
M  V30 10317 C 942.46 2.25436 -0.649276 0
M  V30 10318 C 943.476 1.70915 0.326189 0
M  V30 10319 O 944.652 2.00592 0.180174 0
M  V30 10320 C 941.717 3.46693 -0.0222558 0
M  V30 10321 C 940.778 4.16332 -1.0472 0
M  V30 10322 C 940.011 5.31799 -0.450011 0
M  V30 10323 O 940.234 5.65544 0.742717 0
M  V30 10324 O 939.168 5.90209 -1.18056 0
M  V30 10325 H 942.994 2.61508 -1.54426 0
M  V30 10326 H 940.579 1.25178 -0.81552 0
M  V30 10327 H 942.461 4.20132 0.326597 0
M  V30 10328 H 941.136 3.12436 0.84649 0
M  V30 10329 H 940.043 3.44944 -1.44792 0
M  V30 10330 H 941.376 4.54598 -1.88684 0
M  V30 10331 N 943.028 0.824394 1.34319 0
M  V30 10332 C 943.976 0.235628 2.31403 0
M  V30 10333 C 944.97 -0.624443 1.57471 0
M  V30 10334 O 946.176 -0.515618 1.72457 0
M  V30 10335 H 942.551 0.0574537 0.749802 0
M  V30 10336 H 944.522 1.06925 2.78585 0
M  V30 10337 C 943.271 -0.586617 3.42716 0
M  V30 10338 H 942.594 0.0658669 3.99746 0
M  V30 10339 H 944.034 -0.964661 4.1288 0
M  V30 10340 C 942.493 -1.75957 2.87299 0
M  V30 10341 O 943.023 -2.8578 2.82299 0
M  V30 10342 N 941.229 -1.57678 2.44102 0
M  V30 10343 H 940.776 -0.683436 2.48369 0
M  V30 10344 H 940.734 -2.36311 2.07375 0
M  V30 10345 N 944.506 -1.46559 0.579492 0
M  V30 10346 C 945.752 -2.02699 0.0639363 0
M  V30 10347 C 946.085 -1.4504 -1.29139 0
M  V30 10348 O 945.36 -0.614284 -1.84545 0
M  V30 10349 C 945.643 -3.601 -0.00528618 0
M  V30 10350 C 945.496 -4.28149 1.37871 0
M  V30 10351 C 946.815 -4.34375 -0.707537 0
M  V30 10352 H 943.934 -0.736586 0.0247085 0
M  V30 10353 H 946.576 -1.74739 0.746071 0
M  V30 10354 H 944.726 -3.84052 -0.586206 0
M  V30 10355 H 946.398 -4.1547 2.00455 0
M  V30 10356 H 944.641 -3.87636 1.94732 0
M  V30 10357 H 945.312 -5.36888 1.28278 0
M  V30 10358 H 947.788 -4.15549 -0.214064 0
M  V30 10359 H 946.664 -5.44091 -0.724992 0
M  V30 10360 H 946.925 -4.052 -1.7682 0
M  V30 10361 N 945.984 -0.3171 -1.54377 0
M  V30 10362 C 947.4 0.035766 -1.5956 0
M  V30 10363 C 947.6 1.51038 -1.33378 0
M  V30 10364 O 946.656 2.26546 -1.11505 0
M  V30 10365 C 947.969 -0.376652 -2.98332 0
M  V30 10366 C 949.517 -0.326765 -3.1129 0
M  V30 10367 C 949.992 -0.714247 -4.52396 0
M  V30 10368 N 951.483 -0.667402 -4.58367 0
M  V30 10369 C 952.218 -0.939494 -5.65651 0
M  V30 10370 N 951.714 -1.27839 -6.80903 0
M  V30 10371 N 953.507 -0.865484 -5.55397 0
M  V30 10372 H 945.658 -1.27794 -1.69654 0
M  V30 10373 H 947.921 -0.5192 -0.79318 0
M  V30 10374 H 947.627 -1.40381 -3.22469 0
M  V30 10375 H 947.501 0.261611 -3.76292 0
M  V30 10376 H 949.888 0.69117 -2.86892 0
M  V30 10377 H 949.969 -0.999873 -2.35449 0
M  V30 10378 H 949.613 -1.73007 -4.77526 0
M  V30 10379 H 949.543 -0.0188962 -5.26597 0
M  V30 10380 H 952.034 -0.417062 -3.75592 0
M  V30 10381 H 952.347 -1.47155 -7.5866 0
M  V30 10382 H 950.692 -1.31658 -6.82416 0
M  V30 10383 H 953.883 -0.600265 -4.64235 0
M  V30 10384 H 954.056 -1.0809 -6.38921 0
M  V30 10385 N 947.462 1.57535 -0.0451378 0
M  V30 10386 C 948.425 2.1008 0.916461 0
M  V30 10387 C 949.425 1.01913 1.2438 0
M  V30 10388 O 950.615 1.2801 1.18148 0
M  V30 10389 C 947.747 2.58001 2.22818 0
M  V30 10390 H 948.94 2.96334 0.461076 0
M  V30 10391 H 946.493 1.54974 0.203169 0
M  V30 10392 H 947.228 1.75123 2.72951 0
M  V30 10393 H 947.013 3.3704 2.00366 0
M  V30 10394 H 948.503 2.98822 2.9171 0
M  V30 10395 N 948.94 -0.228186 1.55939 0
M  V30 10396 C 950.189 -0.951563 1.77843 0
M  V30 10397 C 950.502 -1.85763 0.612501 0
M  V30 10398 O 951.708 -2.61916 0.715006 0
M  V30 10399 C 950.164 -1.74216 3.14923 0
M  V30 10400 C 949.772 -0.882569 4.39221 0
M  V30 10401 C 951.516 -2.45715 3.46156 0
M  V30 10402 C 949.423 -1.67014 5.67327 0
M  V30 10403 H 948.353 -0.359035 0.663031 0
M  V30 10404 H 951.004 -0.205636 1.82344 0
M  V30 10405 H 949.386 -2.53075 3.0458 0
M  V30 10406 H 950.56 -0.13499 4.60602 0
M  V30 10407 H 948.875 -0.280022 4.15457 0
M  V30 10408 H 951.472 -3.05127 4.39092 0
M  V30 10409 H 951.815 -3.1827 2.68346 0
M  V30 10410 H 952.348 -1.73852 3.57799 0
M  V30 10411 H 949.087 -0.987985 6.48012 0
M  V30 10412 H 948.607 -2.3925 5.50018 0
M  V30 10413 H 950.286 -2.23252 6.07262 0
M  V30 10414 N 950.418 -1.49637 -0.494624 0
M  V30 10415 C 951.381 -1.66252 -1.57775 0
M  V30 10416 C 952.381 -0.534054 -1.51672 0
M  V30 10417 O 953.571 -0.800637 -1.54711 0
M  V30 10418 C 950.703 -1.66584 -2.97426 0
M  V30 10419 H 951.896 -2.62864 -1.4437 0
M  V30 10420 H 949.449 -1.38764 -0.719323 0
M  V30 10421 H 950.184 -0.715798 -3.16302 0
M  V30 10422 H 949.969 -2.48543 -3.03264 0
M  V30 10423 H 951.459 -1.81474 -3.76108 0
M  V30 10424 N 951.896 0.746133 -1.38819 0
M  V30 10425 C 953.142 1.50768 -1.35635 0
M  V30 10426 C 953.475 1.94132 0.0512435 0
M  V30 10427 O 952.75 1.65979 1.01396 0
M  V30 10428 C 953.033 2.7551 -2.31875 0
M  V30 10429 C 952.886 2.38236 -3.81528 0
M  V30 10430 C 954.205 3.77566 -2.26124 0
M  V30 10431 H 951.324 0.546922 -0.494009 0
M  V30 10432 H 953.966 0.854017 -1.69725 0
M  V30 10433 H 952.116 3.31285 -2.02935 0
M  V30 10434 H 953.788 1.88178 -4.21173 0
M  V30 10435 H 952.031 1.70601 -3.98846 0
M  V30 10436 H 952.702 3.27517 -4.44339 0
M  V30 10437 H 955.178 3.31349 -2.51689 0
M  V30 10438 H 954.054 4.62531 -2.95561 0
M  V30 10439 H 954.315 4.23689 -1.26254 0
M  V30 10440 N 953.375 1.23811 0.975125 0
M  V30 10441 C 954.307 0.981779 2.07108 0
M  V30 10442 C 955.32 -0.0461211 1.62735 0
M  V30 10443 O 956.509 0.190039 1.77486 0
M  V30 10444 C 953.609 0.458364 3.35786 0
M  V30 10445 C 952.782 1.54767 4.09104 0
M  V30 10446 C 951.841 1.0282 5.16057 0
M  V30 10447 O 950.867 1.71831 5.42644 0
M  V30 10448 N 952.069 -0.141243 5.80328 0
M  V30 10449 H 954.834 1.92537 2.29673 0
M  V30 10450 H 952.395 1.1474 1.14221 0
M  V30 10451 H 954.387 0.0957686 4.04587 0
M  V30 10452 H 952.957 -0.390768 3.10148 0
M  V30 10453 H 952.177 2.08279 3.34684 0
M  V30 10454 H 953.465 2.28006 4.54853 0
M  V30 10455 H 952.863 -0.718382 5.6112 0
M  V30 10456 H 951.42 -0.445052 6.50279 0
M  V30 10457 N 954.853 -1.17469 1.05066 0
M  V30 10458 C 955.8 -2.21443 0.650512 0
M  V30 10459 C 956.77 -1.62441 -0.346702 0
M  V30 10460 O 957.955 -1.89305 -0.238404 0
M  V30 10461 C 955.095 -3.45087 0.0301014 0
M  V30 10462 C 954.208 -4.18385 1.07599 0
M  V30 10463 C 953.343 -5.29513 0.423038 0
M  V30 10464 C 952.382 -5.94596 1.45333 0
M  V30 10465 N 951.519 -6.97241 0.824623 0
M  V30 10466 H 956.359 -2.55025 1.54163 0
M  V30 10467 H 953.896 -1.25274 0.771032 0
M  V30 10468 H 955.854 -4.15754 -0.347032 0
M  V30 10469 H 954.484 -3.12093 -0.824481 0
M  V30 10470 H 953.536 -3.46446 1.57097 0
M  V30 10471 H 954.848 -4.62899 1.85813 0
M  V30 10472 H 954.002 -6.067 -0.00774975 0
M  V30 10473 H 952.741 -4.86129 -0.391092 0
M  V30 10474 H 951.746 -5.16142 1.89415 0
M  V30 10475 H 952.971 -6.40061 2.26934 0
M  V30 10476 H 950.917 -6.55993 0.0309804 0
M  V30 10477 H 950.834 -7.40059 1.54432 0
M  V30 10478 H 952.102 -7.78375 0.418567 0
M  V30 10479 N 956.331 -0.831506 -1.3388 0
M  V30 10480 C 957.261 -0.274378 -2.31882 0
M  V30 10481 C 958.242 0.613872 -1.58637 0
M  V30 10482 O 959.427 0.538961 -1.86571 0
M  V30 10483 C 956.557 0.557498 -3.42796 0
M  V30 10484 C 955.511 -0.234337 -4.27358 0
M  V30 10485 C 954.837 0.720825 -5.29819 0
M  V30 10486 C 956.137 -1.44732 -5.01847 0
M  V30 10487 H 957.831 -1.09322 -2.78728 0
M  V30 10488 H 955.377 -0.527136 -1.34005 0
M  V30 10489 H 957.33 0.957501 -4.10378 0
M  V30 10490 H 956.054 1.40947 -2.94621 0
M  V30 10491 H 954.713 -0.61581 -3.61391 0
M  V30 10492 H 954.361 1.569 -4.77903 0
M  V30 10493 H 954.061 0.195171 -5.87276 0
M  V30 10494 H 955.585 1.1185 -6.00268 0
M  V30 10495 H 956.999 -1.12087 -5.62236 0
M  V30 10496 H 955.396 -1.90923 -5.68919 0
M  V30 10497 H 956.466 -2.22099 -4.31045 0
M  V30 10498 N 957.809 1.4625 -0.587256 0
M  V30 10499 C 958.719 2.34147 0.145744 0
M  V30 10500 C 959.735 1.50026 0.881376 0
M  V30 10501 O 960.911 1.82884 0.843539 0
M  V30 10502 C 957.976 3.27294 1.14366 0
M  V30 10503 C 957.037 4.27317 0.412199 0
M  V30 10504 C 956.27 5.16013 1.36257 0
M  V30 10505 O 956.493 5.0773 2.59934 0
M  V30 10506 O 955.427 5.95569 0.870681 0
M  V30 10507 H 959.253 2.98187 -0.576055 0
M  V30 10508 H 956.838 1.45299 -0.347628 0
M  V30 10509 H 958.72 3.84747 1.71894 0
M  V30 10510 H 957.395 2.65845 1.84684 0
M  V30 10511 H 956.302 3.73538 -0.205036 0
M  V30 10512 H 957.635 4.91564 -0.250104 0
M  V30 10513 N 959.287 0.325282 1.54207 0
M  V30 10514 C 960.512 -0.281418 2.05482 0
M  V30 10515 C 960.937 -1.44869 1.19977 0
M  V30 10516 O 960.295 -1.80088 0.209275 0
M  V30 10517 C 960.343 -0.692029 3.53897 0
M  V30 10518 O 959.447 -1.7942 3.71325 0
M  V30 10519 H 958.788 -0.0504872 0.662078 0
M  V30 10520 H 961.318 0.474191 1.99029 0
M  V30 10521 H 961.328 -0.974219 3.96198 0
M  V30 10522 H 960.003 0.161709 4.15586 0
M  V30 10523 H 958.58 -1.51069 3.40929 0
M  V30 10524 N 960.765 -1.57509 0.0534917 0
M  V30 10525 C 961.695 -2.14698 -0.917999 0
M  V30 10526 C 962.676 -1.06924 -1.32292 0
M  V30 10527 O 963.861 -1.34875 -1.39723 0
M  V30 10528 C 960.991 -2.69383 -2.19203 0
M  V30 10529 C 959.945 -3.82161 -1.9271 0
M  V30 10530 C 959.271 -4.23373 -3.26587 0
M  V30 10531 C 960.571 -5.07199 -1.24686 0
M  V30 10532 H 962.265 -2.96125 -0.44165 0
M  V30 10533 H 959.811 -1.42446 -0.210993 0
M  V30 10534 H 961.764 -3.08031 -2.87567 0
M  V30 10535 H 960.488 -1.85151 -2.69048 0
M  V30 10536 H 959.147 -3.43989 -1.26757 0
M  V30 10537 H 958.795 -3.36089 -3.74237 0
M  V30 10538 H 958.495 -4.99385 -3.09658 0
M  V30 10539 H 960.019 -4.64623 -3.96178 0
M  V30 10540 H 961.433 -5.43279 -1.83088 0
M  V30 10541 H 959.83 -5.88369 -1.18076 0
M  V30 10542 H 960.9 -4.84386 -0.223227 0
M  V30 10543 N 962.243 0.219913 -1.56058 0
M  V30 10544 C 963.153 1.29349 -1.95719 0
M  V30 10545 C 964.169 1.5119 -0.861248 0
M  V30 10546 O 965.345 1.64289 -1.16495 0
M  V30 10547 C 962.41 2.6229 -2.26726 0
M  V30 10548 C 961.471 2.48738 -3.49897 0
M  V30 10549 C 960.704 3.75339 -3.79416 0
M  V30 10550 O 960.927 4.78427 -3.10586 0
M  V30 10551 O 959.861 3.72352 -4.72903 0
M  V30 10552 H 963.687 0.986979 -2.87215 0
M  V30 10553 H 961.272 0.42291 -1.43289 0
M  V30 10554 H 963.154 3.408 -2.47857 0
M  V30 10555 H 961.829 2.92619 -1.38404 0
M  V30 10556 H 960.736 1.68422 -3.34043 0
M  V30 10557 H 962.069 2.23347 -4.38608 0
M  V30 10558 N 963.721 1.49897 0.486681 0
M  V30 10559 C 964.998 1.50614 1.24799 0
M  V30 10560 C 965.378 0.24193 2.09709 0
M  V30 10561 O 964.726 -0.775237 2.14947 0
M  V30 10562 C 964.936 2.79318 2.09243 0
M  V30 10563 C 966.284 3.29371 2.67955 0
M  V30 10564 O 967.308 2.80533 2.19499 0
M  V30 10565 O 966.167 4.14466 3.56202 0
M  V30 10566 H 963.261 0.603447 0.565491 0
M  V30 10567 H 965.807 1.62174 0.499778 0
M  V30 10568 H 964.579 3.62812 1.46572 0
M  V30 10569 H 964.202 2.70687 2.91229 0
M  V30 10570 N 965.199 -0.738761 1.39212 0
M  V30 10571 C 966.476 -1.48982 1.26742 0
M  V30 10572 C 966.856 -2.10732 -0.12466 0
M  V30 10573 O 966.204 -1.98287 -1.13554 0
M  V30 10574 C 966.414 -2.54427 2.38889 0
M  V30 10575 C 967.762 -3.20915 2.78027 0
M  V30 10576 O 968.786 -2.64738 2.38311 0
M  V30 10577 O 967.645 -4.22558 3.46565 0
M  V30 10578 H 964.739 -0.661395 0.496473 0
M  V30 10579 H 967.285 -0.772907 1.51077 0
M  V30 10580 H 966.057 -2.07151 3.3197 0
M  V30 10581 H 965.68 -3.33682 2.162 0
M  V30 10582 N 966.677 -1.24326 -0.968545 0
M  V30 10583 C 967.954 -0.990459 -1.68669 0
M  V30 10584 C 968.334 0.487487 -2.05394 0
M  V30 10585 O 967.682 1.46158 -1.75642 0
M  V30 10586 C 967.892 -1.91251 -2.91931 0
M  V30 10587 C 969.24 -2.18291 -3.6419 0
M  V30 10588 O 970.264 -1.88897 -3.01987 0
M  V30 10589 O 969.123 -2.68204 -4.76161 0
M  V30 10590 H 966.217 -0.374515 -0.737338 0
M  V30 10591 H 968.763 -1.35421 -1.02271 0
M  V30 10592 H 967.535 -2.9111 -2.61478 0
M  V30 10593 H 967.158 -1.55188 -3.66064 0
M  V30 10594 N 968.156 1.1691 -1.05688 0
M  V30 10595 C 969.402 1.8757 -0.771071 0
M  V30 10596 C 969.735 1.8113 0.700399 0
M  V30 10597 O 969.01 1.22273 1.5126 0
M  V30 10598 C 969.293 3.37392 -1.25851 0
M  V30 10599 C 969.146 3.52556 -2.79329 0
M  V30 10600 C 970.465 4.31585 -0.861512 0
M  V30 10601 H 967.584 0.681089 -0.281579 0
M  V30 10602 H 970.226 1.37453 -1.31174 0
M  V30 10603 H 968.376 3.80204 -0.798563 0
M  V30 10604 H 970.048 3.18725 -3.33485 0
M  V30 10605 H 968.291 2.94668 -3.1836 0
M  V30 10606 H 968.962 4.57748 -3.08498 0
M  V30 10607 H 971.438 3.96642 -1.25756 0
M  V30 10608 H 970.314 5.34939 -1.23012 0
M  V30 10609 H 970.575 4.4148 0.234089 0
M  V30 10610 N 969.634 0.838594 1.33437 0
M  V30 10611 C 970.564 0.286672 2.31734 0
M  V30 10612 C 971.545 -0.605451 1.5896 0
M  V30 10613 O 972.73 -0.529059 1.86854 0
M  V30 10614 C 969.86 -0.539311 3.43087 0
M  V30 10615 C 968.814 0.256997 4.27228 0
M  V30 10616 C 968.14 -0.692718 5.30194 0
M  V30 10617 C 969.44 1.47391 5.01072 0
M  V30 10618 H 971.134 1.10798 2.78144 0
M  V30 10619 H 968.68 0.534235 1.33723 0
M  V30 10620 H 970.633 -0.935724 4.1088 0
M  V30 10621 H 969.357 -1.39383 2.95364 0
M  V30 10622 H 968.016 0.634967 3.61059 0
M  V30 10623 H 967.664 -1.54363 4.78729 0
M  V30 10624 H 967.364 -0.164023 5.87371 0
M  V30 10625 H 968.888 -1.08665 6.00853 0
M  V30 10626 H 970.302 1.15067 5.61634 0
M  V30 10627 H 968.699 1.93937 5.67898 0
M  V30 10628 H 969.769 2.24382 4.29861 0
M  V30 10629 N 971.112 -1.45937 0.595003 0
M  V30 10630 C 972.062 -2.27491 -0.152331 0
M  V30 10631 C 973.046 -1.36591 -0.850396 0
M  V30 10632 O 974.238 -1.60675 -0.742462 0
M  V30 10633 C 971.367 -3.23203 -1.15735 0
M  V30 10634 C 970.453 -4.2159 -0.46077 0
M  V30 10635 N 970.844 -5.03416 0.490555 0
M  V30 10636 C 969.142 -4.40313 -0.709949 0
M  V30 10637 C 969.843 -5.74714 0.898825 0
M  V30 10638 N 968.819 -5.43046 0.24529 0
M  V30 10639 H 972.621 -2.8815 0.578526 0
M  V30 10640 H 970.135 -1.56936 0.417716 0
M  V30 10641 H 972.132 -3.8035 -1.70704 0
M  V30 10642 H 970.792 -2.64104 -1.8889 0
M  V30 10643 H 971.803 -5.10597 0.866692 0
M  V30 10644 H 968.48 -3.92351 -1.42713 0
M  V30 10645 H 969.87 -6.50487 1.68273 0
M  V30 10646 N 972.59 -0.333456 -1.54032 0
M  V30 10647 C 973.82 0.267425 -2.04862 0
M  V30 10648 C 974.228 1.45559 -1.20869 0
M  V30 10649 O 973.571 1.82197 -0.234478 0
M  V30 10650 C 973.633 0.755759 -3.51466 0
M  V30 10651 C 973.297 -0.311409 -4.55938 0
M  V30 10652 C 974.294 -1.15078 -5.07004 0
M  V30 10653 C 971.979 -0.462439 -5.00167 0
M  V30 10654 C 973.973 -2.12682 -6.0087 0
M  V30 10655 C 971.66 -1.44188 -5.93846 0
M  V30 10656 C 972.658 -2.27253 -6.44085 0
M  V30 10657 O 972.346 -3.23532 -7.35923 0
M  V30 10658 H 972.078 0.0572596 -0.673571 0
M  V30 10659 H 974.632 -0.480646 -1.99697 0
M  V30 10660 H 972.862 1.55491 -3.54062 0
M  V30 10661 H 974.551 1.27607 -3.8532 0
M  V30 10662 H 975.317 -1.04513 -4.73605 0
M  V30 10663 H 971.196 0.17424 -4.60671 0
M  V30 10664 H 974.74 -2.77555 -6.40007 0
M  V30 10665 H 970.637 -1.54813 -6.2666 0
M  V30 10666 H 971.405 -3.18886 -7.53826 0
M  V30 10667 N 974.068 1.57479 -0.061844 0
M  V30 10668 C 974.998 2.15181 0.9066 0
M  V30 10669 C 975.979 1.07624 1.31724 0
M  V30 10670 O 977.164 1.35614 1.39006 0
M  V30 10671 C 974.294 2.70542 2.17771 0
M  V30 10672 C 973.248 3.83178 1.9068 0
M  V30 10673 C 972.574 4.25099 3.24337 0
M  V30 10674 C 973.874 5.07853 1.21994 0
M  V30 10675 H 975.568 2.96355 0.42594 0
M  V30 10676 H 973.114 1.42556 0.203435 0
M  V30 10677 H 975.067 3.09552 2.85929 0
M  V30 10678 H 973.791 1.86575 2.68062 0
M  V30 10679 H 972.45 3.44656 1.24931 0
M  V30 10680 H 972.098 3.38069 3.72449 0
M  V30 10681 H 971.798 5.01021 3.07005 0
M  V30 10682 H 973.322 4.66718 3.93709 0
M  V30 10683 H 974.736 5.44242 1.80204 0
M  V30 10684 H 973.133 5.88987 1.14954 0
M  V30 10685 H 974.203 4.84497 0.197536 0
M  V30 10686 N 975.546 -0.211634 1.56173 0
M  V30 10687 C 976.476 -1.26533 1.96244 0
M  V30 10688 C 977.457 -1.48362 0.832028 0
M  V30 10689 O 978.642 -1.60378 1.0951 0
M  V30 10690 C 975.772 -2.61307 2.2877 0
M  V30 10691 C 974.726 -2.54119 3.44395 0
M  V30 10692 C 974.052 -3.93014 3.62552 0
M  V30 10693 C 975.352 -2.08046 4.79076 0
M  V30 10694 H 977.046 -0.932407 2.84511 0
M  V30 10695 H 974.592 -0.447084 1.36884 0
M  V30 10696 H 976.545 -3.35188 2.55396 0
M  V30 10697 H 975.269 -2.96307 1.37367 0
M  V30 10698 H 973.928 -1.82694 3.17834 0
M  V30 10699 H 973.576 -4.25338 2.68508 0
M  V30 10700 H 973.276 -3.89083 4.40327 0
M  V30 10701 H 974.8 -4.68542 3.91537 0
M  V30 10702 H 976.214 -2.71676 5.04842 0
M  V30 10703 H 974.611 -2.15154 5.60204 0
M  V30 10704 H 975.681 -1.03306 4.73768 0
M  V30 10705 N 977.024 -1.50153 -0.478725 0
M  V30 10706 C 977.956 -1.64603 -1.59494 0
M  V30 10707 C 978.969 -0.527789 -1.54007 0
M  V30 10708 O 980.158 -0.80069 -1.59534 0
M  V30 10709 C 977.258 -1.60738 -2.98356 0
M  V30 10710 C 976.431 -2.88468 -3.28794 0
M  V30 10711 C 975.49 -2.77349 -4.47173 0
M  V30 10712 O 974.516 -3.51302 -4.47857 0
M  V30 10713 N 975.718 -1.9039 -5.4839 0
M  V30 10714 H 978.483 -2.6088 -1.47518 0
M  V30 10715 H 976.044 -1.47521 -0.667011 0
M  V30 10716 H 978.036 -1.50923 -3.75505 0
M  V30 10717 H 976.606 -0.722273 -3.04141 0
M  V30 10718 H 975.826 -3.12467 -2.40329 0
M  V30 10719 H 977.114 -3.73102 -3.45937 0
M  V30 10720 H 976.512 -1.29606 -5.50653 0
M  V30 10721 H 975.069 -1.86484 -6.24553 0
M  V30 10722 N 978.502 0.731368 -1.39602 0
M  V30 10723 C 979.432 1.85855 -1.41351 0
M  V30 10724 C 980.413 1.67839 -0.2764 0
M  V30 10725 O 981.598 1.88104 -0.482747 0
M  V30 10726 C 978.728 3.23644 -1.25983 0
M  V30 10727 C 977.682 3.56304 -2.37132 0
M  V30 10728 C 977.008 4.93069 -2.0685 0
M  V30 10729 C 978.308 3.58906 -3.79452 0
M  V30 10730 H 980.002 1.84648 -2.3568 0
M  V30 10731 H 977.548 0.886955 -1.13442 0
M  V30 10732 H 979.501 4.02176 -1.25826 0
M  V30 10733 H 978.225 3.25387 -0.281234 0
M  V30 10734 H 976.884 2.80104 -2.36511 0
M  V30 10735 H 976.532 4.91396 -1.0742 0
M  V30 10736 H 976.232 5.15888 -2.81306 0
M  V30 10737 H 977.756 5.73953 -2.0835 0
M  V30 10738 H 979.17 4.27508 -3.81982 0
M  V30 10739 H 977.567 3.93246 -4.53297 0
M  V30 10740 H 978.637 2.58631 -4.10168 0
M  V30 10741 N 979.98 1.24838 0.961938 0
M  V30 10742 C 981.226 1.09313 1.70817 0
M  V30 10743 C 981.559 -0.366244 1.90715 0
M  V30 10744 O 980.834 -1.27036 1.47282 0
M  V30 10745 C 981.117 1.83988 3.09549 0
M  V30 10746 C 980.97 3.3771 2.97106 0
M  V30 10747 C 982.289 1.61718 4.09311 0
M  V30 10748 H 979.408 0.398498 0.619974 0
M  V30 10749 H 982.05 1.53579 1.11864 0
M  V30 10750 H 980.2 1.46363 3.59875 0
M  V30 10751 H 981.872 3.84967 2.54161 0
M  V30 10752 H 980.115 3.65795 2.33187 0
M  V30 10753 H 980.786 3.85166 3.95412 0
M  V30 10754 H 983.262 1.94458 3.67866 0
M  V30 10755 H 982.138 2.16415 5.04436 0
M  V30 10756 H 982.399 0.55677 4.3858 0
M  V30 10757 N 981.458 -1.16348 1.06306 0
M  V30 10758 C 982.39 -2.20316 0.631929 0
M  V30 10759 C 983.403 -1.59819 -0.310133 0
M  V30 10760 O 984.592 -1.78213 -0.101103 0
M  V30 10761 C 981.692 -3.3877 -0.0937645 0
M  V30 10762 C 980.865 -4.28826 0.861816 0
M  V30 10763 C 979.924 -5.25908 0.175346 0
M  V30 10764 O 978.95 -5.63363 0.813039 0
M  V30 10765 N 980.152 -5.70307 -1.08305 0
M  V30 10766 H 982.917 -2.57925 1.52626 0
M  V30 10767 H 980.478 -1.31358 0.946392 0
M  V30 10768 H 982.47 -4.00759 -0.563412 0
M  V30 10769 H 981.04 -2.99666 -0.889904 0
M  V30 10770 H 980.26 -3.64098 1.51083 0
M  V30 10771 H 981.548 -4.85875 1.51007 0
M  V30 10772 H 980.946 -5.4197 -1.62127 0
M  V30 10773 H 979.503 -6.34387 -1.49656 0
M  V30 10774 N 982.937 -0.845659 -1.3299 0
M  V30 10775 C 983.9 -0.288905 -2.27372 0
M  V30 10776 C 984.9 0.546263 -1.51237 0
M  V30 10777 O 986.09 0.359072 -1.70459 0
M  V30 10778 C 983.222 0.59224 -3.35716 0
M  V30 10779 H 984.415 -1.12181 -2.78128 0
M  V30 10780 H 981.968 -0.619276 -1.43508 0
M  V30 10781 H 982.703 1.44732 -2.90212 0
M  V30 10782 H 982.488 -0.00543255 -3.921 0
M  V30 10783 H 983.978 0.974848 -4.06062 0
M  V30 10784 N 984.415 1.45619 -0.602734 0
M  V30 10785 C 985.661 2.02572 -0.0961759 0
M  V30 10786 C 985.994 1.47076 1.26815 0
M  V30 10787 O 985.269 0.643566 1.83544 0
M  V30 10788 C 985.552 3.60062 -0.0520032 0
M  V30 10789 C 985.405 4.25901 -1.44665 0
M  V30 10790 C 986.724 4.35446 0.638342 0
M  V30 10791 H 983.843 0.736099 -0.0364238 0
M  V30 10792 H 986.485 1.7353 -0.773776 0
M  V30 10793 H 984.635 3.84936 0.525032 0
M  V30 10794 H 986.307 4.12228 -2.0704 0
M  V30 10795 H 984.55 3.84489 -2.00874 0
M  V30 10796 H 985.221 5.34779 -1.36803 0
M  V30 10797 H 987.697 4.15837 0.147926 0
M  V30 10798 H 986.573 5.45176 0.63834 0
M  V30 10799 H 986.834 4.07962 1.70351 0
M  V30 10800 N 985.893 0.34162 1.53853 0
M  V30 10801 C 986.84 -0.516058 2.24957 0
M  V30 10802 C 987.81 -1.09711 1.2471 0
M  V30 10803 O 988.995 -1.13409 1.53438 0
M  V30 10804 C 986.135 -1.66207 3.02439 0
M  V30 10805 C 985.248 -1.10851 4.17536 0
M  V30 10806 C 984.383 -2.22167 4.82509 0
M  V30 10807 C 983.422 -1.64152 5.89678 0
M  V30 10808 N 982.559 -2.69203 6.4844 0
M  V30 10809 H 987.399 0.0968275 2.97843 0
M  V30 10810 H 984.936 0.0595565 1.46979 0
M  V30 10811 H 986.894 -2.33672 3.4562 0
M  V30 10812 H 985.524 -2.24597 2.31853 0
M  V30 10813 H 984.576 -0.324853 3.7901 0
M  V30 10814 H 985.888 -0.644151 4.94623 0
M  V30 10815 H 985.042 -2.97501 5.28751 0
M  V30 10816 H 983.781 -2.71946 4.04842 0
M  V30 10817 H 982.786 -0.873228 5.42821 0
M  V30 10818 H 984.011 -1.15228 6.69253 0
M  V30 10819 H 981.957 -3.1824 5.73637 0
M  V30 10820 H 981.874 -2.27383 7.20994 0
M  V30 10821 H 983.142 -3.44312 6.99335 0
M  V30 10822 N 987.371 -1.57444 0.0701946 0
M  V30 10823 C 988.618 -1.93429 -0.59929 0
M  V30 10824 C 988.946 -0.9501 -1.69715 0
M  V30 10825 O 988.201 0.0345377 -1.9567 0
M  V30 10826 C 988.5 -3.36044 -1.21694 0
M  V30 10827 C 988.166 -4.50232 -0.245374 0
M  V30 10828 C 986.828 -4.81195 0.0219161 0
M  V30 10829 C 989.18 -5.1951 0.419396 0
M  V30 10830 C 986.508 -5.78775 0.96109 0
M  V30 10831 C 988.86 -6.18095 1.34688 0
M  V30 10832 C 987.524 -6.47477 1.62265 0
M  V30 10833 H 986.794 -0.707807 -0.219296 0
M  V30 10834 H 989.441 -1.90982 0.14073 0
M  V30 10835 H 987.746 -3.34948 -2.03265 0
M  V30 10836 H 989.443 -3.61176 -1.74221 0
M  V30 10837 H 986.033 -4.26082 -0.463887 0
M  V30 10838 H 990.217 -4.95785 0.226009 0
M  V30 10839 H 985.473 -5.99865 1.18202 0
M  V30 10840 H 989.647 -6.7088 1.86795 0
M  V30 10841 H 987.274 -7.229 2.352 0
M  V30 10842 N 988.849 0.203349 -1.56283 0
M  V30 10843 C 989.759 1.27266 -1.9708 0
M  V30 10844 C 990.775 1.50268 -0.877236 0
M  V30 10845 O 991.951 1.63044 -1.18231 0
M  V30 10846 C 989.016 2.59871 -2.29495 0
M  V30 10847 C 988.077 2.45012 -3.52516 0
M  V30 10848 C 987.31 3.71293 -3.83376 0
M  V30 10849 O 987.533 4.75106 -3.15643 0
M  V30 10850 O 986.467 3.67316 -4.76826 0
M  V30 10851 H 990.293 0.956461 -2.88246 0
M  V30 10852 H 987.878 0.407688 -1.4373 0
M  V30 10853 H 989.76 3.38152 -2.51458 0
M  V30 10854 H 988.435 2.91135 -1.415 0
M  V30 10855 H 987.342 1.6487 -3.35811 0
M  V30 10856 H 988.675 2.18683 -4.40952 0
M  V30 10857 N 990.327 1.50405 0.470755 0
M  V30 10858 C 991.738 1.54266 1.05162 0
M  V30 10859 C 992.089 0.346359 1.93119 0
M  V30 10860 O 991.214 -0.540699 2.09536 0
M  V30 10861 C 991.809 2.7956 1.91394 0
M  V30 10862 C 990.368 2.86101 2.44588 0
M  V30 10863 C 989.515 2.48557 1.22941 0
M  V30 10864 H 992.466 1.56665 0.253359 0
M  V30 10865 H 992.487 2.61434 2.76464 0
M  V30 10866 H 991.999 3.66611 1.27351 0
M  V30 10867 H 990.1 2.03403 3.12183 0
M  V30 10868 H 990.213 3.88999 2.79672 0
M  V30 10869 H 988.577 2.01003 1.56429 0
M  V30 10870 H 989.36 3.37916 0.605598 0
M  V30 10871 N 991.805 -0.723954 1.39988 0
M  V30 10872 C 993.035 -1.51094 1.40905 0
M  V30 10873 C 993.443 -1.89199 0.00476744 0
M  V30 10874 O 992.786 -1.55398 -0.979646 0
M  V30 10875 C 992.848 -2.82114 2.22827 0
M  V30 10876 C 992.512 -2.66379 3.71337 0
M  V30 10877 C 993.509 -2.34192 4.64166 0
M  V30 10878 C 991.194 -2.82905 4.15054 0
M  V30 10879 C 993.188 -2.18729 5.98696 0
M  V30 10880 C 990.875 -2.67059 5.49657 0
M  V30 10881 C 991.873 -2.35018 6.41292 0
M  V30 10882 O 991.561 -2.19284 7.73414 0
M  V30 10883 H 991.293 -0.473142 0.482818 0
M  V30 10884 H 993.847 -0.901321 1.84568 0
M  V30 10885 H 992.077 -3.45377 1.7393 0
M  V30 10886 H 993.766 -3.43789 2.15787 0
M  V30 10887 H 994.532 -2.21065 4.31689 0
M  V30 10888 H 990.411 -3.06834 3.44055 0
M  V30 10889 H 993.955 -1.93641 6.70186 0
M  V30 10890 H 989.852 -2.79768 5.81722 0
M  V30 10891 H 990.62 -2.34269 7.84258 0
M  V30 10892 N 993.283 -1.25346 -0.955304 0
M  V30 10893 C 994.233 -1.02358 -2.03732 0
M  V30 10894 C 995.217 0.0392941 -1.60852 0
M  V30 10895 O 996.409 -0.175959 -1.76123 0
M  V30 10896 C 993.538 -0.643552 -3.37214 0
M  V30 10897 C 992.624 -1.74315 -3.8662 0
M  V30 10898 N 993.015 -2.97816 -4.08827 0
M  V30 10899 C 991.313 -1.62351 -4.15401 0
M  V30 10900 C 992.014 -3.69185 -4.4953 0
M  V30 10901 N 990.99 -2.96803 -4.55422 0
M  V30 10902 H 994.792 -1.96119 -2.18894 0
M  V30 10903 H 992.306 -1.15655 -1.14007 0
M  V30 10904 H 994.303 -0.460053 -4.14354 0
M  V30 10905 H 992.963 0.286738 -3.23431 0
M  V30 10906 H 993.974 -3.33868 -3.95919 0
M  V30 10907 H 990.651 -0.762133 -4.10485 0
M  V30 10908 H 992.041 -4.7519 -4.7502 0
M  V30 10909 N 994.761 1.15782 -1.06922 0
M  V30 10910 C 996.038 1.8253 -0.703 0
M  V30 10911 C 996.418 1.94733 0.814994 0
M  V30 10912 O 995.766 1.49537 1.72774 0
M  V30 10913 C 995.976 3.19145 -1.41234 0
M  V30 10914 C 997.324 3.94839 -1.56164 0
M  V30 10915 O 998.348 3.28685 -1.37277 0
M  V30 10916 O 997.207 5.13436 -1.87205 0
M  V30 10917 H 994.301 0.788425 -0.24963 0
M  V30 10918 H 996.847 1.22931 -1.16988 0
M  V30 10919 H 995.619 3.05336 -2.44715 0
M  V30 10920 H 995.242 3.86427 -0.935959 0
M  V30 10921 N 996.239 0.8527 1.3254 0
M  V30 10922 C 997.464 0.468157 2.02047 0
M  V30 10923 C 997.889 -0.926967 1.63673 0
M  V30 10924 O 997.247 -1.60855 0.836378 0
M  V30 10925 C 997.295 0.612519 3.5536 0
M  V30 10926 O 996.399 -0.355506 4.10865 0
M  V30 10927 H 995.74 0.188401 0.636711 0
M  V30 10928 H 998.27 1.15135 1.6913 0
M  V30 10929 H 998.28 0.499315 4.04933 0
M  V30 10930 H 996.955 1.62988 3.82632 0
M  V30 10931 H 995.532 -0.198703 3.7237 0
M  V30 10932 N 997.718 -1.45297 0.610449 0
M  V30 10933 C 998.681 -2.28995 -0.0968194 0
M  V30 10934 C 999.681 -1.39923 -0.792353 0
M  V30 10935 O 1000.87 -1.62014 -0.64008 0
M  V30 10936 C 998.003 -3.21013 -1.14731 0
M  V30 10937 H 999.196 -2.93012 0.639082 0
M  V30 10938 H 996.749 -1.51867 0.369624 0
M  V30 10939 H 997.484 -2.61803 -1.91388 0
M  V30 10940 H 997.269 -3.86628 -0.652753 0
M  V30 10941 H 998.759 -3.8394 -1.64256 0
M  V30 10942 N 999.196 -0.349774 -1.5367 0
M  V30 10943 C 1000.13 0.496338 -2.28164 0
M  V30 10944 C 1001.11 1.09737 -1.29968 0
M  V30 10945 O 1002.29 1.11759 -1.58819 0
M  V30 10946 C 999.422 1.64428 -3.0591 0
M  V30 10947 C 998.376 1.17127 -4.11661 0
M  V30 10948 C 997.702 2.40822 -4.77398 0
M  V30 10949 C 999.002 0.267293 -5.21616 0
M  V30 10950 H 1000.7 -0.125117 -2.99138 0
M  V30 10951 H 998.242 -0.0616152 -1.43868 0
M  V30 10952 H 1000.19 2.2427 -3.56765 0
M  V30 10953 H 998.919 2.29272 -2.32598 0
M  V30 10954 H 997.578 0.595634 -3.61729 0
M  V30 10955 H 997.226 3.04088 -4.00674 0
M  V30 10956 H 996.926 2.09852 -5.48849 0
M  V30 10957 H 998.45 3.01378 -5.3104 0
M  V30 10958 H 999.864 0.772734 -5.68068 0
M  V30 10959 H 998.261 0.0491991 -6.0008 0
M  V30 10960 H 999.331 -0.694892 -4.79895 0
M  V30 10961 N 1000.67 1.57404 -0.0785433 0
M  V30 10962 C 1001.64 2.11977 0.871693 0
M  V30 10963 C 1002.64 1.04529 1.2219 0
M  V30 10964 O 1003.83 1.30488 1.15406 0
M  V30 10965 C 1000.96 2.6267 2.17296 0
M  V30 10966 H 1002.15 2.97246 0.398115 0
M  V30 10967 H 999.705 1.5537 0.170251 0
M  V30 10968 H 1000.44 1.80873 2.69175 0
M  V30 10969 H 1000.22 3.41214 1.93171 0
M  V30 10970 H 1001.71 3.04943 2.85306 0
M  V30 10971 N 1002.15 -0.195058 1.56388 0
M  V30 10972 C 1003.57 -0.545894 1.49974 0
M  V30 10973 C 1003.77 -1.85851 0.778568 0
M  V30 10974 O 1002.82 -2.50346 0.329105 0
M  V30 10975 C 1004.14 -0.600599 2.94641 0
M  V30 10976 C 1005.68 -0.689429 3.05313 0
M  V30 10977 C 1006.16 -0.775243 4.51391 0
M  V30 10978 N 1007.65 -0.838769 4.55542 0
M  V30 10979 C 1008.39 -0.925337 5.65884 0
M  V30 10980 N 1007.88 -0.974204 6.85916 0
M  V30 10981 N 1009.67 -0.962528 5.53798 0
M  V30 10982 H 1001.83 0.66595 2.0169 0
M  V30 10983 H 1004.09 0.237215 0.917842 0
M  V30 10984 H 1003.79 0.29478 3.50462 0
M  V30 10985 H 1003.67 -1.45528 3.47996 0
M  V30 10986 H 1006.06 -1.57524 2.4954 0
M  V30 10987 H 1006.14 0.191451 2.55083 0
M  V30 10988 H 1005.78 0.106215 5.07789 0
M  V30 10989 H 1005.71 -1.67193 4.99354 0
M  V30 10990 H 1008.2 -0.810249 3.69112 0
M  V30 10991 H 1008.51 -1.04077 7.6576 0
M  V30 10992 H 1006.86 -0.942881 6.88574 0
M  V30 10993 H 1010.05 -0.921188 4.58946 0
M  V30 10994 H 1010.22 -1.02653 6.39817 0
M  V30 10995 N 1003.63 -1.50653 -0.462772 0
M  V30 10996 C 1004.88 -1.62057 -1.21424 0
M  V30 10997 C 1005.2 -0.324778 -1.91769 0
M  V30 10998 O 1004.46 0.689828 -1.83139 0
M  V30 10999 C 1004.76 -2.75637 -2.27507 0
M  V30 11000 C 1004.42 -4.15826 -1.74354 0
M  V30 11001 C 1003.09 -4.53969 -1.5958 0
M  V30 11002 C 1005.44 -5.03409 -1.35012 0
M  V30 11003 C 1002.77 -5.77427 -1.03899 0
M  V30 11004 C 1005.12 -6.27422 -0.807704 0
M  V30 11005 C 1003.78 -6.6436 -0.646657 0
M  V30 11006 H 1003.05 -0.59301 -0.44432 0
M  V30 11007 H 1005.7 -1.84612 -0.508999 0
M  V30 11008 H 1004 -2.47203 -3.0397 0
M  V30 11009 H 1005.7 -2.81663 -2.85424 0
M  V30 11010 H 1002.29 -3.85739 -1.86823 0
M  V30 11011 H 1006.48 -4.74567 -1.45258 0
M  V30 11012 H 1001.73 -6.04713 -0.901751 0
M  V30 11013 H 1005.91 -6.94644 -0.494234 0
M  V30 11014 H 1003.53 -7.59901 -0.213053 0
M  V30 11015 N 1005.11 0.71652 -1.4037 0
M  V30 11016 C 1006.04 1.84345 -1.43315 0
M  V30 11017 C 1007.02 1.67537 -0.294186 0
M  V30 11018 O 1008.2 1.87582 -0.502671 0
M  V30 11019 C 1005.33 3.2229 -1.29408 0
M  V30 11020 C 1004.29 3.53769 -2.40897 0
M  V30 11021 C 1003.61 4.90847 -2.12068 0
M  V30 11022 C 1004.91 3.54862 -3.83237 0
M  V30 11023 H 1006.61 1.82138 -2.37626 0
M  V30 11024 H 1004.15 0.874873 -1.14376 0
M  V30 11025 H 1006.11 4.00819 -1.30085 0
M  V30 11026 H 1004.83 3.2507 -0.31573 0
M  V30 11027 H 1003.49 2.77579 -2.39469 0
M  V30 11028 H 1003.14 4.90229 -1.12626 0
M  V30 11029 H 1002.84 5.12875 -2.86762 0
M  V30 11030 H 1004.36 5.71711 -2.14426 0
M  V30 11031 H 1005.78 4.23432 -3.86494 0
M  V30 11032 H 1004.17 3.88416 -4.57442 0
M  V30 11033 H 1005.24 2.54266 -4.12888 0
M  V30 11034 N 1006.59 1.25851 0.948643 0
M  V30 11035 C 1007.52 1.09248 2.06367 0
M  V30 11036 C 1008.5 -0.000205168 1.701 0
M  V30 11037 O 1009.68 0.170442 1.93451 0
M  V30 11038 C 1006.81 0.716777 3.39823 0
M  V30 11039 C 1005.77 1.76036 3.90122 0
M  V30 11040 C 1005.09 1.23918 5.20143 0
M  V30 11041 C 1006.39 3.16039 4.15833 0
M  V30 11042 H 1008.09 2.02518 2.20515 0
M  V30 11043 H 1005.63 0.975093 1.05962 0
M  V30 11044 H 1007.59 0.587531 4.17284 0
M  V30 11045 H 1006.31 -0.251626 3.25629 0
M  V30 11046 H 1004.97 1.87815 3.14835 0
M  V30 11047 H 1004.62 0.260836 5.02323 0
M  V30 11048 H 1004.32 1.93673 5.54765 0
M  V30 11049 H 1005.84 1.12245 6.00194 0
M  V30 11050 H 1007.25 3.0738 4.83933 0
M  V30 11051 H 1005.65 3.83317 4.61723 0
M  V30 11052 H 1006.72 3.62652 3.21887 0
M  V30 11053 N 1008.06 -1.15214 1.07534 0
M  V30 11054 C 1009.01 -2.20013 0.697337 0
M  V30 11055 C 1009.98 -1.6314 -0.312168 0
M  V30 11056 O 1011.17 -1.89768 -0.198196 0
M  V30 11057 C 1008.31 -3.44945 0.103293 0
M  V30 11058 C 1007.42 -4.16009 1.1645 0
M  V30 11059 C 1006.55 -5.28496 0.535261 0
M  V30 11060 C 1005.59 -5.9138 1.57912 0
M  V30 11061 N 1004.73 -6.95335 0.972332 0
M  V30 11062 H 1009.57 -2.51698 1.59538 0
M  V30 11063 H 1007.11 -1.2361 0.797431 0
M  V30 11064 H 1009.07 -4.16397 -0.258766 0
M  V30 11065 H 1007.7 -3.13772 -0.758096 0
M  V30 11066 H 1006.75 -3.43035 1.64411 0
M  V30 11067 H 1008.06 -4.58853 1.9559 0
M  V30 11068 H 1007.21 -6.06579 0.120942 0
M  V30 11069 H 1005.95 -4.8685 -0.287889 0
M  V30 11070 H 1004.96 -5.12008 2.0032 0
M  V30 11071 H 1006.18 -6.35103 2.40459 0
M  V30 11072 H 1004.13 -6.55779 0.170119 0
M  V30 11073 H 1004.05 -7.36616 1.70095 0
M  V30 11074 H 1005.31 -7.77312 0.583577 0
M  V30 11075 N 1009.54 -0.859717 -1.32086 0
M  V30 11076 C 1010.96 -0.55025 -1.49815 0
M  V30 11077 C 1011.16 0.917966 -1.79376 0
M  V30 11078 O 1010.21 1.70073 -1.86632 0
M  V30 11079 C 1011.53 -1.44161 -2.6389 0
M  V30 11080 C 1013.08 -1.44257 -2.77775 0
M  V30 11081 C 1013.55 -2.31926 -3.94936 0
M  V30 11082 N 1015.04 -2.2975 -4.02206 0
M  V30 11083 C 1015.78 -2.9431 -4.92107 0
M  V30 11084 N 1015.27 -3.68001 -5.86981 0
M  V30 11085 N 1017.07 -2.83671 -4.8527 0
M  V30 11086 H 1009.22 -1.80987 -1.11164 0
M  V30 11087 H 1011.48 -0.773313 -0.548353 0
M  V30 11088 H 1011.19 -2.48588 -2.4879 0
M  V30 11089 H 1011.06 -1.13268 -3.59792 0
M  V30 11090 H 1013.45 -0.405923 -2.92295 0
M  V30 11091 H 1013.53 -1.79169 -1.82571 0
M  V30 11092 H 1013.17 -3.35661 -3.81174 0
M  V30 11093 H 1013.1 -1.94344 -4.89426 0
M  V30 11094 H 1015.59 -1.76177 -3.3432 0
M  V30 11095 H 1015.91 -4.14417 -6.52287 0
M  V30 11096 H 1014.25 -3.72109 -5.86992 0
M  V30 11097 H 1017.44 -2.25647 -4.10123 0
M  V30 11098 H 1017.61 -3.34267 -5.5513 0
M  V30 11099 N 1011.02 1.44971 -0.618145 0
M  V30 11100 C 1012.27 2.0176 -0.11725 0
M  V30 11101 C 1012.59 1.48773 1.26062 0
M  V30 11102 O 1011.86 0.686152 1.83491 0
M  V30 11103 H 1010.44 0.745909 -0.0403545 0
M  V30 11104 H 1013.1 1.77638 -0.801923 0
M  V30 11105 H 1012.2 3.1201 -0.0750477 0
M  V30 11106 N 1012.5 0.357919 1.53482 0
M  V30 11107 C 1013.43 -0.484231 2.28424 0
M  V30 11108 C 1014.41 -1.09046 1.30548 0
M  V30 11109 O 1015.59 -1.10916 1.59409 0
M  V30 11110 C 1012.72 -1.62803 3.06778 0
M  V30 11111 C 1011.68 -1.14943 4.12277 0
M  V30 11112 C 1011 -2.38287 4.78669 0
M  V30 11113 C 1012.3 -0.239627 5.2175 0
M  V30 11114 H 1014 0.140979 2.99068 0
M  V30 11115 H 1011.54 0.069244 1.43833 0
M  V30 11116 H 1013.5 -2.22374 3.57949 0
M  V30 11117 H 1012.22 -2.28036 2.3381 0
M  V30 11118 H 1010.88 -0.576442 3.6204 0
M  V30 11119 H 1010.53 -3.01959 4.02281 0
M  V30 11120 H 1010.23 -2.06939 5.49955 0
M  V30 11121 H 1011.75 -2.98558 5.32631 0
M  V30 11122 H 1013.17 -0.742597 5.6847 0
M  V30 11123 H 1011.56 -0.0173747 6.00097 0
M  V30 11124 H 1012.63 0.720333 4.7952 0
M  V30 11125 N 1013.98 -1.5736 0.0868897 0
M  V30 11126 C 1015.39 -1.57304 -0.269762 0
M  V30 11127 C 1015.59 -1.09745 -1.68992 0
M  V30 11128 O 1014.65 -0.77017 -2.40468 0
M  V30 11129 C 1015.96 -3.00628 -0.0656646 0
M  V30 11130 C 1017.51 -3.12713 -0.134045 0
M  V30 11131 C 1017.98 -4.57981 0.0419569 0
M  V30 11132 N 1019.48 -4.63198 -0.0131501 0
M  V30 11133 C 1020.21 -5.73316 0.0983964 0
M  V30 11134 N 1019.71 -6.92296 0.264315 0
M  V30 11135 N 1021.5 -5.62086 0.0402517 0
M  V30 11136 H 1013.65 -1.86585 1.01487 0
M  V30 11137 H 1015.91 -0.860843 0.397055 0
M  V30 11138 H 1015.62 -3.39592 0.914891 0
M  V30 11139 H 1015.49 -3.68367 -0.811522 0
M  V30 11140 H 1017.88 -2.73627 -1.1051 0
M  V30 11141 H 1017.96 -2.47582 0.643167 0
M  V30 11142 H 1017.61 -4.9776 1.00984 0
M  V30 11143 H 1017.54 -5.21162 -0.754847 0
M  V30 11144 H 1020.03 -3.77644 -0.139183 0
M  V30 11145 H 1020.34 -7.72047 0.341165 0
M  V30 11146 H 1018.68 -6.94353 0.299876 0
M  V30 11147 H 1021.88 -4.68017 -0.0881801 0
M  V30 11148 H 1022.05 -6.47868 0.130635 0
M  V30 11149 N 1015.45 0.186762 -1.56489 0
M  V30 11150 C 1016.4 1.25084 -1.96104 0
M  V30 11151 C 1017.4 1.4667 -0.847609 0
M  V30 11152 O 1018.6 1.47432 -1.03266 0
M  V30 11153 H 1014.98 0.420121 -0.623701 0
M  V30 11154 H 1016.95 0.889761 -2.84826 0
M  V30 11155 C 1015.7 2.5863 -2.32392 0
M  V30 11156 H 1015.02 2.42838 -3.176 0
M  V30 11157 H 1016.46 3.3181 -2.63967 0
M  V30 11158 C 1014.92 3.16241 -1.16159 0
M  V30 11159 O 1015.45 3.99272 -0.441034 0
M  V30 11160 N 1013.66 2.75106 -0.936206 0
M  V30 11161 H 1013.2 2.0769 -1.5239 0
M  V30 11162 H 1013.16 3.13991 -0.160317 0
M  V30 11163 N 1016.93 1.50896 0.454776 0
M  V30 11164 C 1017.88 1.70947 1.55067 0
M  V30 11165 C 1018.85 0.550899 1.56698 0
M  V30 11166 O 1020.03 0.783352 1.73978 0
M  V30 11167 C 1017.17 1.82455 2.92924 0
M  V30 11168 C 1016.29 3.09919 3.00956 0
M  V30 11169 C 1015.42 3.12125 4.29827 0
M  V30 11170 C 1014.46 4.33975 4.31662 0
M  V30 11171 N 1013.6 4.33828 5.5203 0
M  V30 11172 H 1018.44 2.645 1.37273 0
M  V30 11173 H 1015.98 1.31101 0.667148 0
M  V30 11174 H 1017.93 1.87108 3.72889 0
M  V30 11175 H 1016.56 0.92327 3.09315 0
M  V30 11176 H 1015.62 3.14659 2.13761 0
M  V30 11177 H 1016.93 3.99869 2.98172 0
M  V30 11178 H 1016.08 3.15598 5.18154 0
M  V30 11179 H 1014.82 2.20033 4.35243 0
M  V30 11180 H 1013.83 4.30697 3.41731 0
M  V30 11181 H 1015.05 5.27312 4.27924 0
M  V30 11182 H 1013 3.44598 5.58201 0
M  V30 11183 H 1012.91 5.17566 5.51055 0
M  V30 11184 H 1014.18 4.4147 6.42437 0
M  V30 11185 N 1018.41 -0.709066 1.40748 0
M  V30 11186 C 1019.83 -1.01797 1.22921 0
M  V30 11187 C 1020.03 -2.01205 0.109011 0
M  V30 11188 O 1019.08 -2.46854 -0.530987 0
M  V30 11189 C 1020.4 -1.55546 2.57344 0
M  V30 11190 C 1021.94 -1.67498 2.64412 0
M  V30 11191 C 1022.42 -2.24652 3.99119 0
M  V30 11192 N 1023.91 -2.3203 4.00895 0
M  V30 11193 C 1024.64 -2.7725 5.01917 0
M  V30 11194 N 1024.14 -3.22174 6.13332 0
M  V30 11195 N 1025.93 -2.76692 4.89283 0
M  V30 11196 H 1018.08 -0.0502704 2.12341 0
M  V30 11197 H 1020.35 -0.0848933 0.944191 0
M  V30 11198 H 1020.05 -0.899631 3.39999 0
M  V30 11199 H 1019.93 -2.53971 2.78888 0
M  V30 11200 H 1022.31 -2.32196 1.82123 0
M  V30 11201 H 1022.4 -0.676553 2.46691 0
M  V30 11202 H 1022.04 -1.60573 4.81849 0
M  V30 11203 H 1021.97 -3.25221 4.14173 0
M  V30 11204 H 1024.46 -2.00309 3.20444 0
M  V30 11205 H 1024.77 -3.55265 6.86299 0
M  V30 11206 H 1023.12 -3.20116 6.16888 0
M  V30 11207 H 1026.31 -2.40936 4.01332 0
M  V30 11208 H 1026.48 -3.11617 5.68154 0
M  V30 11209 N 1019.89 -1.26353 -0.941956 0
M  V30 11210 C 1021.14 -1.11241 -1.68251 0
M  V30 11211 C 1021.45 0.344055 -1.9255 0
M  V30 11212 O 1022.66 0.615832 -2.64423 0
M  V30 11213 C 1021.11 -1.94269 -3.02965 0
M  V30 11214 C 1020.72 -3.44485 -2.86415 0
M  V30 11215 C 1022.47 -1.87764 -3.80716 0
M  V30 11216 C 1020.37 -4.19763 -4.16597 0
M  V30 11217 H 1019.3 -0.412694 -0.63103 0
M  V30 11218 H 1021.95 -1.50656 -1.04762 0
M  V30 11219 H 1020.34 -1.47687 -3.6743 0
M  V30 11220 H 1021.51 -3.9883 -2.30805 0
M  V30 11221 H 1019.82 -3.52218 -2.22107 0
M  V30 11222 H 1022.42 -2.41292 -4.77161 0
M  V30 11223 H 1022.76 -0.848195 -4.07568 0
M  V30 11224 H 1023.3 -2.32165 -3.23024 0
M  V30 11225 H 1020.04 -5.23173 -3.9493 0
M  V30 11226 H 1019.56 -3.70198 -4.71925 0
M  V30 11227 H 1021.24 -4.28168 -4.85058 0
M  V30 11228 N 1021.37 1.14642 -1.08144 0
M  V30 11229 C 1022.62 1.8525 -0.807885 0
M  V30 11230 C 1022.94 1.83194 0.668213 0
M  V30 11231 O 1022.21 1.27848 1.48431 0
M  V30 11232 H 1020.79 0.685909 -0.295868 0
M  V30 11233 H 1023.45 1.38935 -1.36686 0
M  V30 11234 H 1022.54 2.90155 -1.14964 0
M  V30 11235 N 1022.85 0.866709 1.31628 0
M  V30 11236 C 1023.8 0.291712 2.26126 0
M  V30 11237 C 1024.78 -0.569375 1.50489 0
M  V30 11238 O 1025.97 -0.416786 1.72023 0
M  V30 11239 C 1023.1 -0.508624 3.39511 0
M  V30 11240 C 1022.19 0.365524 4.22522 0
M  V30 11241 N 1022.58 1.45747 4.84346 0
M  V30 11242 C 1020.88 0.157384 4.45722 0
M  V30 11243 C 1021.58 1.99625 5.46374 0
M  V30 11244 N 1020.55 1.29371 5.27981 0
M  V30 11245 H 1024.35 1.12633 2.71461 0
M  V30 11246 H 1021.87 0.714118 1.45857 0
M  V30 11247 H 1023.87 -0.937057 4.06233 0
M  V30 11248 H 1022.53 -1.34089 2.9572 0
M  V30 11249 H 1023.54 1.84039 4.84097 0
M  V30 11250 H 1020.21 -0.639193 4.12578 0
M  V30 11251 H 1021.6 2.91222 6.05508 0
M  V30 11252 N 1024.32 -1.44642 0.625825 0
M  V30 11253 C 1025.57 -2.02094 0.128201 0
M  V30 11254 C 1025.9 -1.49181 -1.24801 0
M  V30 11255 O 1025.15 -0.663965 -1.84092 0
M  V30 11256 C 1025.45 -3.57352 0.0584381 0
M  V30 11257 C 1025.12 -4.29496 1.37272 0
M  V30 11258 C 1023.78 -4.48922 1.7327 0
M  V30 11259 C 1026.13 -4.70586 2.2405 0
M  V30 11260 C 1023.46 -5.06697 2.95762 0
M  V30 11261 C 1025.81 -5.29717 3.45807 0
M  V30 11262 C 1024.48 -5.47363 3.82034 0
M  V30 11263 H 1023.75 -0.739514 0.0469122 0
M  V30 11264 H 1026.39 -1.73475 0.811083 0
M  V30 11265 H 1024.7 -3.85354 -0.707791 0
M  V30 11266 H 1026.4 -3.9953 -0.34303 0
M  V30 11267 H 1022.99 -4.14702 1.08258 0
M  V30 11268 H 1027.17 -4.55295 1.97535 0
M  V30 11269 H 1022.43 -5.18546 3.23913 0
M  V30 11270 H 1026.6 -5.60507 4.13286 0
M  V30 11271 H 1024.23 -5.91898 4.77033 0
M  V30 11272 N 1025.8 -0.366053 -1.5329 0
M  V30 11273 C 1026.73 0.47211 -2.28677 0
M  V30 11274 C 1027.71 1.08353 -1.31125 0
M  V30 11275 O 1028.9 1.10069 -1.59995 0
M  V30 11276 C 1026.03 1.61174 -3.07637 0
M  V30 11277 C 1024.98 1.12755 -4.12881 0
M  V30 11278 C 1024.31 2.35745 -4.79925 0
M  V30 11279 C 1025.61 0.211954 -5.2187 0
M  V30 11280 H 1027.3 -0.156838 -2.98989 0
M  V30 11281 H 1024.85 -0.0768709 -1.43795 0
M  V30 11282 H 1026.8 2.20473 -3.59123 0
M  V30 11283 H 1025.52 2.26793 -2.35016 0
M  V30 11284 H 1024.18 0.557234 -3.6234 0
M  V30 11285 H 1023.83 2.99821 -4.03877 0
M  V30 11286 H 1023.53 2.04019 -5.51044 0
M  V30 11287 H 1025.06 2.95729 -5.34207 0
M  V30 11288 H 1026.47 0.71244 -5.68856 0
M  V30 11289 H 1024.87 -0.0144501 -6.00098 0
M  V30 11290 H 1025.94 -0.745753 -4.79131 0
M  V30 11291 N 1027.28 1.57312 -0.0952337 0
M  V30 11292 C 1028.53 1.94358 0.568442 0
M  V30 11293 C 1028.85 0.97698 1.68182 0
M  V30 11294 O 1028.11 -0.00340398 1.957 0
M  V30 11295 C 1028.41 3.37937 1.16332 0
M  V30 11296 C 1028.07 4.50565 0.173715 0
M  V30 11297 C 1026.74 4.81099 -0.0984673 0
M  V30 11298 C 1029.09 5.18777 -0.501992 0
M  V30 11299 C 1026.42 5.77172 -1.05305 0
M  V30 11300 C 1028.77 6.15874 -1.44505 0
M  V30 11301 C 1027.43 6.44813 -1.72546 0
M  V30 11302 H 1026.7 0.711206 0.208007 0
M  V30 11303 H 1029.35 1.90734 -0.171096 0
M  V30 11304 H 1027.65 3.3814 1.97911 0
M  V30 11305 H 1029.35 3.63902 1.68453 0
M  V30 11306 H 1025.94 4.26766 0.396042 0
M  V30 11307 H 1030.13 4.95363 -0.304855 0
M  V30 11308 H 1025.38 5.97909 -1.2773 0
M  V30 11309 H 1029.56 6.67824 -1.97444 0
M  V30 11310 H 1027.18 7.19067 -2.46671 0
M  V30 11311 N 1028.76 -0.17846 1.56586 0
M  V30 11312 C 1030 -0.892915 1.82753 0
M  V30 11313 C 1030.36 -1.8018 0.674744 0
M  V30 11314 O 1029.65 -1.8875 -0.329219 0
M  V30 11315 C 1029.85 -1.73063 3.12704 0
M  V30 11316 C 1029.67 -0.904341 4.40513 0
M  V30 11317 C 1028.44 -0.582221 5.01935 0
M  V30 11318 C 1030.64 -0.249232 5.13696 0
M  V30 11319 N 1028.62 0.260955 6.13345 0
M  V30 11320 C 1030 0.455417 6.18325 0
M  V30 11321 C 1032.05 -0.166663 4.97621 0
M  V30 11322 C 1030.75 1.23479 7.08622 0
M  V30 11323 C 1032.78 0.599362 5.88355 0
M  V30 11324 C 1032.14 1.2924 6.92442 0
M  V30 11325 H 1028.24 -0.30559 0.719818 0
M  V30 11326 H 1030.82 -0.160405 1.94038 0
M  V30 11327 H 1029 -2.43461 3.02624 0
M  V30 11328 H 1030.73 -2.38584 3.26894 0
M  V30 11329 H 1027.48 -0.910612 4.64763 0
M  V30 11330 H 1027.91 0.672643 6.7365 0
M  V30 11331 H 1032.55 -0.688116 4.17163 0
M  V30 11332 H 1030.27 1.76762 7.88531 0
M  V30 11333 H 1033.85 0.664826 5.77989 0
M  V30 11334 H 1032.73 1.87564 7.61439 0
M  V30 11335 N 1030.24 -1.51135 -0.446768 0
M  V30 11336 C 1031.48 -1.63336 -1.19698 0
M  V30 11337 C 1031.81 -0.345099 -1.91414 0
M  V30 11338 O 1031.07 0.670365 -1.8386 0
M  V30 11339 C 1031.36 -2.78034 -2.2457 0
M  V30 11340 C 1031.03 -4.17652 -1.69934 0
M  V30 11341 C 1029.69 -4.55636 -1.54756 0
M  V30 11342 C 1032.04 -5.04813 -1.29665 0
M  V30 11343 C 1029.37 -5.78496 -0.977689 0
M  V30 11344 C 1031.72 -6.28244 -0.741112 0
M  V30 11345 C 1030.39 -6.65009 -0.576156 0
M  V30 11346 H 1029.66 -0.597689 -0.438006 0
M  V30 11347 H 1032.31 -1.85141 -0.48939 0
M  V30 11348 H 1030.61 -2.50413 -3.01331 0
M  V30 11349 H 1032.31 -2.84675 -2.8242 0
M  V30 11350 H 1028.9 -3.87699 -1.82722 0
M  V30 11351 H 1033.08 -4.76081 -1.40216 0
M  V30 11352 H 1028.34 -6.05636 -0.837563 0
M  V30 11353 H 1032.51 -6.95129 -0.42053 0
M  V30 11354 H 1030.14 -7.60085 -0.132443 0
M  V30 11355 N 1031.71 0.701592 -1.41122 0
M  V30 11356 C 1032.64 1.82815 -1.45262 0
M  V30 11357 C 1033.62 1.67215 -0.311939 0
M  V30 11358 O 1034.81 1.87038 -0.522538 0
M  V30 11359 C 1031.94 3.20899 -1.32819 0
M  V30 11360 C 1030.89 3.51194 -2.44636 0
M  V30 11361 C 1030.22 4.8857 -2.17263 0
M  V30 11362 C 1031.52 3.50777 -3.86979 0
M  V30 11363 H 1033.21 1.79608 -2.39544 0
M  V30 11364 H 1030.76 0.862693 -1.15298 0
M  V30 11365 H 1032.71 3.99417 -1.34329 0
M  V30 11366 H 1031.44 3.24717 -0.350191 0
M  V30 11367 H 1030.1 2.75024 -2.42399 0
M  V30 11368 H 1029.74 4.89007 -1.17819 0
M  V30 11369 H 1029.44 5.09805 -2.92186 0
M  V30 11370 H 1030.97 5.69405 -2.20478 0
M  V30 11371 H 1032.38 4.19309 -3.90964 0
M  V30 11372 H 1030.78 3.83542 -4.61536 0
M  V30 11373 H 1031.85 2.49873 -4.15562 0
M  V30 11374 N 1033.19 1.2685 0.935242 0
M  V30 11375 C 1034.61 1.04091 1.20984 0
M  V30 11376 C 1034.81 -0.230242 2.0018 0
M  V30 11377 O 1033.86 -0.93778 2.3444 0
M  V30 11378 C 1035.18 2.27586 1.96533 0
M  V30 11379 C 1036.72 2.32547 2.09501 0
M  V30 11380 C 1037.2 3.55751 2.88454 0
M  V30 11381 N 1038.69 3.56263 2.96025 0
M  V30 11382 C 1039.43 4.48262 3.57559 0
M  V30 11383 N 1038.92 5.50557 4.20546 0
M  V30 11384 N 1040.71 4.35901 3.5489 0
M  V30 11385 H 1032.87 2.08484 0.405954 0
M  V30 11386 H 1035.13 0.916548 0.242164 0
M  V30 11387 H 1034.83 3.20076 1.45753 0
M  V30 11388 H 1034.71 2.32305 2.97177 0
M  V30 11389 H 1037.1 1.40568 2.5947 0
M  V30 11390 H 1037.18 2.31836 1.08101 0
M  V30 11391 H 1036.82 4.48063 2.3917 0
M  V30 11392 H 1036.75 3.53711 3.90123 0
M  V30 11393 H 1039.24 2.82278 2.51252 0
M  V30 11394 H 1039.55 6.16935 4.65415 0
M  V30 11395 H 1037.9 5.54407 4.19115 0
M  V30 11396 H 1041.09 3.552 3.04879 0
M  V30 11397 H 1041.26 5.07792 4.02557 0
M  V30 11398 N 1034.67 -1.14067 1.0875 0
M  V30 11399 C 1035.9 -1.89582 0.841038 0
M  V30 11400 C 1036.32 -1.78226 -0.601436 0
M  V30 11401 O 1035.68 -1.12491 -1.42181 0
M  V30 11402 C 1035.73 -3.37415 1.27213 0
M  V30 11403 O 1034.83 -4.10191 0.426246 0
M  V30 11404 H 1034.17 -0.589716 0.305173 0
M  V30 11405 H 1036.7 -1.44364 1.44984 0
M  V30 11406 H 1036.71 -3.88234 1.25451 0
M  V30 11407 H 1035.39 -3.44999 2.32268 0
M  V30 11408 H 1033.96 -3.69429 0.507585 0
M  V30 11409 N 1036.15 -0.873678 -1.31166 0
M  V30 11410 C 1037.06 -0.335726 -2.32185 0
M  V30 11411 C 1038.07 0.556259 -1.64869 0
M  V30 11412 O 1039.25 0.452087 -1.9626 0
M  V30 11413 C 1036.32 0.450822 -3.43756 0
M  V30 11414 C 1035.38 -0.469565 -4.26724 0
M  V30 11415 C 1034.61 0.279538 -5.32967 0
M  V30 11416 O 1034.83 1.50715 -5.50128 0
M  V30 11417 O 1033.77 -0.36452 -6.00795 0
M  V30 11418 H 1037.59 -1.17314 -2.80127 0
M  V30 11419 H 1035.18 -0.637163 -1.35132 0
M  V30 11420 H 1037.06 0.896582 -4.11752 0
M  V30 11421 H 1035.73 1.26472 -2.9797 0
M  V30 11422 H 1034.64 -0.963902 -3.61469 0
M  V30 11423 H 1035.97 -1.24916 -4.76085 0
M  V30 11424 N 1037.63 1.44308 -0.633487 0
M  V30 11425 C 1038.88 2.01239 -0.136356 0
M  V30 11426 C 1039.19 1.50438 1.25011 0
M  V30 11427 O 1040.39 1.99513 1.84138 0
M  V30 11428 C 1038.85 3.59382 -0.193011 0
M  V30 11429 C 1038.46 4.19178 -1.58093 0
M  V30 11430 C 1040.2 4.23778 0.247534 0
M  V30 11431 C 1038.11 5.69553 -1.59258 0
M  V30 11432 H 1037.04 0.752521 -0.0472109 0
M  V30 11433 H 1039.69 1.65498 -0.79263 0
M  V30 11434 H 1038.07 3.92432 0.530408 0
M  V30 11435 H 1039.25 3.97662 -2.32813 0
M  V30 11436 H 1037.56 3.67079 -1.96576 0
M  V30 11437 H 1040.16 5.34075 0.258401 0
M  V30 11438 H 1040.5 3.96285 1.27529 0
M  V30 11439 H 1041.03 3.9554 -0.423469 0
M  V30 11440 H 1037.77 6.01784 -2.59878 0
M  V30 11441 H 1037.29 5.93185 -0.888352 0
M  V30 11442 H 1038.97 6.33234 -1.32756 0
M  V30 11443 N 1039.1 0.374177 1.53094 0
M  V30 11444 C 1040.07 -0.455999 2.24618 0
M  V30 11445 C 1041.07 -1.00269 1.25709 0
M  V30 11446 O 1042.26 -0.887077 1.49922 0
M  V30 11447 C 1039.39 -1.63822 2.98957 0
M  V30 11448 H 1040.58 0.169986 2.99418 0
M  V30 11449 H 1038.14 0.126015 1.55791 0
M  V30 11450 H 1038.87 -2.30205 2.28421 0
M  V30 11451 H 1038.66 -1.25308 3.71538 0
M  V30 11452 H 1040.15 -2.22633 3.53305 0
M  V30 11453 N 1040.58 -1.57259 0.103575 0
M  V30 11454 C 1041.51 -2.1153 -0.882472 0
M  V30 11455 C 1042.53 -1.05446 -1.24036 0
M  V30 11456 O 1043.72 -1.32867 -1.192 0
M  V30 11457 C 1040.82 -2.58717 -2.18903 0
M  V30 11458 C 1039.99 -3.8873 -2.00519 0
M  V30 11459 C 1039.05 -4.21675 -3.14764 0
M  V30 11460 O 1038.07 -4.90755 -2.88355 0
M  V30 11461 N 1039.28 -3.77757 -4.40772 0
M  V30 11462 H 1042.04 -2.96758 -0.418901 0
M  V30 11463 H 1039.6 -1.61696 -0.0812921 0
M  V30 11464 H 1041.59 -2.77797 -2.94297 0
M  V30 11465 H 1040.16 -1.78454 -2.56657 0
M  V30 11466 H 1039.38 -3.78714 -1.09406 0
M  V30 11467 H 1040.67 -4.73771 -1.85522 0
M  V30 11468 H 1040.07 -3.22011 -4.65108 0
M  V30 11469 H 1038.63 -4.01975 -5.13088 0
M  V30 11470 N 1042.06 0.170153 -1.56679 0
M  V30 11471 C 1043.29 0.90618 -1.86556 0
M  V30 11472 C 1043.71 1.74986 -0.690044 0
M  V30 11473 O 1043.07 1.77672 0.360862 0
M  V30 11474 C 1043.12 1.75777 -3.14857 0
M  V30 11475 O 1042.22 2.85952 -2.97162 0
M  V30 11476 H 1041.56 0.253781 -0.613589 0
M  V30 11477 H 1044.09 0.167943 -2.0391 0
M  V30 11478 H 1044.1 2.15747 -3.46291 0
M  V30 11479 H 1042.78 1.13807 -4.00026 0
M  V30 11480 H 1041.35 2.49557 -2.77084 0
M  V30 11481 N 1043.54 1.5137 0.438746 0
M  V30 11482 C 1044.95 1.39514 0.775116 0
M  V30 11483 C 1045.15 0.47638 1.95788 0
M  V30 11484 O 1044.21 -0.0689832 2.52406 0
M  V30 11485 C 1045.52 2.81517 1.05681 0
M  V30 11486 C 1047.07 2.90658 1.16133 0
M  V30 11487 C 1047.55 4.33566 1.47597 0
M  V30 11488 N 1049.04 4.36665 1.54524 0
M  V30 11489 C 1049.77 5.4427 1.80438 0
M  V30 11490 N 1049.27 6.62037 2.04154 0
M  V30 11491 N 1051.06 5.31749 1.82208 0
M  V30 11492 H 1043.21 2.09657 -0.340237 0
M  V30 11493 H 1045.48 0.943736 -0.0898115 0
M  V30 11494 H 1045.18 3.50734 0.260441 0
M  V30 11495 H 1045.06 3.20757 1.98481 0
M  V30 11496 H 1047.44 2.2164 1.94833 0
M  V30 11497 H 1047.52 2.54917 0.212376 0
M  V30 11498 H 1047.17 5.03133 0.694251 0
M  V30 11499 H 1047.1 4.66819 2.43696 0
M  V30 11500 H 1049.59 3.51761 1.38105 0
M  V30 11501 H 1049.9 7.39838 2.23293 0
M  V30 11502 H 1048.25 6.65155 2.01479 0
M  V30 11503 H 1051.44 4.3873 1.63198 0
M  V30 11504 H 1051.61 6.15689 2.02067 0
M  V30 11505 N 1045.02 -0.694098 1.41492 0
M  V30 11506 C 1045.97 -1.80016 1.39923 0
M  V30 11507 C 1046.95 -1.58561 0.273377 0
M  V30 11508 O 1048.14 -1.69368 0.514157 0
M  V30 11509 C 1045.27 -3.18333 1.28526 0
M  V30 11510 C 1044.36 -3.45478 2.45979 0
M  V30 11511 N 1044.75 -3.43313 3.71443 0
M  V30 11512 C 1043.05 -3.76033 2.39824 0
M  V30 11513 C 1043.75 -3.69404 4.4935 0
M  V30 11514 N 1042.72 -3.89221 3.79484 0
M  V30 11515 H 1046.53 -1.76707 2.34844 0
M  V30 11516 H 1044.04 -0.894148 1.35568 0
M  V30 11517 H 1046.04 -3.97567 1.25484 0
M  V30 11518 H 1044.7 -3.22852 0.345904 0
M  V30 11519 H 1045.71 -3.2366 4.04308 0
M  V30 11520 H 1042.38 -3.87913 1.54368 0
M  V30 11521 H 1043.77 -3.73854 5.58285 0
M  V30 11522 N 1046.49 -1.27344 -0.928501 0
M  V30 11523 C 1047.72 -1.16278 -1.70772 0
M  V30 11524 C 1048.13 0.283131 -1.8707 0
M  V30 11525 O 1047.48 1.20466 -1.38685 0
M  V30 11526 C 1047.54 -1.77313 -3.1273 0
M  V30 11527 C 1047.2 -3.26488 -3.19773 0
M  V30 11528 C 1048.2 -4.23133 -3.02083 0
M  V30 11529 C 1045.88 -3.67182 -3.42757 0
M  V30 11530 C 1047.88 -5.5845 -3.07267 0
M  V30 11531 C 1045.56 -5.02629 -3.47574 0
M  V30 11532 C 1046.56 -5.98072 -3.29847 0
M  V30 11533 O 1046.25 -7.3105 -3.34397 0
M  V30 11534 H 1045.98 -0.405215 -0.541089 0
M  V30 11535 H 1048.54 -1.68707 -1.17163 0
M  V30 11536 H 1046.77 -1.19361 -3.67818 0
M  V30 11537 H 1048.46 -1.60972 -3.72616 0
M  V30 11538 H 1049.22 -3.93031 -2.84168 0
M  V30 11539 H 1045.1 -2.93369 -3.55606 0
M  V30 11540 H 1048.64 -6.32924 -2.93348 0
M  V30 11541 H 1044.54 -5.32387 -3.65013 0
M  V30 11542 H 1045.31 -7.39488 -3.50857 0
M  V30 11543 N 1047.97 1.13488 -1.09353 0
M  V30 11544 C 1048.9 2.18563 -0.69012 0
M  V30 11545 C 1049.92 1.60585 0.267651 0
M  V30 11546 O 1051.11 1.78419 0.0538176 0
M  V30 11547 C 1048.21 3.389 0.00391255 0
M  V30 11548 C 1047.38 4.2639 -0.975209 0
M  V30 11549 C 1046.44 5.25258 -0.314719 0
M  V30 11550 O 1045.46 5.6101 -0.962119 0
M  V30 11551 N 1046.67 5.72978 0.931458 0
M  V30 11552 H 1049.43 2.53788 -1.59411 0
M  V30 11553 H 1046.99 1.28803 -0.980886 0
M  V30 11554 H 1048.98 4.02112 0.45696 0
M  V30 11555 H 1047.55 3.0192 0.81014 0
M  V30 11556 H 1046.77 3.59964 -1.60684 0
M  V30 11557 H 1048.06 4.817 -1.63836 0
M  V30 11558 H 1047.46 5.46078 1.477 0
M  V30 11559 H 1046.02 6.38131 1.32784 0
M  V30 11560 N 1049.45 0.880621 1.30701 0
M  V30 11561 C 1050.38 0.301443 2.27209 0
M  V30 11562 C 1051.4 -0.541533 1.53529 0
M  V30 11563 O 1052.59 -0.361791 1.74795 0
M  V30 11564 C 1049.69 -0.59038 3.33718 0
M  V30 11565 C 1048.86 0.222549 4.36833 0
M  V30 11566 C 1047.92 -0.599083 5.22779 0
M  V30 11567 O 1046.94 -0.0233267 5.69195 0
M  V30 11568 N 1048.15 -1.90904 5.48211 0
M  V30 11569 H 1050.91 1.13083 2.77547 0
M  V30 11570 H 1048.47 0.743168 1.43835 0
M  V30 11571 H 1050.46 -1.14599 3.88135 0
M  V30 11572 H 1049.03 -1.32044 2.83343 0
M  V30 11573 H 1048.25 0.959606 3.82342 0
M  V30 11574 H 1049.54 0.779965 5.02786 0
M  V30 11575 H 1048.94 -2.3998 5.12275 0
M  V30 11576 H 1047.5 -2.4122 6.05521 0
M  V30 11577 N 1050.93 -1.4397 0.641131 0
M  V30 11578 C 1052.35 -1.56607 0.30762 0
M  V30 11579 C 1052.55 -1.62694 -1.18882 0
M  V30 11580 O 1051.6 -1.57541 -1.97325 0
M  V30 11581 C 1052.91 -2.83289 1.00834 0
M  V30 11582 C 1054.46 -2.97016 0.98744 0
M  V30 11583 C 1054.94 -4.26514 1.66882 0
M  V30 11584 N 1056.43 -4.33351 1.63589 0
M  V30 11585 C 1057.16 -5.32292 2.13196 0
M  V30 11586 N 1056.66 -6.37582 2.71038 0
M  V30 11587 N 1058.45 -5.23866 2.03766 0
M  V30 11588 H 1050.6 -1.38262 1.61237 0
M  V30 11589 H 1052.87 -0.663221 0.677378 0
M  V30 11590 H 1052.57 -2.84812 2.06337 0
M  V30 11591 H 1052.45 -3.73134 0.552333 0
M  V30 11592 H 1054.83 -2.95041 -0.0591395 0
M  V30 11593 H 1054.91 -2.08493 1.48203 0
M  V30 11594 H 1054.56 -4.2925 2.71491 0
M  V30 11595 H 1054.49 -5.13912 1.14898 0
M  V30 11596 H 1056.98 -3.5788 1.21368 0
M  V30 11597 H 1057.29 -7.09378 3.06597 0
M  V30 11598 H 1055.64 -6.38239 2.75093 0
M  V30 11599 H 1058.83 -4.40524 1.58291 0
M  V30 11600 H 1059 -6.00819 2.42737 0
M  V30 11601 N 1052.41 -0.382291 -1.52893 0
M  V30 11602 C 1053.65 0.202133 -2.01489 0
M  V30 11603 C 1053.98 1.47399 -1.26901 0
M  V30 11604 O 1053.24 1.92439 -0.355771 0
M  V30 11605 C 1053.54 0.523437 -3.53546 0
M  V30 11606 C 1053.2 -0.656042 -4.46102 0
M  V30 11607 C 1051.86 -0.979633 -4.71123 0
M  V30 11608 C 1054.22 -1.44545 -5.00756 0
M  V30 11609 C 1051.54 -2.0943 -5.48047 0
M  V30 11610 C 1053.9 -2.55066 -5.78899 0
M  V30 11611 C 1052.56 -2.87942 -6.02201 0
M  V30 11612 H 1051.83 0.0739659 -0.737299 0
M  V30 11613 H 1054.48 -0.518196 -1.84356 0
M  V30 11614 H 1052.78 1.325 -3.68715 0
M  V30 11615 H 1054.48 0.988148 -3.88634 0
M  V30 11616 H 1051.07 -0.393818 -4.26787 0
M  V30 11617 H 1055.25 -1.20869 -4.81357 0
M  V30 11618 H 1050.51 -2.3528 -5.64317 0
M  V30 11619 H 1054.68 -3.1664 -6.20252 0
M  V30 11620 H 1052.31 -3.74435 -6.61591 0
M  V30 11621 N 1053.89 1.57202 -0.111913 0
M  V30 11622 C 1054.85 2.13778 0.826534 0
M  V30 11623 C 1055.85 1.07097 1.19945 0
M  V30 11624 O 1057.04 1.32906 1.12613 0
M  V30 11625 C 1054.17 2.6722 2.11675 0
M  V30 11626 H 1055.36 2.98023 0.334975 0
M  V30 11627 H 1052.92 1.55696 0.137256 0
M  V30 11628 H 1053.65 1.86542 2.65278 0
M  V30 11629 H 1053.44 3.45235 1.8589 0
M  V30 11630 H 1054.93 3.10926 2.78774 0
M  V30 11631 N 1055.36 -0.161842 1.56767 0
M  V30 11632 C 1056.61 -0.878224 1.82798 0
M  V30 11633 C 1056.94 -1.81481 0.691242 0
M  V30 11634 O 1056.22 -1.92075 -0.30618 0
M  V30 11635 C 1056.5 -1.66565 3.19262 0
M  V30 11636 C 1056.35 -0.751551 4.43477 0
M  V30 11637 C 1057.67 -2.63134 3.52773 0
M  V30 11638 H 1054.79 -0.317828 0.664947 0
M  V30 11639 H 1057.43 -0.14402 1.89453 0
M  V30 11640 H 1055.58 -2.29157 3.13719 0
M  V30 11641 H 1057.26 -0.137783 4.61094 0
M  V30 11642 H 1055.5 -0.0601785 4.33758 0
M  V30 11643 H 1056.17 -1.33823 5.35533 0
M  V30 11644 H 1058.65 -2.10666 3.5883 0
M  V30 11645 H 1057.52 -3.15289 4.49315 0
M  V30 11646 H 1057.78 -3.43786 2.77963 0
M  V30 11647 N 1056.84 -1.516 -0.430713 0
M  V30 11648 C 1058.09 -1.63829 -1.17657 0
M  V30 11649 C 1058.4 -0.363605 -1.92191 0
M  V30 11650 O 1059.61 -0.365358 -2.6903 0
M  V30 11651 C 1058.07 -2.89357 -2.14011 0
M  V30 11652 C 1057.67 -4.23854 -1.45094 0
M  V30 11653 C 1059.42 -3.10944 -2.88988 0
M  V30 11654 C 1057.32 -5.40526 -2.3997 0
M  V30 11655 H 1056.25 -0.610221 -0.442884 0
M  V30 11656 H 1058.91 -1.78073 -0.442984 0
M  V30 11657 H 1057.29 -2.68762 -2.90832 0
M  V30 11658 H 1058.46 -4.54854 -0.737853 0
M  V30 11659 H 1056.78 -4.08197 -0.822429 0
M  V30 11660 H 1059.37 -3.95286 -3.60074 0
M  V30 11661 H 1059.72 -2.24291 -3.50712 0
M  V30 11662 H 1060.25 -3.3191 -2.19272 0
M  V30 11663 H 1056.99 -6.29459 -1.82925 0
M  V30 11664 H 1056.51 -5.13893 -3.09313 0
M  V30 11665 H 1058.19 -5.72741 -3.00959 0
M  V30 11666 N 1058.32 0.686584 -1.41858 0
M  V30 11667 C 1059.25 1.81264 -1.47193 0
M  V30 11668 C 1060.23 1.66875 -0.329657 0
M  V30 11669 O 1061.42 1.86473 -0.542347 0
M  V30 11670 C 1058.55 3.19472 -1.36216 0
M  V30 11671 C 1057.5 3.4858 -2.48347 0
M  V30 11672 C 1056.83 4.86239 -2.22432 0
M  V30 11673 C 1058.13 3.46653 -3.90678 0
M  V30 11674 H 1059.82 1.77057 -2.41436 0
M  V30 11675 H 1057.37 0.850415 -1.16206 0
M  V30 11676 H 1059.32 3.97969 -1.38558 0
M  V30 11677 H 1058.04 3.24327 -0.384611 0
M  V30 11678 H 1056.7 2.72437 -2.45303 0
M  V30 11679 H 1056.35 4.8773 -1.22999 0
M  V30 11680 H 1056.05 5.06677 -2.97577 0
M  V30 11681 H 1057.57 5.67034 -2.26505 0
M  V30 11682 H 1058.99 4.15139 -3.95389 0
M  V30 11683 H 1057.38 3.78625 -4.65578 0
M  V30 11684 H 1058.45 2.45451 -4.18189 0
M  V30 11685 N 1059.8 1.27835 0.921735 0
M  V30 11686 C 1060.71 1.12904 2.05645 0
M  V30 11687 C 1061.72 0.0575704 1.73905 0
M  V30 11688 O 1062.9 0.265261 1.99645 0
M  V30 11689 C 1059.96 0.783957 3.3772 0
M  V30 11690 C 1059.03 1.93694 3.8312 0
M  V30 11691 C 1058.26 1.60823 5.08893 0
M  V30 11692 O 1058.48 0.518873 5.68035 0
M  V30 11693 O 1057.42 2.44932 5.49811 0
M  V30 11694 H 1061.24 2.08143 2.21157 0
M  V30 11695 H 1058.83 1.07078 1.04185 0
M  V30 11696 H 1060.71 0.605107 4.17033 0
M  V30 11697 H 1059.38 -0.138849 3.23402 0
M  V30 11698 H 1058.29 2.17089 3.04669 0
M  V30 11699 H 1059.62 2.84016 4.0199 0
M  V30 11700 N 1061.28 -1.12907 1.09954 0
M  V30 11701 C 1062.24 -2.16673 0.747364 0
M  V30 11702 C 1063.24 -1.59208 -0.225741 0
M  V30 11703 O 1064.43 -1.742 -0.00322482 0
M  V30 11704 C 1061.56 -3.40735 0.106169 0
M  V30 11705 H 1062.75 -2.49341 1.6664 0
M  V30 11706 H 1060.31 -1.27828 0.899421 0
M  V30 11707 H 1061.04 -3.13661 -0.82384 0
M  V30 11708 H 1060.83 -3.83717 0.806434 0
M  V30 11709 H 1062.32 -4.17414 -0.12464 0
M  V30 11710 N 1062.75 -0.88754 -1.30232 0
M  V30 11711 C 1063.98 -0.521549 -1.99909 0
M  V30 11712 C 1064.39 0.895086 -1.66688 0
M  V30 11713 O 1063.73 1.60053 -0.90159 0
M  V30 11714 C 1063.8 -0.619564 -3.54121 0
M  V30 11715 C 1063.46 -2.00097 -4.10865 0
M  V30 11716 C 1064.46 -2.97068 -4.26669 0
M  V30 11717 C 1062.14 -2.30706 -4.46184 0
M  V30 11718 C 1064.14 -4.2278 -4.77007 0
M  V30 11719 C 1061.82 -3.56663 -4.96221 0
M  V30 11720 C 1062.82 -4.52515 -5.11585 0
M  V30 11721 O 1062.51 -5.76237 -5.60541 0
M  V30 11722 H 1062.24 -0.199904 -0.645766 0
M  V30 11723 H 1064.8 -1.19546 -1.67027 0
M  V30 11724 H 1063.03 0.111334 -3.8654 0
M  V30 11725 H 1064.71 -0.26448 -4.05037 0
M  V30 11726 H 1065.48 -2.74734 -3.99683 0
M  V30 11727 H 1061.36 -1.56865 -4.33491 0
M  V30 11728 H 1064.9 -4.97603 -4.88914 0
M  V30 11729 H 1060.8 -3.78834 -5.22643 0
M  V30 11730 H 1061.57 -5.78655 -5.78879 0
M  V30 11731 N 1064.23 1.43628 -0.648757 0
M  V30 11732 C 1065.16 2.33478 0.0320785 0
M  V30 11733 C 1066.14 1.49217 0.816605 0
M  V30 11734 O 1067.33 1.77892 0.778974 0
M  V30 11735 C 1064.46 3.32525 1.00222 0
M  V30 11736 C 1063.41 4.2674 0.328119 0
M  V30 11737 C 1062.74 5.15791 1.4094 0
M  V30 11738 C 1064.04 5.16493 -0.776701 0
M  V30 11739 H 1065.73 2.90657 -0.718257 0
M  V30 11740 H 1063.28 1.3976 -0.346852 0
M  V30 11741 H 1065.23 3.94277 1.4874 0
M  V30 11742 H 1063.96 2.73593 1.78366 0
M  V30 11743 H 1062.61 3.66346 -0.136569 0
M  V30 11744 H 1062.26 4.53201 2.18216 0
M  V30 11745 H 1061.96 5.79645 0.963631 0
M  V30 11746 H 1063.49 5.80416 1.89603 0
M  V30 11747 H 1064.9 5.7208 -0.373878 0
M  V30 11748 H 1063.3 5.89043 -1.14667 0
M  V30 11749 H 1064.37 4.56448 -1.63654 0
M  V30 11750 N 1065.71 0.390394 1.52688 0
M  V30 11751 C 1067.13 0.0404028 1.59549 0
M  V30 11752 C 1067.33 -1.44503 1.40432 0
M  V30 11753 O 1066.38 -2.20968 1.22187 0
M  V30 11754 C 1067.7 0.518561 2.96195 0
M  V30 11755 C 1069.24 0.474913 3.09376 0
M  V30 11756 C 1069.72 0.929278 4.48473 0
M  V30 11757 N 1071.21 0.885335 4.5466 0
M  V30 11758 C 1071.94 1.2083 5.60524 0
M  V30 11759 N 1071.44 1.6018 6.74028 0
M  V30 11760 N 1073.23 1.12949 5.50635 0
M  V30 11761 H 1065.38 1.35743 1.63363 0
M  V30 11762 H 1067.65 0.556453 0.767505 0
M  V30 11763 H 1067.35 1.55606 3.15404 0
M  V30 11764 H 1067.23 -0.081779 3.77111 0
M  V30 11765 H 1069.61 -0.553503 2.89863 0
M  V30 11766 H 1069.7 1.11107 2.3041 0
M  V30 11767 H 1069.34 1.95593 4.68728 0
M  V30 11768 H 1069.27 0.270121 5.25907 0
M  V30 11769 H 1071.76 0.595787 3.73174 0
M  V30 11770 H 1072.07 1.83184 7.50775 0
M  V30 11771 H 1070.42 1.64067 6.75357 0
M  V30 11772 H 1073.61 0.821074 4.60843 0
M  V30 11773 H 1073.78 1.3845 6.33037 0
M  V30 11774 N 1067.19 -1.57141 0.120249 0
M  V30 11775 C 1068.44 -1.94852 -0.536387 0
M  V30 11776 C 1068.76 -1.00452 -1.67136 0
M  V30 11777 O 1068.03 -0.061053 -1.95805 0
M  V30 11778 H 1066.61 -0.719411 -0.201138 0
M  V30 11779 H 1069.27 -1.93977 0.189482 0
M  V30 11780 H 1068.37 -2.97917 -0.930145 0
M  V30 11781 N 1068.67 0.153526 -1.5685 0
M  V30 11782 C 1069.91 0.873522 -1.84794 0
M  V30 11783 C 1070.27 1.78642 -0.703648 0
M  V30 11784 O 1071.47 2.54537 -0.863972 0
M  V30 11785 C 1069.74 1.63316 -3.17904 0
M  V30 11786 S 1071.3 2.39948 -3.67383 0
M  V30 11787 H 1068.12 0.292233 -0.648167 0
M  V30 11788 H 1070.72 0.133949 -1.95041 0
M  V30 11789 H 1069.43 0.95387 -3.99161 0
M  V30 11790 H 1068.96 2.41377 -3.10646 0
M  V30 11791 H 1070.97 3.65011 -3.36127 0
M  V30 11792 N 1070.14 1.51827 0.422667 0
M  V30 11793 C 1071.39 1.64893 1.16853 0
M  V30 11794 C 1071.71 0.37456 1.91369 0
M  V30 11795 O 1070.98 -0.610128 1.86157 0
M  V30 11796 H 1069.56 0.607744 0.434345 0
M  V30 11797 H 1072.23 1.88816 0.483159 0
M  V30 11798 H 1071.32 2.48361 1.89006 0
M  V30 11799 N 1071.62 -0.679052 1.4222 0
M  V30 11800 C 1072.85 -1.46747 1.45852 0
M  V30 11801 C 1073.27 -1.88675 0.0685937 0
M  V30 11802 O 1072.62 -1.57861 -0.915757 0
M  V30 11803 C 1072.67 -2.71935 2.38188 0
M  V30 11804 O 1072.39 -2.31768 3.71773 0
M  V30 11805 C 1073.9 -3.65536 2.50796 0
M  V30 11806 H 1071.12 -0.451682 0.49621 0
M  V30 11807 H 1073.66 -0.834723 1.86689 0
M  V30 11808 H 1071.81 -3.31409 2.00616 0
M  V30 11809 H 1072.23 -3.12579 4.21182 0
M  V30 11810 H 1073.7 -4.50113 3.19535 0
M  V30 11811 H 1074.18 -4.11148 1.54447 0
M  V30 11812 H 1074.79 -3.11957 2.89072 0
M  V30 11813 N 1073.1 -1.28322 -0.914942 0
M  V30 11814 C 1074.06 -1.12169 -1.99877 0
M  V30 11815 C 1075.06 -0.0617252 -1.60681 0
M  V30 11816 O 1076.25 -0.307405 -1.71466 0
M  V30 11817 C 1073.39 -0.711959 -3.33383 0
M  V30 11818 H 1074.58 -2.08425 -2.15636 0
M  V30 11819 H 1072.13 -1.11291 -1.09745 0
M  V30 11820 H 1072.87 0.251418 -3.23324 0
M  V30 11821 H 1072.65 -1.47764 -3.63192 0
M  V30 11822 H 1074.14 -0.621558 -4.12948 0
M  V30 11823 N 1074.58 1.12322 -1.10551 0
M  V30 11824 C 1075.51 2.17221 -0.699299 0
M  V30 11825 C 1076.49 1.59809 0.299973 0
M  V30 11826 O 1077.67 1.87451 0.198589 0
M  V30 11827 C 1074.8 3.38685 -0.0320136 0
M  V30 11828 C 1073.85 4.14732 -0.99495 0
M  V30 11829 S 1074.68 4.72879 -2.51288 0
M  V30 11830 C 1075.84 5.97676 -1.85834 0
M  V30 11831 H 1076.07 2.51342 -1.5879 0
M  V30 11832 H 1073.6 1.23802 -0.92263 0
M  V30 11833 H 1075.56 4.09034 0.346656 0
M  V30 11834 H 1074.22 3.02842 0.833407 0
M  V30 11835 H 1073.41 5.01754 -0.475331 0
M  V30 11836 H 1073.02 3.50098 -1.31559 0
M  V30 11837 H 1075.31 6.6698 -1.18927 0
M  V30 11838 H 1076.25 6.54266 -2.70817 0
M  V30 11839 H 1076.66 5.48793 -1.32237 0
M  V30 11840 N 1076.06 0.894434 1.2976 0
M  V30 11841 C 1076.99 0.3847 2.30309 0
M  V30 11842 C 1077.97 -0.537486 1.61385 0
M  V30 11843 O 1079.15 -0.449332 1.8893 0
M  V30 11844 C 1076.28 -0.393311 3.45066 0
M  V30 11845 C 1075.24 0.437968 4.25753 0
M  V30 11846 C 1074.56 -0.467221 5.32655 0
M  V30 11847 C 1075.86 1.6851 4.9437 0
M  V30 11848 H 1077.56 1.22496 2.73194 0
M  V30 11849 H 1075.1 0.590471 1.31337 0
M  V30 11850 H 1077.06 -0.760614 4.14479 0
M  V30 11851 H 1075.78 -1.2673 3.0101 0
M  V30 11852 H 1074.44 0.787533 3.58041 0
M  V30 11853 H 1074.09 -1.33919 4.84845 0
M  V30 11854 H 1073.79 0.0852482 5.87538 0
M  V30 11855 H 1075.31 -0.830833 6.04921 0
M  V30 11856 H 1076.72 1.38784 5.56248 0
M  V30 11857 H 1075.12 2.17849 5.59162 0
M  V30 11858 H 1076.19 2.42412 4.19958 0
M  V30 11859 N 1077.53 -1.43282 0.656365 0
M  V30 11860 C 1078.48 -2.27932 -0.0557069 0
M  V30 11861 C 1079.47 -1.40075 -0.791698 0
M  V30 11862 O 1080.66 -1.6368 -0.673646 0
M  V30 11863 C 1077.79 -3.27821 -1.01923 0
M  V30 11864 C 1076.88 -4.23164 -0.281545 0
M  V30 11865 N 1077.27 -5.00882 0.703629 0
M  V30 11866 C 1075.56 -4.42928 -0.522558 0
M  V30 11867 C 1076.27 -5.70384 1.14177 0
M  V30 11868 N 1075.24 -5.41517 0.475394 0
M  V30 11869 H 1079.04 -2.85437 0.70022 0
M  V30 11870 H 1076.56 -1.55023 0.483902 0
M  V30 11871 H 1078.55 -3.87248 -1.54418 0
M  V30 11872 H 1077.21 -2.71878 -1.77518 0
M  V30 11873 H 1078.23 -5.06461 1.08247 0
M  V30 11874 H 1074.9 -3.98051 -1.25944 0
M  V30 11875 H 1076.29 -6.42765 1.95711 0
M  V30 11876 N 1079.01 -0.398486 -1.52479 0
M  V30 11877 C 1080.29 0.238776 -1.94137 0
M  V30 11878 C 1080.67 1.63558 -1.33462 0
M  V30 11879 O 1080.02 2.22821 -0.506272 0
M  V30 11880 C 1080.23 0.255863 -3.48061 0
M  V30 11881 C 1081.58 0.480376 -4.21874 0
M  V30 11882 O 1082.6 0.335679 -3.54615 0
M  V30 11883 O 1081.46 0.764654 -5.41124 0
M  V30 11884 H 1078.55 0.150806 -0.813134 0
M  V30 11885 H 1081.1 -0.453659 -1.63524 0
M  V30 11886 H 1079.87 -0.722171 -3.84578 0
M  V30 11887 H 1079.49 0.99284 -3.85004 0
M  V30 11888 N 1080.49 1.57075 -0.12858 0
M  V30 11889 C 1081.74 1.9552 0.527087 0
M  V30 11890 C 1082.07 1.01243 1.66072 0
M  V30 11891 O 1081.32 0.0381076 1.95663 0
M  V30 11892 C 1081.62 3.40329 1.09138 0
M  V30 11893 C 1081.29 4.50832 0.0781039 0
M  V30 11894 C 1079.95 4.80782 -0.200493 0
M  V30 11895 C 1082.3 5.17595 -0.61192 0
M  V30 11896 C 1079.63 5.74809 -1.17524 0
M  V30 11897 C 1081.98 6.12671 -1.57536 0
M  V30 11898 C 1080.64 6.41008 -1.86184 0
M  V30 11899 H 1079.91 0.715458 0.192875 0
M  V30 11900 H 1082.56 1.90328 -0.211515 0
M  V30 11901 H 1080.87 3.42262 1.90694 0
M  V30 11902 H 1082.56 3.67393 1.60696 0
M  V30 11903 H 1079.15 4.2751 0.30543 0
M  V30 11904 H 1083.34 4.94605 -0.40986 0
M  V30 11905 H 1078.59 5.95065 -1.40384 0
M  V30 11906 H 1082.77 6.63486 -2.11565 0
M  V30 11907 H 1080.39 7.13673 -2.61868 0
M  V30 11908 N 1081.97 -0.145205 1.5693 0
M  V30 11909 C 1083.2 -0.872398 1.87608 0
M  V30 11910 C 1083.61 -1.74657 0.716975 0
M  V30 11911 O 1082.97 -1.79792 -0.3132 0
M  V30 11912 C 1083.02 -1.72762 3.17546 0
M  V30 11913 O 1082.74 -0.888681 4.28992 0
M  V30 11914 C 1084.24 -2.56224 3.61751 0
M  V30 11915 H 1081.46 -0.252166 0.621815 0
M  V30 11916 H 1084.01 -0.137456 2.04038 0
M  V30 11917 H 1082.16 -2.41561 3.02865 0
M  V30 11918 H 1082.58 -1.47601 5.03303 0
M  V30 11919 H 1084.05 -3.11804 4.55502 0
M  V30 11920 H 1084.53 -3.32347 2.87127 0
M  V30 11921 H 1085.13 -1.92714 3.79133 0
M  V30 11922 N 1083.45 -1.52049 -0.414609 0
M  V30 11923 C 1084.38 -1.7122 -1.52369 0
M  V30 11924 C 1085.39 -0.592634 -1.5163 0
M  V30 11925 O 1086.58 -0.867634 -1.55995 0
M  V30 11926 C 1083.68 -1.73247 -2.91271 0
M  V30 11927 C 1082.85 -3.02153 -3.16263 0
M  V30 11928 C 1081.91 -2.96066 -4.35007 0
M  V30 11929 O 1080.94 -3.69981 -4.32554 0
M  V30 11930 N 1082.14 -2.13478 -5.39822 0
M  V30 11931 H 1084.91 -2.66902 -1.3632 0
M  V30 11932 H 1082.47 -1.50218 -0.603842 0
M  V30 11933 H 1084.46 -1.66714 -3.68766 0
M  V30 11934 H 1083.03 -0.85062 -3.00804 0
M  V30 11935 H 1082.25 -3.22379 -2.2686 0
M  V30 11936 H 1083.54 -3.87439 -3.29801 0
M  V30 11937 H 1082.94 -1.52844 -5.44661 0
M  V30 11938 H 1081.49 -2.12805 -6.16082 0
M  V30 11939 N 1084.93 0.6715 -1.42579 0
M  V30 11940 C 1085.86 1.79703 -1.42266 0
M  V30 11941 C 1086.87 1.59599 -0.321268 0
M  V30 11942 O 1088.06 1.68657 -0.584564 0
M  V30 11943 C 1085.16 3.16859 -1.20224 0
M  V30 11944 C 1084.33 3.63783 -2.42859 0
M  V30 11945 C 1083.39 4.79683 -2.16312 0
M  V30 11946 O 1082.42 4.90058 -2.89537 0
M  V30 11947 N 1083.62 5.68622 -1.16831 0
M  V30 11948 H 1086.38 1.80455 -2.39282 0
M  V30 11949 H 1083.95 0.854708 -1.375 0
M  V30 11950 H 1085.94 3.92054 -1.00376 0
M  V30 11951 H 1084.51 3.10987 -0.317188 0
M  V30 11952 H 1083.73 2.7923 -2.78252 0
M  V30 11953 H 1085.02 3.91877 -3.24514 0
M  V30 11954 H 1084.41 5.62894 -0.562746 0
M  V30 11955 H 1082.97 6.43615 -1.0297 0
M  V30 11956 N 1086.4 1.28806 0.908124 0
M  V30 11957 C 1087.65 1.1646 1.66027 0
M  V30 11958 C 1087.98 -0.285025 1.92097 0
M  V30 11959 O 1087.26 -1.20675 1.52538 0
M  V30 11960 C 1087.54 1.96951 3.01467 0
M  V30 11961 C 1087.39 3.50007 2.82515 0
M  V30 11962 C 1088.71 1.78932 4.02084 0
M  V30 11963 H 1085.83 0.424435 0.602515 0
M  V30 11964 H 1088.47 1.58185 1.0525 0
M  V30 11965 H 1086.62 1.61495 3.53344 0
M  V30 11966 H 1088.3 3.95401 2.37605 0
M  V30 11967 H 1086.54 3.75356 2.17463 0
M  V30 11968 H 1087.21 4.01591 3.7872 0
M  V30 11969 H 1089.69 2.09885 3.59287 0
M  V30 11970 H 1088.56 2.37615 4.94803 0
M  V30 11971 H 1088.82 0.742286 4.35824 0
M  V30 11972 N 1087.88 -1.11734 1.11145 0
M  V30 11973 C 1088.81 -2.17438 0.724804 0
M  V30 11974 C 1089.83 -1.6099 -0.242069 0
M  V30 11975 O 1091.02 -1.78482 -0.0254259 0
M  V30 11976 C 1088.12 -3.38863 0.050004 0
M  V30 11977 C 1087.29 -4.24785 1.04292 0
M  V30 11978 C 1086.35 -5.24691 0.398243 0
M  V30 11979 O 1085.37 -5.59408 1.05125 0
M  V30 11980 N 1086.58 -5.74388 -0.840184 0
M  V30 11981 H 1089.34 -2.51219 1.63429 0
M  V30 11982 H 1086.9 -1.27226 1.00125 0
M  V30 11983 H 1088.89 -4.02788 -0.392929 0
M  V30 11984 H 1087.46 -3.0317 -0.762005 0
M  V30 11985 H 1086.68 -3.57363 1.6639 0
M  V30 11986 H 1087.97 -4.79033 1.71478 0
M  V30 11987 H 1087.37 -5.48359 -1.38994 0
M  V30 11988 H 1085.93 -6.40163 -1.22615 0
M  V30 11989 N 1089.36 -0.901303 -1.29284 0
M  V30 11990 C 1090.61 -0.528826 -1.95784 0
M  V30 11991 C 1090.94 0.922833 -1.70873 0
M  V30 11992 O 1090.21 1.65448 -1.0226 0
M  V30 11993 C 1090.5 -0.823793 -3.50551 0
M  V30 11994 C 1090.35 -2.32727 -3.84913 0
M  V30 11995 C 1091.67 -0.311382 -4.38997 0
M  V30 11996 H 1088.79 -0.193604 -0.711116 0
M  V30 11997 H 1091.43 -1.12828 -1.52872 0
M  V30 11998 H 1089.58 -0.313612 -3.87232 0
M  V30 11999 H 1091.25 -2.90712 -3.58168 0
M  V30 12000 H 1089.49 -2.78735 -3.32399 0
M  V30 12001 H 1090.17 -2.48423 -4.9294 0
M  V30 12002 H 1092.64 -0.748265 -4.09317 0
M  V30 12003 H 1091.52 -0.546957 -5.46168 0
M  V30 12004 H 1091.78 0.787959 -4.35021 0
M  V30 12005 N 1090.84 1.42931 -0.663954 0
M  V30 12006 C 1092.09 2.00904 -0.179011 0
M  V30 12007 C 1092.4 1.53056 1.21791 0
M  V30 12008 O 1093.61 2.03374 1.79865 0
M  V30 12009 C 1092.06 3.58892 -0.269198 0
M  V30 12010 C 1091.67 4.15731 -1.66949 0
M  V30 12011 C 1093.41 4.24207 0.157589 0
M  V30 12012 C 1091.32 5.66047 -1.71303 0
M  V30 12013 H 1090.25 0.75135 -0.0631623 0
M  V30 12014 H 1092.9 1.6378 -0.827556 0
M  V30 12015 H 1091.28 3.93469 0.447048 0
M  V30 12016 H 1092.46 3.92634 -2.41195 0
M  V30 12017 H 1090.77 3.62826 -2.04318 0
M  V30 12018 H 1093.37 5.34503 0.145057 0
M  V30 12019 H 1093.71 3.98901 1.19095 0
M  V30 12020 H 1094.25 3.94552 -0.507274 0
M  V30 12021 H 1090.98 5.96136 -2.72584 0
M  V30 12022 H 1090.5 5.91167 -1.01398 0
M  V30 12023 H 1092.18 6.30275 -1.46158 0
M  V30 12024 N 1092.32 0.406567 1.52266 0
M  V30 12025 C 1093.23 -0.4271 2.30679 0
M  V30 12026 C 1094.24 -1.0559 1.383 0
M  V30 12027 O 1095.42 -1.05797 1.71374 0
M  V30 12028 C 1092.48 -1.53008 3.1111 0
M  V30 12029 C 1091.54 -0.924604 4.19225 0
M  V30 12030 C 1090.78 -1.97502 4.95811 0
M  V30 12031 O 1091 -3.19277 4.72671 0
M  V30 12032 O 1089.93 -1.58268 5.80719 0
M  V30 12033 H 1093.76 0.212187 3.02958 0
M  V30 12034 H 1091.34 0.169835 1.48432 0
M  V30 12035 H 1093.23 -2.17046 3.61205 0
M  V30 12036 H 1091.9 -2.15401 2.41628 0
M  V30 12037 H 1090.81 -0.247009 3.73284 0
M  V30 12038 H 1092.14 -0.34463 4.90992 0
M  V30 12039 N 1093.79 -1.57004 0.136909 0
M  V30 12040 C 1094.73 -2.12004 -0.844362 0
M  V30 12041 C 1095.71 -1.04099 -1.24909 0
M  V30 12042 O 1096.89 -1.31866 -1.34698 0
M  V30 12043 C 1094.02 -2.63147 -2.13241 0
M  V30 12044 C 1093.06 -3.83105 -1.87438 0
M  V30 12045 S 1093.9 -5.2461 -1.07447 0
M  V30 12046 C 1095.05 -5.79134 -2.37392 0
M  V30 12047 H 1095.28 -2.94905 -0.376614 0
M  V30 12048 H 1092.82 -1.54207 -0.0771977 0
M  V30 12049 H 1094.78 -2.93264 -2.87239 0
M  V30 12050 H 1093.44 -1.80395 -2.57131 0
M  V30 12051 H 1092.63 -4.17099 -2.82922 0
M  V30 12052 H 1092.23 -3.53696 -1.21553 0
M  V30 12053 H 1094.52 -5.8995 -3.33114 0
M  V30 12054 H 1095.47 -6.76887 -2.07918 0
M  V30 12055 H 1095.87 -5.07311 -2.47579 0
M  V30 12056 N 1095.27 0.136881 -1.57004 0
M  V30 12057 C 1096.2 1.17026 -2.02057 0
M  V30 12058 C 1097.18 1.44223 -0.901866 0
M  V30 12059 O 1098.37 1.54971 -1.17037 0
M  V30 12060 C 1095.5 2.50095 -2.40977 0
M  V30 12061 C 1094.45 2.37398 -3.56127 0
M  V30 12062 C 1093.78 3.75268 -3.80891 0
M  V30 12063 C 1095.08 1.84952 -4.88457 0
M  V30 12064 H 1096.77 0.795601 -2.88636 0
M  V30 12065 H 1094.32 0.381266 -1.38861 0
M  V30 12066 H 1096.27 3.22621 -2.71097 0
M  V30 12067 H 1095 2.89416 -1.51348 0
M  V30 12068 H 1093.65 1.67322 -3.26188 0
M  V30 12069 H 1093.3 4.12043 -2.88496 0
M  V30 12070 H 1093 3.67631 -4.5839 0
M  V30 12071 H 1094.53 4.49327 -4.13446 0
M  V30 12072 H 1095.94 2.4728 -5.17229 0
M  V30 12073 H 1094.34 1.88181 -5.69832 0
M  V30 12074 H 1095.41 0.805848 -4.78157 0
M  V30 12075 N 1096.75 1.52266 0.40654 0
M  V30 12076 C 1097.68 1.72025 1.51459 0
M  V30 12077 C 1098.7 0.600667 1.51314 0
M  V30 12078 O 1099.88 0.875894 1.55532 0
M  V30 12079 C 1096.98 1.7479 2.90348 0
M  V30 12080 C 1096.16 3.03826 3.14656 0
M  V30 12081 C 1095.22 2.98369 4.33431 0
M  V30 12082 O 1094.24 3.7227 4.30586 0
M  V30 12083 N 1095.44 2.16338 5.38682 0
M  V30 12084 H 1098.21 2.67622 1.34903 0
M  V30 12085 H 1095.77 1.50536 0.595867 0
M  V30 12086 H 1097.76 1.68667 3.67877 0
M  V30 12087 H 1096.33 0.86656 3.00349 0
M  V30 12088 H 1095.55 3.23577 2.25148 0
M  V30 12089 H 1096.84 3.89182 3.27742 0
M  V30 12090 H 1096.24 1.55731 5.43842 0
M  V30 12091 H 1094.8 2.1607 6.14945 0
M  V30 12092 N 1098.23 -0.663929 1.42933 0
M  V30 12093 C 1099.18 -1.77717 1.47259 0
M  V30 12094 C 1100.15 -1.62922 0.323387 0
M  V30 12095 O 1101.33 -1.83319 0.529021 0
M  V30 12096 C 1098.47 -3.15814 1.39124 0
M  V30 12097 C 1097.58 -3.4182 2.64165 0
M  V30 12098 C 1096.72 -4.69705 2.48094 0
M  V30 12099 C 1095.76 -4.88781 3.68456 0
M  V30 12100 N 1094.89 -6.07915 3.51261 0
M  V30 12101 H 1099.73 -1.73355 2.42388 0
M  V30 12102 H 1097.27 -0.846121 1.2033 0
M  V30 12103 H 1099.23 -3.95633 1.32403 0
M  V30 12104 H 1097.86 -3.19274 0.475829 0
M  V30 12105 H 1096.91 -2.56176 2.81208 0
M  V30 12106 H 1098.22 -3.51805 3.53602 0
M  V30 12107 H 1097.38 -5.57632 2.39021 0
M  V30 12108 H 1096.12 -4.62022 1.56164 0
M  V30 12109 H 1095.12 -3.99292 3.7795 0
M  V30 12110 H 1096.35 -4.98301 4.61381 0
M  V30 12111 H 1094.29 -6.01384 2.62057 0
M  V30 12112 H 1094.21 -6.1881 4.34293 0
M  V30 12113 H 1095.48 -6.98492 3.4602 0
M  V30 12114 N 1099.71 -1.29285 -0.901281 0
M  V30 12115 C 1100.95 -1.17339 -1.65407 0
M  V30 12116 C 1101.29 0.274834 -1.92245 0
M  V30 12117 O 1100.56 1.19865 -1.53176 0
M  V30 12118 C 1100.84 -1.98547 -3.00418 0
M  V30 12119 C 1100.7 -3.51501 -2.80655 0
M  V30 12120 C 1102.02 -1.81062 -4.01129 0
M  V30 12121 H 1099.13 -0.427624 -0.600255 0
M  V30 12122 H 1101.78 -1.58741 -1.0441 0
M  V30 12123 H 1099.93 -1.63366 -3.52482 0
M  V30 12124 H 1101.6 -3.96655 -2.35505 0
M  V30 12125 H 1099.84 -3.76504 -2.15469 0
M  V30 12126 H 1100.51 -4.03593 -3.76585 0
M  V30 12127 H 1102.99 -2.11788 -3.58169 0
M  V30 12128 H 1101.86 -2.40235 -4.93536 0
M  V30 12129 H 1102.13 -0.765388 -4.35424 0
M  V30 12130 N 1101.18 1.11143 -1.11736 0
M  V30 12131 C 1102.41 1.86745 -0.890727 0
M  V30 12132 C 1102.83 1.80315 0.55964 0
M  V30 12133 O 1102.18 1.18663 1.38656 0
M  V30 12134 C 1102.24 3.35436 -1.34779 0
M  V30 12135 O 1101.96 3.41738 -2.74129 0
M  V30 12136 C 1103.46 4.27935 -1.15702 0
M  V30 12137 H 1100.68 0.59044 -0.318781 0
M  V30 12138 H 1103.22 1.40549 -1.48547 0
M  V30 12139 H 1101.38 3.79125 -0.796425 0
M  V30 12140 H 1101.79 4.34347 -2.94012 0
M  V30 12141 H 1103.26 5.30494 -1.52579 0
M  V30 12142 H 1103.74 4.39093 -0.0968735 0
M  V30 12143 H 1104.35 3.90042 -1.69551 0
M  V30 12144 N 1102.66 0.908147 1.28804 0
M  V30 12145 C 1103.59 0.409106 2.29888 0
M  V30 12146 C 1104.57 -0.520338 1.61946 0
M  V30 12147 O 1105.76 -0.429268 1.89396 0
M  V30 12148 C 1102.89 -0.35669 3.45463 0
M  V30 12149 C 1101.84 0.4831 4.25265 0
M  V30 12150 C 1101.17 -0.4107 5.3312 0
M  V30 12151 C 1102.47 1.73744 4.92555 0
M  V30 12152 H 1104.16 1.25386 2.7188 0
M  V30 12153 H 1101.71 0.604368 1.30703 0
M  V30 12154 H 1103.66 -0.71661 4.15262 0
M  V30 12155 H 1102.39 -1.2353 3.02337 0
M  V30 12156 H 1101.04 0.825464 3.57186 0
M  V30 12157 H 1100.69 -1.28769 4.86238 0
M  V30 12158 H 1100.39 0.14756 5.87415 0
M  V30 12159 H 1101.92 -0.766626 6.05768 0
M  V30 12160 H 1103.33 1.44676 5.54745 0
M  V30 12161 H 1101.73 2.23767 5.5682 0
M  V30 12162 H 1102.8 2.46853 4.17363 0
M  V30 12163 N 1104.14 -1.42577 0.671525 0
M  V30 12164 C 1105.42 -1.95222 0.121529 0
M  V30 12165 C 1105.8 -1.61209 -1.36289 0
M  V30 12166 O 1105.15 -0.906561 -2.09747 0
M  V30 12167 C 1105.36 -3.46846 0.387189 0
M  V30 12168 C 1106.7 -4.23525 0.301938 0
M  V30 12169 O 1107.73 -3.54753 0.320755 0
M  V30 12170 O 1106.59 -5.45967 0.241317 0
M  V30 12171 H 1103.68 -0.826999 0.000968615 0
M  V30 12172 H 1106.23 -1.52422 0.746029 0
M  V30 12173 H 1105 -3.64795 1.41563 0
M  V30 12174 H 1104.62 -3.96686 -0.26948 0
M  V30 12175 N 1105.62 -0.414636 -1.52048 0
M  V30 12176 C 1106.87 0.16073 -2.01059 0
M  V30 12177 C 1107.18 1.45753 -1.30443 0
M  V30 12178 O 1108.39 2.11448 -1.703 0
M  V30 12179 C 1106.84 0.336993 -3.58319 0
M  V30 12180 C 1106.45 -0.948037 -4.37854 0
M  V30 12181 C 1108.19 0.867353 -4.15545 0
M  V30 12182 C 1106.1 -0.738662 -5.86769 0
M  V30 12183 H 1105.03 0.0638419 -0.751292 0
M  V30 12184 H 1107.68 -0.540925 -1.75346 0
M  V30 12185 H 1106.06 1.10111 -3.80383 0
M  V30 12186 H 1107.24 -1.71873 -4.27547 0
M  V30 12187 H 1105.55 -1.40522 -3.91972 0
M  V30 12188 H 1108.15 1.04012 -5.24486 0
M  V30 12189 H 1108.49 1.84358 -3.73253 0
M  V30 12190 H 1109.03 0.162148 -3.97469 0
M  V30 12191 H 1105.77 -1.6866 -6.3343 0
M  V30 12192 H 1105.29 -0.00736294 -5.998 0
M  V30 12193 H 1106.96 -0.382978 -6.45866 0
M  V30 12194 N 1107.1 1.56929 -0.145233 0
M  V30 12195 C 1108.04 2.16671 0.795128 0
M  V30 12196 C 1109.01 1.09908 1.24537 0
M  V30 12197 O 1110.2 1.37941 1.31821 0
M  V30 12198 C 1107.34 2.79111 2.02956 0
M  V30 12199 C 1106.45 4.00261 1.62528 0
M  V30 12200 C 1105.59 4.50705 2.81137 0
M  V30 12201 C 1104.63 5.64324 2.37075 0
M  V30 12202 N 1103.76 6.09395 3.48687 0
M  V30 12203 H 1108.6 2.96692 0.278865 0
M  V30 12204 H 1106.14 1.4656 0.125934 0
M  V30 12205 H 1108.1 3.13456 2.7532 0
M  V30 12206 H 1106.73 2.01737 2.51996 0
M  V30 12207 H 1105.78 3.71906 0.799365 0
M  V30 12208 H 1107.09 4.8258 1.26166 0
M  V30 12209 H 1106.25 4.87096 3.61693 0
M  V30 12210 H 1104.98 3.67389 3.20744 0
M  V30 12211 H 1103.99 5.27511 1.54958 0
M  V30 12212 H 1105.21 6.49425 1.98556 0
M  V30 12213 H 1103.16 5.29014 3.87917 0
M  V30 12214 H 1103.08 6.86636 3.16333 0
M  V30 12215 H 1104.35 6.50431 4.29605 0
M  V30 12216 N 1108.58 -0.128553 1.57075 0
M  V30 12217 C 1109.8 -0.8564 1.88893 0
M  V30 12218 C 1110.23 -1.73095 0.736196 0
M  V30 12219 O 1109.58 -1.78567 -0.313629 0
M  V30 12220 C 1109.63 -1.67368 3.19406 0
M  V30 12221 O 1108.74 -2.77973 3.04639 0
M  V30 12222 H 1108.08 -0.237424 0.620102 0
M  V30 12223 H 1110.61 -0.113821 2.04283 0
M  V30 12224 H 1110.62 -2.0649 3.51889 0
M  V30 12225 H 1109.29 -1.03161 4.02903 0
M  V30 12226 H 1107.87 -2.42123 2.83603 0
M  V30 12227 N 1110.05 -1.5248 -0.398459 0
M  V30 12228 C 1110.98 -1.79549 -1.49279 0
M  V30 12229 C 1111.96 -0.647004 -1.57315 0
M  V30 12230 O 1113.15 -0.893661 -1.72416 0
M  V30 12231 C 1110.28 -1.95582 -2.86993 0
M  V30 12232 C 1109.23 -3.1123 -2.93803 0
M  V30 12233 C 1108.56 -3.12501 -4.33874 0
M  V30 12234 C 1109.86 -4.50485 -2.64312 0
M  V30 12235 H 1111.55 -2.71187 -1.26877 0
M  V30 12236 H 1109.1 -1.30492 -0.608924 0
M  V30 12237 H 1111.05 -2.13102 -3.63546 0
M  V30 12238 H 1109.78 -1.00625 -3.10712 0
M  V30 12239 H 1108.44 -2.93477 -2.19697 0
M  V30 12240 H 1108.08 -2.15245 -4.54619 0
M  V30 12241 H 1107.78 -3.90183 -4.39353 0
M  V30 12242 H 1109.31 -3.32164 -5.12347 0
M  V30 12243 H 1110.72 -4.68387 -3.30585 0
M  V30 12244 H 1109.12 -5.30163 -2.81153 0
M  V30 12245 H 1110.19 -4.57848 -1.59696 0
M  V30 12246 N 1111.53 0.65634 -1.43283 0
M  V30 12247 C 1112.76 1.44906 -1.48382 0
M  V30 12248 C 1113.18 1.87823 -0.101993 0
M  V30 12249 O 1112.54 1.57178 0.903597 0
M  V30 12250 C 1112.59 2.66231 -2.43215 0
M  V30 12251 O 1111.69 3.65176 -1.91625 0
M  V30 12252 H 1111.03 0.434601 -0.502014 0
M  V30 12253 H 1113.56 0.803429 -1.88165 0
M  V30 12254 H 1113.57 3.14083 -2.60414 0
M  V30 12255 H 1112.25 2.34336 -3.43598 0
M  V30 12256 H 1110.82 3.24302 -1.84072 0
M  V30 12257 N 1113.01 1.29761 0.894412 0
M  V30 12258 C 1113.97 1.15335 1.98067 0
M  V30 12259 C 1114.97 0.0872804 1.60563 0
M  V30 12260 O 1116.16 0.334645 1.70955 0
M  V30 12261 C 1113.29 0.764907 3.32208 0
M  V30 12262 H 1114.49 2.11829 2.12293 0
M  V30 12263 H 1112.04 1.13023 1.0796 0
M  V30 12264 H 1112.78 -0.199948 3.23683 0
M  V30 12265 H 1112.56 1.53523 3.60795 0
M  V30 12266 H 1114.05 0.687176 4.11907 0
M  V30 12267 N 1114.49 -1.10549 1.12324 0
M  V30 12268 C 1115.4 -2.20428 0.803032 0
M  V30 12269 C 1116.41 -1.72756 -0.207674 0
M  V30 12270 O 1117.59 -2.01357 -0.0415623 0
M  V30 12271 C 1114.65 -3.45716 0.261032 0
M  V30 12272 C 1113.72 -4.08129 1.33152 0
M  V30 12273 C 1112.95 -5.27436 0.815288 0
M  V30 12274 O 1113.17 -5.69317 -0.351361 0
M  V30 12275 O 1112.11 -5.80674 1.58434 0
M  V30 12276 H 1115.93 -2.50249 1.72073 0
M  V30 12277 H 1113.52 -1.19263 0.899815 0
M  V30 12278 H 1115.4 -4.21384 -0.0364007 0
M  V30 12279 H 1114.07 -3.17525 -0.629249 0
M  V30 12280 H 1112.98 -3.3415 1.6821 0
M  V30 12281 H 1114.31 -4.4052 2.19552 0
M  V30 12282 N 1115.97 -0.914965 -1.28321 0
M  V30 12283 C 1116.91 -0.402792 -2.27258 0
M  V30 12284 C 1117.88 0.523412 -1.57638 0
M  V30 12285 O 1119.07 0.445344 -1.8553 0
M  V30 12286 C 1116.21 0.349956 -3.43321 0
M  V30 12287 C 1115.32 -0.608892 -4.27687 0
M  V30 12288 C 1114.46 0.162425 -5.30952 0
M  V30 12289 C 1113.49 -0.789959 -6.06981 0
M  V30 12290 N 1112.63 -0.0520826 -7.02081 0
M  V30 12291 H 1117.47 -1.25153 -2.70446 0
M  V30 12292 H 1115.01 -0.628444 -1.33 0
M  V30 12293 H 1116.97 0.802589 -4.09407 0
M  V30 12294 H 1115.6 1.16303 -3.01121 0
M  V30 12295 H 1114.65 -1.18005 -3.61634 0
M  V30 12296 H 1115.96 -1.33727 -4.8054 0
M  V30 12297 H 1115.11 0.675563 -6.02927 0
M  V30 12298 H 1113.85 0.923851 -4.7887 0
M  V30 12299 H 1112.86 -1.31446 -5.33856 0
M  V30 12300 H 1114.08 -1.55096 -6.61152 0
M  V30 12301 H 1112.03 0.691331 -6.52347 0
M  V30 12302 H 1111.95 -0.720267 -7.52561 0
M  V30 12303 H 1113.21 0.44082 -7.78253 0
M  V30 12304 N 1117.44 1.42219 -0.679077 0
M  V30 12305 C 1118.67 2.05516 -0.211342 0
M  V30 12306 C 1119.08 1.5113 1.13826 0
M  V30 12307 O 1118.42 0.647593 1.71907 0
M  V30 12308 C 1118.49 3.59425 -0.0736007 0
M  V30 12309 C 1118.15 4.36525 -1.3526 0
M  V30 12310 C 1119.15 4.66897 -2.28698 0
M  V30 12311 C 1116.83 4.76089 -1.60139 0
M  V30 12312 C 1118.83 5.35775 -3.45288 0
M  V30 12313 C 1116.51 5.44706 -2.77017 0
M  V30 12314 C 1117.51 5.74474 -3.69416 0
M  V30 12315 O 1117.2 6.41683 -4.8425 0
M  V30 12316 H 1116.93 0.668662 -0.0993318 0
M  V30 12317 H 1119.49 1.8327 -0.927434 0
M  V30 12318 H 1117.72 3.80346 0.69811 0
M  V30 12319 H 1119.4 4.04346 0.354813 0
M  V30 12320 H 1120.17 4.36828 -2.10729 0
M  V30 12321 H 1116.05 4.5231 -0.890887 0
M  V30 12322 H 1119.59 5.58927 -4.17428 0
M  V30 12323 H 1115.49 5.74194 -2.9491 0
M  V30 12324 H 1116.26 6.60175 -4.8385 0
M  V30 12325 N 1118.92 0.422693 1.51826 0
M  V30 12326 C 1120.2 -0.20786 1.94492 0
M  V30 12327 C 1120.58 -1.61414 1.36047 0
M  V30 12328 O 1119.93 -2.21987 0.541657 0
M  V30 12329 C 1120.14 -0.200457 3.48424 0
M  V30 12330 C 1121.48 -0.413199 4.22585 0
M  V30 12331 O 1122.51 -0.27922 3.55104 0
M  V30 12332 O 1121.37 -0.678469 5.42272 0
M  V30 12333 H 1118.46 -0.137851 0.81543 0
M  V30 12334 H 1121.01 0.479617 1.62781 0
M  V30 12335 H 1119.78 0.783263 3.83381 0
M  V30 12336 H 1119.4 -0.931464 3.86535 0
M  V30 12337 N 1120.4 -1.5685 0.153553 0
M  V30 12338 C 1121.65 -1.96625 -0.49665 0
M  V30 12339 C 1121.98 -1.03877 -1.64083 0
M  V30 12340 O 1121.25 -0.0824112 -1.94325 0
M  V30 12341 C 1121.54 -3.46035 -0.996585 0
M  V30 12342 C 1121.39 -4.49561 0.146551 0
M  V30 12343 C 1122.71 -3.98104 -1.8762 0
M  V30 12344 H 1119.83 -0.714917 -0.179059 0
M  V30 12345 H 1122.47 -1.88527 0.236104 0
M  V30 12346 H 1120.62 -3.53066 -1.621 0
M  V30 12347 H 1122.29 -4.54604 0.783108 0
M  V30 12348 H 1120.53 -4.26271 0.804727 0
M  V30 12349 H 1121.21 -5.51456 -0.245078 0
M  V30 12350 H 1123.68 -3.93593 -1.34997 0
M  V30 12351 H 1122.56 -5.03098 -2.19508 0
M  V30 12352 H 1122.82 -3.40852 -2.81554 0
M  V30 12353 N 1121.88 0.120221 -1.57141 0
M  V30 12354 C 1123.1 0.84637 -1.89344 0
M  V30 12355 C 1123.53 1.72702 -0.745365 0
M  V30 12356 O 1122.89 1.7873 0.304155 0
M  V30 12357 C 1122.93 1.65671 -3.20289 0
M  V30 12358 O 1122.04 2.76353 -3.06109 0
M  V30 12359 H 1121.38 0.234132 -0.621352 0
M  V30 12360 H 1123.91 0.102986 -2.04341 0
M  V30 12361 H 1123.92 2.04621 -3.52979 0
M  V30 12362 H 1122.59 1.01023 -4.03444 0
M  V30 12363 H 1121.17 2.40615 -2.84884 0
M  V30 12364 N 1123.36 1.52689 0.390367 0
M  V30 12365 C 1124.58 1.71839 1.16129 0
M  V30 12366 C 1125.01 0.435226 1.82996 0
M  V30 12367 O 1124.36 -0.60889 1.70769 0
M  V30 12368 C 1124.41 2.86784 2.18603 0
M  V30 12369 O 1123.52 2.53662 3.25161 0
M  V30 12370 H 1122.86 0.571455 0.338135 0
M  V30 12371 H 1125.39 1.99475 0.45508 0
M  V30 12372 H 1125.4 3.12239 2.62622 0
M  V30 12373 H 1124.07 3.79872 1.69322 0
M  V30 12374 H 1122.65 2.38942 2.86289 0
M  V30 12375 N 1124.83 -0.648732 1.43629 0
M  V30 12376 C 1125.77 -1.77417 1.45107 0
M  V30 12377 C 1126.78 -1.59067 0.346618 0
M  V30 12378 O 1127.97 -1.67705 0.611322 0
M  V30 12379 C 1125.07 -3.14906 1.25249 0
M  V30 12380 C 1124.24 -3.59874 2.48616 0
M  V30 12381 C 1123.3 -4.76181 2.23916 0
M  V30 12382 O 1122.33 -4.8539 2.97296 0
M  V30 12383 N 1123.53 -5.66691 1.25862 0
M  V30 12384 H 1126.29 -1.76626 2.42123 0
M  V30 12385 H 1123.85 -0.832725 1.38843 0
M  V30 12386 H 1125.85 -3.90408 1.06601 0
M  V30 12387 H 1124.42 -3.10443 0.366623 0
M  V30 12388 H 1123.64 -2.74768 2.82659 0
M  V30 12389 H 1124.92 -3.86665 3.30708 0
M  V30 12390 H 1124.32 -5.61927 0.652227 0
M  V30 12391 H 1122.88 -6.41895 1.13196 0
M  V30 12392 N 1126.31 -1.30234 -0.887518 0
M  V30 12393 C 1127.56 -1.19086 -1.64153 0
M  V30 12394 C 1127.89 0.254428 -1.92526 0
M  V30 12395 O 1127.17 1.18233 -1.54438 0
M  V30 12396 C 1127.45 -2.01723 -2.98295 0
M  V30 12397 C 1127.3 -3.54458 -2.76911 0
M  V30 12398 C 1128.62 -1.85307 -3.99186 0
M  V30 12399 H 1125.74 -0.433967 -0.595686 0
M  V30 12400 H 1128.38 -1.59839 -1.0272 0
M  V30 12401 H 1126.53 -1.67096 -3.5073 0
M  V30 12402 H 1128.2 -3.99131 -2.31284 0
M  V30 12403 H 1126.45 -3.78768 -2.11464 0
M  V30 12404 H 1127.12 -4.07565 -3.72283 0
M  V30 12405 H 1129.59 -2.15575 -3.55903 0
M  V30 12406 H 1128.47 -2.45456 -4.90961 0
M  V30 12407 H 1128.73 -0.811528 -4.34588 0
M  V30 12408 N 1127.79 1.09952 -1.12909 0
M  V30 12409 C 1129.04 1.81386 -0.882163 0
M  V30 12410 C 1129.35 1.86376 0.593592 0
M  V30 12411 O 1130.56 2.54064 0.957275 0
M  V30 12412 C 1129.01 3.25824 -1.52861 0
M  V30 12413 C 1128.62 3.29117 -3.0395 0
M  V30 12414 C 1130.37 4.02051 -1.36216 0
M  V30 12415 C 1128.27 4.68047 -3.61505 0
M  V30 12416 H 1127.2 0.679701 -0.326378 0
M  V30 12417 H 1129.85 1.23614 -1.35616 0
M  V30 12418 H 1128.24 3.83624 -0.982271 0
M  V30 12419 H 1129.41 2.81114 -3.65119 0
M  V30 12420 H 1127.73 2.66379 -3.20049 0
M  V30 12421 H 1130.32 5.04683 -1.76633 0
M  V30 12422 H 1130.67 4.15171 -0.306391 0
M  V30 12423 H 1131.2 3.5068 -1.87799 0
M  V30 12424 H 1127.94 4.60128 -4.66865 0
M  V30 12425 H 1127.46 5.16397 -3.05114 0
M  V30 12426 H 1129.14 5.37018 -3.6086 0
M  V30 12427 N 1129.27 0.921757 1.27833 0
M  V30 12428 C 1130.49 0.574599 1.99281 0
M  V30 12429 C 1130.92 -0.838905 1.68357 0
M  V30 12430 O 1130.28 -1.56196 0.920468 0
M  V30 12431 C 1130.32 0.800027 3.51613 0
M  V30 12432 O 1129.43 -0.137215 4.12172 0
M  V30 12433 H 1128.77 0.221887 0.625829 0
M  V30 12434 H 1131.3 1.23939 1.62789 0
M  V30 12435 H 1131.31 0.71326 4.01717 0
M  V30 12436 H 1129.98 1.83042 3.73455 0
M  V30 12437 H 1128.56 -0.00103872 3.729 0
M  V30 12438 N 1130.75 -1.41857 0.686609 0
M  V30 12439 C 1131.68 -2.29188 -0.0234289 0
M  V30 12440 C 1132.69 -1.44311 -0.753541 0
M  V30 12441 O 1133.88 -1.67908 -0.605734 0
M  V30 12442 C 1130.98 -3.21991 -1.05713 0
M  V30 12443 C 1130.15 -4.35581 -0.398453 0
M  V30 12444 C 1129.21 -5.09022 -1.33354 0
M  V30 12445 O 1128.24 -5.63126 -0.829334 0
M  V30 12446 N 1129.44 -5.15643 -2.66632 0
M  V30 12447 H 1132.21 -2.90766 0.726295 0
M  V30 12448 H 1129.77 -1.52912 0.531937 0
M  V30 12449 H 1131.76 -3.6799 -1.68421 0
M  V30 12450 H 1130.33 -2.61782 -1.70847 0
M  V30 12451 H 1129.55 -3.92079 0.408358 0
M  V30 12452 H 1130.84 -5.08765 0.0599239 0
M  V30 12453 H 1130.23 -4.73118 -3.10122 0
M  V30 12454 H 1128.79 -5.65248 -3.24558 0
M  V30 12455 N 1132.22 -0.430739 -1.51599 0
M  V30 12456 C 1133.15 0.374695 -2.30474 0
M  V30 12457 C 1134.14 1.02694 -1.35602 0
M  V30 12458 O 1135.32 1.03184 -1.6452 0
M  V30 12459 C 1132.45 1.47981 -3.14196 0
M  V30 12460 C 1131.4 0.951415 -4.17291 0
M  V30 12461 C 1130.73 2.15177 -4.89492 0
M  V30 12462 C 1132.03 -0.00957951 -5.22299 0
M  V30 12463 H 1133.72 -0.283508 -2.98055 0
M  V30 12464 H 1131.27 -0.13779 -1.43339 0
M  V30 12465 H 1133.22 2.05043 -3.68151 0
M  V30 12466 H 1131.95 2.16621 -2.44424 0
M  V30 12467 H 1130.61 0.403052 -3.64378 0
M  V30 12468 H 1130.25 2.82421 -4.1623 0
M  V30 12469 H 1129.95 1.80464 -5.59202 0
M  V30 12470 H 1131.48 2.72806 -5.46269 0
M  V30 12471 H 1132.89 0.470527 -5.71366 0
M  V30 12472 H 1131.29 -0.268959 -5.99497 0
M  V30 12473 H 1132.36 -0.948297 -4.75537 0
M  V30 12474 N 1133.7 1.56767 -0.161869 0
M  V30 12475 C 1134.65 2.17502 0.772102 0
M  V30 12476 C 1135.62 1.11223 1.23364 0
M  V30 12477 O 1136.8 1.39332 1.30351 0
M  V30 12478 C 1133.94 2.81248 1.99984 0
M  V30 12479 C 1133.06 4.01962 1.58274 0
M  V30 12480 C 1132.19 4.53662 2.76341 0
M  V30 12481 C 1131.23 5.66807 2.31076 0
M  V30 12482 N 1130.37 6.13059 3.42203 0
M  V30 12483 H 1135.21 2.96971 0.247382 0
M  V30 12484 H 1132.75 1.46685 0.110382 0
M  V30 12485 H 1134.7 3.16359 2.7198 0
M  V30 12486 H 1133.33 2.04398 2.49842 0
M  V30 12487 H 1132.39 3.72733 0.759874 0
M  V30 12488 H 1133.7 4.83891 1.2104 0
M  V30 12489 H 1132.85 4.90905 3.56507 0
M  V30 12490 H 1131.59 3.7077 3.16829 0
M  V30 12491 H 1130.6 5.29125 1.49354 0
M  V30 12492 H 1131.82 6.51494 1.91657 0
M  V30 12493 H 1129.77 5.33099 3.82285 0
M  V30 12494 H 1129.68 6.89953 3.09033 0
M  V30 12495 H 1130.95 6.54951 4.22682 0
M  V30 12496 N 1135.18 -0.111886 1.57202 0
M  V30 12497 C 1136.11 -1.16274 1.97517 0
M  V30 12498 C 1137.13 -1.37259 0.875425 0
M  V30 12499 O 1138.31 -1.36208 1.15367 0
M  V30 12500 C 1135.41 -2.52145 2.26442 0
M  V30 12501 C 1134.59 -2.51666 3.57747 0
M  V30 12502 C 1133.65 -3.69337 3.74802 0
M  V30 12503 O 1132.67 -3.52596 4.46839 0
M  V30 12504 N 1133.87 -4.88177 3.14108 0
M  V30 12505 H 1136.64 -0.819747 2.88271 0
M  V30 12506 H 1134.2 -0.301076 1.59076 0
M  V30 12507 H 1136.19 -3.29437 2.3506 0
M  V30 12508 H 1134.76 -2.78599 1.41779 0
M  V30 12509 H 1133.98 -1.60038 3.60252 0
M  V30 12510 H 1135.27 -2.48408 4.44039 0
M  V30 12511 H 1134.67 -5.04682 2.55564 0
M  V30 12512 H 1133.23 -5.6312 3.28237 0
M  V30 12513 N 1136.66 -1.52894 -0.382264 0
M  V30 12514 C 1137.61 -1.78151 -1.46734 0
M  V30 12515 C 1138.58 -0.625034 -1.53891 0
M  V30 12516 O 1139.76 -0.865467 -1.70042 0
M  V30 12517 C 1136.9 -1.96223 -2.83885 0
M  V30 12518 C 1136.01 -3.23925 -2.85826 0
M  V30 12519 C 1135.15 -3.32277 -4.14446 0
M  V30 12520 C 1134.19 -4.54076 -4.10465 0
M  V30 12521 N 1133.32 -4.59672 -5.30703 0
M  V30 12522 H 1138.16 -2.70748 -1.24497 0
M  V30 12523 H 1135.7 -1.34135 -0.603838 0
M  V30 12524 H 1137.66 -2.04686 -3.63537 0
M  V30 12525 H 1136.29 -1.0698 -3.04557 0
M  V30 12526 H 1135.34 -3.245 -1.98505 0
M  V30 12527 H 1136.65 -4.1364 -2.78754 0
M  V30 12528 H 1135.81 -3.3996 -5.02506 0
M  V30 12529 H 1134.55 -2.40548 -4.2425 0
M  V30 12530 H 1133.55 -4.46511 -3.20793 0
M  V30 12531 H 1134.78 -5.47128 -4.02278 0
M  V30 12532 H 1132.72 -3.70838 -5.41124 0
M  V30 12533 H 1132.64 -5.43268 -5.25734 0
M  V30 12534 H 1133.91 -4.71618 -6.20642 0
M  V30 12535 N 1138.14 0.641106 -1.43971 0
M  V30 12536 C 1139.07 1.76489 -1.52885 0
M  V30 12537 C 1140.05 1.65742 -0.38258 0
M  V30 12538 O 1141.23 1.84653 -0.601397 0
M  V30 12539 C 1138.36 3.14977 -1.4631 0
M  V30 12540 C 1137.32 3.40502 -2.59311 0
M  V30 12541 C 1136.64 4.78916 -2.37789 0
M  V30 12542 C 1137.94 3.34048 -4.01509 0
M  V30 12543 H 1139.64 1.69286 -2.46946 0
M  V30 12544 H 1137.18 0.813015 -1.18853 0
M  V30 12545 H 1139.14 3.9336 -1.51149 0
M  V30 12546 H 1137.86 3.2294 -0.487599 0
M  V30 12547 H 1136.52 2.64495 -2.53846 0
M  V30 12548 H 1136.17 4.8357 -1.38454 0
M  V30 12549 H 1135.87 4.96954 -3.13545 0
M  V30 12550 H 1137.39 5.59541 -2.4443 0
M  V30 12551 H 1138.81 4.0235 -4.08396 0
M  V30 12552 H 1137.2 3.63622 -4.77388 0
M  V30 12553 H 1138.27 2.32022 -4.25786 0
M  V30 12554 N 1139.62 1.30703 0.880598 0
M  V30 12555 C 1140.53 1.19389 2.01949 0
M  V30 12556 C 1141.54 0.112868 1.73634 0
M  V30 12557 O 1142.72 0.328643 1.98701 0
M  V30 12558 C 1139.78 0.891004 3.35055 0
M  V30 12559 C 1138.84 2.05784 3.76764 0
M  V30 12560 C 1138.08 1.76931 5.03519 0
M  V30 12561 O 1138.3 0.699326 5.66097 0
M  V30 12562 O 1137.23 2.623 5.4174 0
M  V30 12563 H 1141.06 2.15073 2.14423 0
M  V30 12564 H 1138.64 1.10339 1.00726 0
M  V30 12565 H 1140.53 0.737476 4.14897 0
M  V30 12566 H 1139.2 -0.0358909 3.2368 0
M  V30 12567 H 1138.11 2.26672 2.97608 0
M  V30 12568 H 1139.44 2.96661 3.9275 0
M  V30 12569 N 1141.09 -1.09351 1.1349 0
M  V30 12570 C 1142.04 -2.18099 0.808426 0
M  V30 12571 C 1143.04 -1.68099 -0.209571 0
M  V30 12572 O 1144.24 -1.79877 -0.0666417 0
M  V30 12573 H 1140.62 -0.711432 0.243658 0
M  V30 12574 H 1142.59 -2.42867 1.73373 0
M  V30 12575 C 1141.34 -3.46475 0.291615 0
M  V30 12576 H 1140.66 -3.85319 1.06627 0
M  V30 12577 H 1142.1 -4.23878 0.101616 0
M  V30 12578 C 1140.56 -3.22245 -0.982827 0
M  V30 12579 O 1141.09 -3.44947 -2.0585 0
M  V30 12580 N 1139.29 -2.75845 -0.914218 0
M  V30 12581 H 1138.84 -2.57571 -0.03872 0
M  V30 12582 H 1138.8 -2.60011 -1.76753 0
M  V30 12583 N 1142.57 -0.928524 -1.27343 0
M  V30 12584 C 1143.5 -0.445627 -2.29208 0
M  V30 12585 C 1144.48 0.494508 -1.62753 0
M  V30 12586 O 1145.67 0.399082 -1.90055 0
M  V30 12587 C 1142.8 0.301684 -3.45987 0
M  V30 12588 C 1141.75 -0.550695 -4.24442 0
M  V30 12589 C 1141.08 0.325833 -5.33706 0
M  V30 12590 C 1142.38 -1.81559 -4.89728 0
M  V30 12591 H 1144.07 -1.29696 -2.69851 0
M  V30 12592 H 1141.62 -0.625085 -1.29725 0
M  V30 12593 H 1143.57 0.650455 -4.1635 0
M  V30 12594 H 1142.29 1.18705 -3.04264 0
M  V30 12595 H 1140.95 -0.882185 -3.55827 0
M  V30 12596 H 1140.6 1.21018 -4.88225 0
M  V30 12597 H 1140.3 -0.240994 -5.87106 0
M  V30 12598 H 1141.83 0.670156 -6.06911 0
M  V30 12599 H 1143.24 -1.53483 -5.52373 0
M  V30 12600 H 1141.64 -2.32598 -5.53189 0
M  V30 12601 H 1142.71 -2.53461 -4.13383 0
M  V30 12602 N 1144.05 1.41491 -0.694123 0
M  V30 12603 C 1144.98 2.29197 0.0112742 0
M  V30 12604 C 1145.99 1.44708 0.745877 0
M  V30 12605 O 1147.18 1.68227 0.596821 0
M  V30 12606 C 1144.28 3.22547 1.04004 0
M  V30 12607 C 1143.46 4.35787 0.375347 0
M  V30 12608 C 1142.52 5.09722 1.30652 0
M  V30 12609 O 1141.54 5.63558 0.799459 0
M  V30 12610 N 1142.74 5.1705 2.63893 0
M  V30 12611 H 1145.51 2.90377 -0.741705 0
M  V30 12612 H 1143.07 1.52628 -0.540039 0
M  V30 12613 H 1145.06 3.68878 1.66468 0
M  V30 12614 H 1143.63 2.62685 1.69456 0
M  V30 12615 H 1142.85 3.91857 -0.429145 0
M  V30 12616 H 1144.14 5.08726 -0.0869041 0
M  V30 12617 H 1143.54 4.74756 3.07609 0
M  V30 12618 H 1142.09 5.66962 3.21555 0
M  V30 12619 N 1145.53 0.438773 1.51369 0
M  V30 12620 C 1146.48 -0.386324 2.29369 0
M  V30 12621 C 1147.47 -1.0196 1.3528 0
M  V30 12622 O 1148.68 -0.9544 1.52615 0
M  V30 12623 H 1145.05 -0.143397 0.738201 0
M  V30 12624 H 1147.02 0.292372 2.96964 0
M  V30 12625 C 1145.77 -1.47426 3.14898 0
M  V30 12626 H 1145.09 -0.996335 3.87186 0
M  V30 12627 H 1146.53 -2.02481 3.72529 0
M  V30 12628 C 1144.99 -2.45831 2.30366 0
M  V30 12629 O 1145.52 -3.50398 1.96428 0
M  V30 12630 N 1143.73 -2.16754 1.93561 0
M  V30 12631 H 1143.28 -1.31748 2.2136 0
M  V30 12632 H 1143.23 -2.82836 1.373 0
M  V30 12633 N 1147.01 -1.56678 0.170181 0
M  V30 12634 C 1148.23 -2.0166 -0.484543 0
M  V30 12635 C 1148.66 -1.04962 -1.56091 0
M  V30 12636 O 1148.01 -0.0289887 -1.81277 0
M  V30 12637 C 1148.06 -3.45252 -1.04084 0
M  V30 12638 O 1147.17 -3.51623 -2.15488 0
M  V30 12639 H 1146.51 -0.653765 -0.116135 0
M  V30 12640 H 1149.04 -2.02761 0.273737 0
M  V30 12641 H 1149.05 -3.84534 -1.36373 0
M  V30 12642 H 1147.72 -4.15131 -0.252738 0
M  V30 12643 H 1146.3 -3.242 -1.84252 0
M  V30 12644 N 1148.48 0.103547 -1.57259 0
M  V30 12645 C 1149.42 1.15225 -1.98131 0
M  V30 12646 C 1150.43 1.36793 -0.882692 0
M  V30 12647 O 1151.62 1.35595 -1.16088 0
M  V30 12648 C 1148.72 2.50941 -2.27776 0
M  V30 12649 C 1147.89 2.49765 -3.59077 0
M  V30 12650 C 1146.95 3.67344 -3.76756 0
M  V30 12651 O 1145.98 3.50221 -4.48702 0
M  V30 12652 N 1147.18 4.86504 -3.16692 0
M  V30 12653 H 1149.94 0.804448 -2.88702 0
M  V30 12654 H 1147.5 0.292636 -1.59233 0
M  V30 12655 H 1149.5 3.28186 -2.36804 0
M  V30 12656 H 1148.07 2.77843 -1.43255 0
M  V30 12657 H 1147.29 1.58125 -3.61096 0
M  V30 12658 H 1148.57 2.4605 -4.4535 0
M  V30 12659 H 1147.97 5.03319 -2.58236 0
M  V30 12660 H 1146.53 5.61371 -3.31218 0
M  V30 12661 N 1149.96 1.53094 0.37415 0
M  V30 12662 C 1150.89 1.81901 1.46404 0
M  V30 12663 C 1151.87 0.671949 1.56265 0
M  V30 12664 O 1153.06 0.920978 1.70973 0
M  V30 12665 C 1150.19 2.00123 2.83845 0
M  V30 12666 C 1149.14 3.15864 2.88814 0
M  V30 12667 C 1148.47 3.19364 4.28848 0
M  V30 12668 C 1149.77 4.54633 2.57112 0
M  V30 12669 H 1151.46 2.73172 1.22546 0
M  V30 12670 H 1149.01 1.31444 0.588087 0
M  V30 12671 H 1150.96 2.18859 3.6011 0
M  V30 12672 H 1149.68 1.05555 3.09072 0
M  V30 12673 H 1148.34 2.96935 2.15 0
M  V30 12674 H 1147.99 2.2245 4.51137 0
M  V30 12675 H 1147.69 3.97123 4.3309 0
M  V30 12676 H 1149.22 3.40273 5.06997 0
M  V30 12677 H 1150.63 4.73587 3.23091 0
M  V30 12678 H 1149.03 5.34569 2.72683 0
M  V30 12679 H 1150.1 4.60331 1.52392 0
M  V30 12680 N 1151.44 -0.633461 1.44309 0
M  V30 12681 C 1152.85 -1.21504 1.41752 0
M  V30 12682 C 1153.2 -1.95758 0.131667 0
M  V30 12683 O 1152.33 -2.02311 -0.768072 0
M  V30 12684 C 1152.92 -2.21005 2.56792 0
M  V30 12685 C 1151.48 -2.74596 2.57438 0
M  V30 12686 C 1150.63 -1.49555 2.33513 0
M  V30 12687 H 1153.58 -0.424277 1.52923 0
M  V30 12688 H 1153.6 -3.03563 2.29412 0
M  V30 12689 H 1153.11 -1.66934 3.50364 0
M  V30 12690 H 1151.21 -3.32676 1.67801 0
M  V30 12691 H 1151.33 -3.20794 3.55849 0
M  V30 12692 H 1149.69 -1.77605 1.82561 0
M  V30 12693 H 1150.47 -0.973899 3.29196 0
M  V30 12694 N 1152.92 -1.31168 -0.873655 0
M  V30 12695 C 1153.83 -1.20458 -2.01313 0
M  V30 12696 C 1154.84 -0.122074 -1.73571 0
M  V30 12697 O 1156.02 -0.339176 -1.98523 0
M  V30 12698 C 1153.09 -0.90876 -3.34578 0
M  V30 12699 C 1152.15 -2.07779 -3.75668 0
M  V30 12700 C 1151.38 -1.79599 -5.02573 0
M  V30 12701 O 1151.6 -0.729338 -5.65718 0
M  V30 12702 O 1150.54 -2.65169 -5.40341 0
M  V30 12703 H 1154.36 -2.16207 -2.13279 0
M  V30 12704 H 1151.95 -1.10871 -1.00139 0
M  V30 12705 H 1153.83 -0.759469 -4.145 0
M  V30 12706 H 1152.5 0.0187249 -3.23695 0
M  V30 12707 H 1151.41 -2.28247 -2.96402 0
M  V30 12708 H 1152.74 -2.9874 -3.91172 0
M  V30 12709 N 1154.4 1.08748 -1.14068 0
M  V30 12710 C 1155.62 1.85353 -0.930532 0
M  V30 12711 C 1156.05 1.80892 0.515717 0
M  V30 12712 O 1155.4 1.19146 1.36652 0
M  V30 12713 C 1155.45 3.30962 -1.43167 0
M  V30 12714 O 1154.56 4.0769 -0.621468 0
M  V30 12715 H 1153.9 0.574485 -0.332962 0
M  V30 12716 H 1156.43 1.37282 -1.51707 0
M  V30 12717 H 1156.44 3.81807 -1.43832 0
M  V30 12718 H 1155.11 3.33524 -2.48464 0
M  V30 12719 H 1153.69 3.66587 -0.683267 0
M  V30 12720 N 1155.87 0.935264 1.26849 0
M  V30 12721 C 1157.12 0.57969 1.94025 0
M  V30 12722 C 1157.45 -0.880295 1.73439 0
M  V30 12723 O 1156.7 -1.64429 1.0612 0
M  V30 12724 C 1157 0.861098 3.46872 0
M  V30 12725 C 1156.67 2.30402 3.87589 0
M  V30 12726 C 1155.33 2.69848 3.98417 0
M  V30 12727 C 1157.68 3.242 4.08098 0
M  V30 12728 C 1155.01 4.02199 4.27145 0
M  V30 12729 C 1157.36 4.56141 4.38313 0
M  V30 12730 C 1156.03 4.9541 4.47354 0
M  V30 12731 H 1155.3 0.212123 0.709989 0
M  V30 12732 H 1157.94 1.18066 1.50774 0
M  V30 12733 H 1156.25 0.177534 3.91398 0
M  V30 12734 H 1157.95 0.564841 3.97002 0
M  V30 12735 H 1154.54 1.98803 3.79704 0
M  V30 12736 H 1158.72 2.94924 3.99166 0
M  V30 12737 H 1153.98 4.32295 4.32355 0
M  V30 12738 H 1158.15 5.28818 4.53128 0
M  V30 12739 H 1155.78 5.97994 4.69368 0
M  V30 12740 N 1157.35 -1.41121 0.701616 0
M  V30 12741 C 1158.77 -1.55162 0.373766 0
M  V30 12742 C 1158.97 -1.6759 -1.11875 0
M  V30 12743 O 1158.02 -1.65768 -1.90465 0
M  V30 12744 C 1159.34 -2.78758 1.12759 0
M  V30 12745 C 1160.89 -2.92561 1.11253 0
M  V30 12746 C 1161.36 -4.19052 1.84822 0
M  V30 12747 N 1162.85 -4.26023 1.81821 0
M  V30 12748 C 1163.59 -5.22771 2.3558 0
M  V30 12749 N 1163.08 -6.25512 2.97836 0
M  V30 12750 N 1164.88 -5.14752 2.25802 0
M  V30 12751 H 1157.03 -1.31299 1.66956 0
M  V30 12752 H 1159.29 -0.633894 0.704898 0
M  V30 12753 H 1159 -2.75804 2.18231 0
M  V30 12754 H 1158.87 -3.70456 0.710095 0
M  V30 12755 H 1161.26 -2.95026 0.0660506 0
M  V30 12756 H 1161.34 -2.0202 1.56913 0
M  V30 12757 H 1160.98 -4.17349 2.89452 0
M  V30 12758 H 1160.91 -5.08577 1.36592 0
M  V30 12759 H 1163.4 -3.52411 1.36438 0
M  V30 12760 H 1163.72 -6.95736 3.36409 0
M  V30 12761 H 1162.06 -6.25997 3.01916 0
M  V30 12762 H 1165.25 -4.33414 1.76833 0
M  V30 12763 H 1165.42 -5.89983 2.68001 0
M  V30 12764 N 1158.83 -0.446794 -1.51134 0
M  V30 12765 C 1160.08 0.116666 -2.02464 0
M  V30 12766 C 1160.41 1.41532 -1.32975 0
M  V30 12767 O 1159.68 1.89278 -0.447651 0
M  V30 12768 C 1159.97 0.325659 -3.58624 0
M  V30 12769 C 1159.82 -0.992307 -4.38718 0
M  V30 12770 C 1161.14 1.09121 -4.26357 0
M  V30 12771 H 1158.26 0.0409262 -0.735863 0
M  V30 12772 H 1160.9 -0.587641 -1.80684 0
M  V30 12773 H 1159.05 0.925585 -3.77313 0
M  V30 12774 H 1160.72 -1.62694 -4.31658 0
M  V30 12775 H 1158.97 -1.5947 -4.03425 0
M  V30 12776 H 1159.64 -0.800005 -5.46172 0
M  V30 12777 H 1162.11 0.582944 -4.11996 0
M  V30 12778 H 1160.99 1.20621 -5.35483 0
M  V30 12779 H 1161.25 2.12171 -3.87861 0
M  V30 12780 N 1160.31 1.56586 -0.178487 0
M  V30 12781 C 1161.72 1.83633 0.337009 0
M  V30 12782 C 1162.07 1.09857 1.6256 0
M  V30 12783 O 1161.2 0.353933 2.13486 0
M  V30 12784 C 1161.79 3.33112 0.618225 0
M  V30 12785 C 1160.35 3.60629 1.07814 0
M  V30 12786 C 1159.5 2.7705 0.117825 0
M  V30 12787 H 1162.45 1.53508 -0.402612 0
M  V30 12788 H 1162.47 3.5098 1.46947 0
M  V30 12789 H 1161.98 3.8678 -0.319808 0
M  V30 12790 H 1160.08 3.12378 2.03103 0
M  V30 12791 H 1160.19 4.68921 0.982339 0
M  V30 12792 H 1158.56 2.47125 0.616563 0
M  V30 12793 H 1159.34 3.33501 -0.814356 0
M  V30 12794 N 1161.79 -0.095206 1.57312 0
M  V30 12795 C 1163.02 -0.811092 1.90013 0
M  V30 12796 C 1163.42 -1.72807 0.770359 0
M  V30 12797 O 1162.77 -1.81755 -0.266615 0
M  V30 12798 C 1162.83 -1.67744 3.17966 0
M  V30 12799 C 1162.49 -0.932301 4.47389 0
M  V30 12800 C 1163.49 -0.262161 5.19239 0
M  V30 12801 C 1161.18 -0.906414 4.94054 0
M  V30 12802 C 1163.17 0.423898 6.35989 0
M  V30 12803 C 1160.86 -0.216569 6.10716 0
M  V30 12804 C 1161.85 0.447408 6.81533 0
M  V30 12805 O 1161.54 1.12619 7.95972 0
M  V30 12806 H 1161.27 -0.237154 0.633035 0
M  V30 12807 H 1163.83 -0.0768976 2.05256 0
M  V30 12808 H 1162.06 -2.45387 2.98868 0
M  V30 12809 H 1163.75 -2.26988 3.36498 0
M  V30 12810 H 1164.51 -0.273621 4.84228 0
M  V30 12811 H 1160.39 -1.41267 4.38822 0
M  V30 12812 H 1163.94 0.942727 6.91201 0
M  V30 12813 H 1159.83 -0.202955 6.45181 0
M  V30 12814 H 1160.6 1.03308 8.11954 0
M  V30 12815 N 1163.26 -1.53291 -0.366026 0
M  V30 12816 C 1164.54 -1.60055 -1.12436 0
M  V30 12817 C 1164.92 -0.407811 -2.07123 0
M  V30 12818 O 1164.27 0.601977 -2.20428 0
M  V30 12819 C 1164.48 -2.95062 -1.86385 0
M  V30 12820 C 1165.83 -3.49623 -2.40934 0
M  V30 12821 O 1166.85 -2.97088 -1.96512 0
M  V30 12822 O 1165.71 -4.41461 -3.2214 0
M  V30 12823 H 1162.8 -0.646476 -0.51575 0
M  V30 12824 H 1165.35 -1.65632 -0.369326 0
M  V30 12825 H 1164.12 -3.73312 -1.17277 0
M  V30 12826 H 1163.75 -2.92973 -2.68798 0
M  V30 12827 N 1164.74 0.6258 -1.44643 0
M  V30 12828 C 1166.15 1.20751 -1.42394 0
M  V30 12829 C 1166.5 1.95685 -0.142047 0
M  V30 12830 O 1165.63 2.02715 0.757332 0
M  V30 12831 C 1166.22 2.1964 -2.57961 0
M  V30 12832 C 1164.78 2.73227 -2.5889 0
M  V30 12833 C 1163.93 1.48315 -2.34303 0
M  V30 12834 H 1166.88 0.416162 -1.53146 0
M  V30 12835 H 1166.9 3.02342 -2.31019 0
M  V30 12836 H 1166.41 1.65073 -3.51244 0
M  V30 12837 H 1164.52 3.31782 -1.69563 0
M  V30 12838 H 1164.63 3.18902 -3.57545 0
M  V30 12839 H 1162.99 1.76634 -1.83501 0
M  V30 12840 H 1163.78 0.956427 -3.29708 0
M  V30 12841 N 1166.22 1.31629 0.866686 0
M  V30 12842 C 1167.47 1.21263 1.61678 0
M  V30 12843 C 1167.79 -0.228562 1.93656 0
M  V30 12844 O 1167.06 -1.15014 1.58583 0
M  V30 12845 H 1165.64 0.445817 0.59938 0
M  V30 12846 H 1168.3 1.64998 1.03739 0
M  V30 12847 H 1167.4 1.78669 2.55898 0
M  V30 12848 N 1167.7 -1.08142 1.14644 0
M  V30 12849 C 1168.63 -2.17139 0.858667 0
M  V30 12850 C 1169.61 -1.69064 -0.187452 0
M  V30 12851 O 1170.8 -1.94151 -0.0435458 0
M  V30 12852 C 1167.93 -3.45648 0.33834 0
M  V30 12853 C 1166.88 -4.07129 1.32021 0
M  V30 12854 C 1166.21 -5.30623 0.659075 0
M  V30 12855 C 1167.51 -4.48095 2.68343 0
M  V30 12856 H 1169.2 -2.41468 1.77012 0
M  V30 12857 H 1166.75 -1.16052 0.852523 0
M  V30 12858 H 1168.7 -4.21216 0.124611 0
M  V30 12859 H 1167.42 -3.2088 -0.608553 0
M  V30 12860 H 1166.08 -3.33596 1.52016 0
M  V30 12861 H 1165.73 -5.02142 -0.293711 0
M  V30 12862 H 1165.43 -5.72714 1.31427 0
M  V30 12863 H 1166.95 -6.08903 0.454933 0
M  V30 12864 H 1168.37 -5.14828 2.5224 0
M  V30 12865 H 1166.76 -5.01113 3.30161 0
M  V30 12866 H 1167.83 -3.59852 3.25015 0
M  V30 12867 N 1169.18 -0.941978 -1.26351 0
M  V30 12868 C 1170.12 -0.450906 -2.26353 0
M  V30 12869 C 1171.09 0.489857 -1.58712 0
M  V30 12870 O 1172.28 0.40589 -1.86433 0
M  V30 12871 C 1169.42 0.277054 -3.43986 0
M  V30 12872 C 1168.53 -0.699474 -4.263 0
M  V30 12873 C 1167.67 0.0497661 -5.31177 0
M  V30 12874 C 1166.71 -0.918531 -6.05169 0
M  V30 12875 N 1165.84 -0.200993 -7.01812 0
M  V30 12876 H 1170.68 -1.30861 -2.6773 0
M  V30 12877 H 1168.22 -0.656514 -1.31637 0
M  V30 12878 H 1170.18 0.715567 -4.11018 0
M  V30 12879 H 1168.81 1.09889 -3.0352 0
M  V30 12880 H 1167.86 -1.2565 -3.59049 0
M  V30 12881 H 1169.17 -1.4389 -4.77595 0
M  V30 12882 H 1168.33 0.547521 -6.04224 0
M  V30 12883 H 1167.07 0.822068 -4.80722 0
M  V30 12884 H 1166.07 -1.4274 -5.30947 0
M  V30 12885 H 1167.3 -1.69085 -6.57713 0
M  V30 12886 H 1165.24 0.552803 -6.53667 0
M  V30 12887 H 1165.16 -0.879735 -7.50864 0
M  V30 12888 H 1166.43 0.275642 -7.79012 0
M  V30 12889 N 1170.66 1.40747 -0.709091 0
M  V30 12890 C 1171.62 2.29118 -0.0611607 0
M  V30 12891 C 1172.62 1.45049 0.694081 0
M  V30 12892 O 1173.81 1.66039 0.526952 0
M  V30 12893 C 1170.94 3.28154 0.923447 0
M  V30 12894 H 1172.13 2.87913 -0.839413 0
M  V30 12895 H 1169.69 1.4896 -0.473363 0
M  V30 12896 H 1170.42 2.74366 1.72899 0
M  V30 12897 H 1170.21 3.90207 0.384862 0
M  V30 12898 H 1171.7 3.94343 1.37417 0
M  V30 12899 N 1172.13 0.454803 1.50895 0
M  V30 12900 C 1173.38 -0.105562 2.01824 0
M  V30 12901 C 1173.7 -1.41673 1.33992 0
M  V30 12902 O 1172.97 -1.89929 0.479994 0
M  V30 12903 H 1171.55 -0.0420011 0.745818 0
M  V30 12904 H 1174.21 0.601504 1.85386 0
M  V30 12905 H 1173.31 -0.268872 3.1094 0
M  V30 12906 N 1173.61 -1.56489 0.186789 0
M  V30 12907 C 1174.57 -2.17478 -0.723596 0
M  V30 12908 C 1175.57 -1.12698 -1.14699 0
M  V30 12909 O 1176.76 -1.38128 -1.06143 0
M  V30 12910 C 1173.9 -2.77015 -1.98685 0
M  V30 12911 H 1175.09 -2.99282 -0.192403 0
M  V30 12912 H 1172.64 -1.56174 -0.0628153 0
M  V30 12913 H 1173.38 -1.98987 -2.56076 0
M  V30 12914 H 1173.16 -3.53711 -1.69207 0
M  V30 12915 H 1174.65 -3.23872 -2.63622 0
M  V30 12916 N 1175.09 0.086862 -1.5736 0
M  V30 12917 C 1176.02 1.10538 -2.05678 0
M  V30 12918 C 1177 1.41281 -0.947293 0
M  V30 12919 O 1178.19 1.51169 -1.21908 0
M  V30 12920 C 1175.32 2.42302 -2.48812 0
M  V30 12921 C 1174.27 2.25948 -3.63499 0
M  V30 12922 C 1173.6 3.62961 -3.92637 0
M  V30 12923 C 1174.9 1.69319 -4.94094 0
M  V30 12924 H 1176.59 0.703371 -2.91021 0
M  V30 12925 H 1174.14 0.336895 -1.40004 0
M  V30 12926 H 1176.09 3.13833 -2.81224 0
M  V30 12927 H 1174.81 2.84454 -1.60479 0
M  V30 12928 H 1173.47 1.5686 -3.31347 0
M  V30 12929 H 1173.12 4.02656 -3.01459 0
M  V30 12930 H 1172.82 3.52862 -4.69853 0
M  V30 12931 H 1174.34 4.35946 -4.27531 0
M  V30 12932 H 1175.76 2.30699 -5.24834 0
M  V30 12933 H 1174.15 1.69957 -5.7553 0
M  V30 12934 H 1175.22 0.653318 -4.80479 0
M  V30 12935 N 1176.57 1.53483 0.357892 0
M  V30 12936 C 1177.53 1.79782 1.42166 0
M  V30 12937 C 1178.53 0.668441 1.46248 0
M  V30 12938 O 1179.72 0.936677 1.46874 0
M  V30 12939 C 1176.85 1.92686 2.8122 0
M  V30 12940 H 1178.05 2.74794 1.20117 0
M  V30 12941 H 1175.6 1.44677 0.591468 0
M  V30 12942 H 1176.33 0.997669 3.08573 0
M  V30 12943 H 1176.12 2.74837 2.79655 0
M  V30 12944 H 1177.61 2.14599 3.58242 0
M  V30 12945 N 1178.05 -0.61812 1.44973 0
M  V30 12946 C 1179.29 -1.37343 1.47715 0
M  V30 12947 C 1179.61 -1.95239 0.118784 0
M  V30 12948 O 1180.81 -2.7149 0.0237981 0
M  V30 12949 C 1179.27 -2.48732 2.60116 0
M  V30 12950 C 1178.88 -1.97294 4.02218 0
M  V30 12951 C 1180.62 -3.25831 2.72093 0
M  V30 12952 C 1178.53 -3.06102 5.06019 0
M  V30 12953 H 1177.46 -0.516175 0.549617 0
M  V30 12954 H 1180.11 -0.663617 1.7108 0
M  V30 12955 H 1178.49 -3.2235 2.30014 0
M  V30 12956 H 1179.67 -1.30455 4.41948 0
M  V30 12957 H 1177.98 -1.32972 3.94598 0
M  V30 12958 H 1180.58 -4.06968 3.46815 0
M  V30 12959 H 1180.92 -3.76156 1.7836 0
M  V30 12960 H 1181.45 -2.59309 3.01668 0
M  V30 12961 H 1178.19 -2.60706 6.01426 0
M  V30 12962 H 1177.71 -3.71541 4.70869 0
M  V30 12963 H 1179.39 -3.70662 5.30301 0
M  V30 12964 N 1179.52 -1.32087 -0.859693 0
M  V30 12965 C 1180.43 -1.22587 -2.00024 0
M  V30 12966 C 1181.45 -0.140477 -1.73432 0
M  V30 12967 O 1182.63 -0.360213 -1.98153 0
M  V30 12968 C 1179.69 -0.944195 -3.33595 0
M  V30 12969 C 1178.75 -2.11752 -3.73443 0
M  V30 12970 C 1177.98 -1.84919 -5.0064 0
M  V30 12971 O 1178.21 -0.789299 -5.64913 0
M  V30 12972 O 1177.14 -2.70885 -5.37499 0
M  V30 12973 H 1180.97 -2.18457 -2.10974 0
M  V30 12974 H 1178.55 -1.11927 -0.989577 0
M  V30 12975 H 1180.43 -0.803389 -4.13671 0
M  V30 12976 H 1179.11 -0.0156083 -3.23696 0
M  V30 12977 H 1178.02 -2.31378 -2.93965 0
M  V30 12978 H 1179.35 -3.02872 -3.87981 0
M  V30 12979 N 1181 1.07532 -1.15215 0
M  V30 12980 C 1181.95 2.14687 -0.847243 0
M  V30 12981 C 1182.92 1.64903 0.199043 0
M  V30 12982 O 1184.1 1.90682 0.0669986 0
M  V30 12983 C 1181.24 3.43414 -0.340673 0
M  V30 12984 C 1180.36 4.06999 -1.44831 0
M  V30 12985 C 1179.49 5.23554 -0.898059 0
M  V30 12986 C 1178.53 5.79097 -1.98276 0
M  V30 12987 N 1177.67 6.86985 -1.44902 0
M  V30 12988 H 1182.51 2.4011 -1.76498 0
M  V30 12989 H 1180.04 1.17823 -0.880689 0
M  V30 12990 H 1182 4.1719 -0.0286956 0
M  V30 12991 H 1180.63 3.18249 0.540144 0
M  V30 12992 H 1179.68 3.30895 -1.87651 0
M  V30 12993 H 1181 4.44289 -2.26735 0
M  V30 12994 H 1180.15 6.04305 -0.538514 0
M  V30 12995 H 1178.89 4.87676 -0.0481752 0
M  V30 12996 H 1177.89 4.96992 -2.35115 0
M  V30 12997 H 1179.12 6.1703 -2.83639 0
M  V30 12998 H 1177.07 6.5305 -0.621468 0
M  V30 12999 H 1176.98 7.23149 -2.20434 0
M  V30 13000 H 1178.25 7.71446 -1.11767 0
M  V30 13001 N 1182.48 0.948665 1.2585 0
M  V30 13002 C 1183.72 0.60782 1.95154 0
M  V30 13003 C 1184.08 -0.838703 1.72713 0
M  V30 13004 O 1185.29 -1.28885 2.35886 0
M  V30 13005 C 1183.56 0.949628 3.44553 0
M  V30 13006 S 1185.12 0.720456 4.32845 0
M  V30 13007 H 1181.93 0.223613 0.674921 0
M  V30 13008 H 1184.54 1.22157 1.52636 0
M  V30 13009 H 1183.24 1.99966 3.58388 0
M  V30 13010 H 1182.77 0.325891 3.92048 0
M  V30 13011 H 1184.79 -0.411697 4.94489 0
M  V30 13012 N 1183.96 -1.40369 0.716545 0
M  V30 13013 C 1184.91 -2.3071 0.0645944 0
M  V30 13014 C 1185.88 -1.48239 -0.749294 0
M  V30 13015 O 1187.06 -1.76975 -0.713045 0
M  V30 13016 C 1184.2 -3.34456 -0.850478 0
M  V30 13017 C 1183.31 -4.31992 -0.0259594 0
M  V30 13018 C 1182.45 -5.22806 -0.940599 0
M  V30 13019 C 1181.49 -6.12001 -0.110228 0
M  V30 13020 N 1180.62 -6.9523 -0.979796 0
M  V30 13021 H 1185.46 -2.85896 0.840682 0
M  V30 13022 H 1183 -1.40789 0.426258 0
M  V30 13023 H 1184.96 -3.93177 -1.39528 0
M  V30 13024 H 1183.59 -2.8077 -1.59274 0
M  V30 13025 H 1182.64 -3.75045 0.636036 0
M  V30 13026 H 1183.95 -4.94971 0.616883 0
M  V30 13027 H 1183.11 -5.86463 -1.5539 0
M  V30 13028 H 1181.85 -4.60104 -1.61726 0
M  V30 13029 H 1180.85 -5.47373 0.516001 0
M  V30 13030 H 1182.08 -6.76763 0.562944 0
M  V30 13031 H 1180.02 -6.35115 -1.64209 0
M  V30 13032 H 1179.94 -7.54978 -0.393012 0
M  V30 13033 H 1181.21 -7.63335 -1.57924 0
M  V30 13034 N 1185.44 -0.462799 -1.50652 0
M  V30 13035 C 1186.68 0.0951853 -2.02576 0
M  V30 13036 C 1187.02 1.40113 -1.34469 0
M  V30 13037 O 1186.29 1.88793 -0.467702 0
M  V30 13038 C 1186.57 0.287603 -3.5895 0
M  V30 13039 C 1186.43 -1.03878 -4.37641 0
M  V30 13040 C 1187.75 1.04593 -4.27491 0
M  V30 13041 H 1184.86 0.0331191 -0.736255 0
M  V30 13042 H 1187.51 -0.606772 -1.80051 0
M  V30 13043 H 1185.66 0.885514 -3.78274 0
M  V30 13044 H 1187.33 -1.67263 -4.29908 0
M  V30 13045 H 1185.57 -1.6374 -4.01711 0
M  V30 13046 H 1186.24 -0.857889 -5.45293 0
M  V30 13047 H 1188.72 0.539213 -4.12591 0
M  V30 13048 H 1187.59 1.14935 -5.36732 0
M  V30 13049 H 1187.86 2.08045 -3.90089 0
M  V30 13050 N 1186.91 1.56388 -0.195085 0
M  V30 13051 C 1187.85 2.14992 0.765096 0
M  V30 13052 C 1188.83 1.08663 1.20959 0
M  V30 13053 O 1190.01 1.36775 1.29711 0
M  V30 13054 C 1187.14 2.7088 2.03327 0
M  V30 13055 C 1186.18 3.89797 1.7309 0
M  V30 13056 S 1187.02 5.28236 0.879025 0
M  V30 13057 C 1188.17 5.87545 2.15734 0
M  V30 13058 H 1188.4 2.961 0.266902 0
M  V30 13059 H 1185.94 1.54387 0.0199116 0
M  V30 13060 H 1187.9 3.03723 2.76157 0
M  V30 13061 H 1186.56 1.89814 2.50259 0
M  V30 13062 H 1185.75 4.27312 2.67246 0
M  V30 13063 H 1185.35 3.57964 1.08342 0
M  V30 13064 H 1187.64 6.01907 3.10989 0
M  V30 13065 H 1188.59 6.84137 1.82652 0
M  V30 13066 H 1188.99 5.16151 2.2858 0
M  V30 13067 N 1188.39 -0.0785156 1.57404 0
M  V30 13068 C 1189.36 -1.07835 2.02248 0
M  V30 13069 C 1190.36 -1.31987 0.918475 0
M  V30 13070 O 1191.55 -1.27821 1.18353 0
M  V30 13071 C 1188.68 -2.42361 2.39737 0
M  V30 13072 H 1189.87 -0.691995 2.91807 0
M  V30 13073 H 1187.42 -0.32405 1.52904 0
M  V30 13074 H 1188.16 -2.85841 1.53183 0
M  V30 13075 H 1187.94 -2.26174 3.20293 0
M  V30 13076 H 1189.43 -3.14241 2.75031 0
M  V30 13077 N 1189.87 -1.5367 -0.349747 0
M  V30 13078 C 1191.1 -1.74858 -1.11532 0
M  V30 13079 C 1191.52 -0.483591 -1.81777 0
M  V30 13080 O 1190.88 0.563399 -1.72324 0
M  V30 13081 C 1190.93 -2.92479 -2.10923 0
M  V30 13082 O 1190.03 -2.62194 -3.18321 0
M  V30 13083 H 1189.37 -0.580219 -0.322865 0
M  V30 13084 H 1191.9 -2.00611 -0.402033 0
M  V30 13085 H 1191.91 -3.19093 -2.54252 0
M  V30 13086 H 1190.59 -3.84228 -1.59191 0
M  V30 13087 H 1189.16 -2.46448 -2.79853 0
M  V30 13088 N 1191.35 0.610423 -1.45298 0
M  V30 13089 C 1192.3 1.7213 -1.53753 0
M  V30 13090 C 1193.27 1.61609 -0.383632 0
M  V30 13091 O 1194.45 1.8123 -0.596694 0
M  V30 13092 C 1191.59 3.10433 -1.50749 0
M  V30 13093 C 1190.7 3.3178 -2.76669 0
M  V30 13094 C 1189.84 4.60173 -2.65356 0
M  V30 13095 C 1188.88 4.74769 -3.86343 0
M  V30 13096 N 1188.01 5.94459 -3.73581 0
M  V30 13097 H 1192.85 1.64239 -2.48655 0
M  V30 13098 H 1190.39 0.800879 -1.23387 0
M  V30 13099 H 1192.35 3.90446 -1.46996 0
M  V30 13100 H 1190.98 3.17288 -0.593998 0
M  V30 13101 H 1190.03 2.45563 -2.90522 0
M  V30 13102 H 1191.34 3.38439 -3.66416 0
M  V30 13103 H 1190.5 5.48377 -2.59553 0
M  V30 13104 H 1189.24 4.55907 -1.73204 0
M  V30 13105 H 1188.24 3.8499 -3.92509 0
M  V30 13106 H 1189.47 4.80834 -4.79557 0
M  V30 13107 H 1187.41 5.91243 -2.84196 0
M  V30 13108 H 1187.33 6.02265 -4.5696 0
M  V30 13109 H 1188.6 6.85168 -3.71705 0
M  V30 13110 N 1192.83 1.32541 0.852676 0
M  V30 13111 C 1193.77 1.21643 1.96142 0
M  V30 13112 C 1194.74 0.0981496 1.6581 0
M  V30 13113 O 1195.93 0.27404 1.88822 0
M  V30 13114 C 1193.07 0.947483 3.31838 0
M  V30 13115 C 1192.18 2.15074 3.74656 0
M  V30 13116 C 1191.32 1.81711 4.99154 0
M  V30 13117 C 1190.36 2.98346 5.34468 0
M  V30 13118 N 1189.49 2.65062 6.50143 0
M  V30 13119 H 1194.33 2.16479 2.04795 0
M  V30 13120 H 1191.87 1.07664 1.00234 0
M  V30 13121 H 1193.83 0.772038 4.09994 0
M  V30 13122 H 1192.46 0.0359112 3.2278 0
M  V30 13123 H 1191.51 2.43639 2.92137 0
M  V30 13124 H 1192.82 3.02314 3.96747 0
M  V30 13125 H 1191.98 1.60729 5.85022 0
M  V30 13126 H 1190.71 0.916875 4.79004 0
M  V30 13127 H 1189.72 3.19956 4.47111 0
M  V30 13128 H 1190.94 3.89104 5.56574 0
M  V30 13129 H 1188.89 1.77582 6.31507 0
M  V30 13130 H 1188.81 3.45832 6.72262 0
M  V30 13131 H 1190.08 2.47516 7.39159 0
M  V30 13132 N 1194.3 -1.0692 1.15784 0
M  V30 13133 C 1195.25 -2.14235 0.858616 0
M  V30 13134 C 1196.22 -1.65006 -0.190295 0
M  V30 13135 O 1197.41 -1.90715 -0.0568853 0
M  V30 13136 C 1194.55 -3.43229 0.35888 0
M  V30 13137 C 1193.66 -4.06225 1.46987 0
M  V30 13138 C 1192.79 -5.2307 0.925812 0
M  V30 13139 C 1191.83 -5.78037 2.01345 0
M  V30 13140 N 1190.97 -6.86206 1.48544 0
M  V30 13141 H 1195.81 -2.3917 1.77769 0
M  V30 13142 H 1193.35 -1.17354 0.886925 0
M  V30 13143 H 1195.31 -4.17169 0.0508198 0
M  V30 13144 H 1193.94 -3.18531 -0.523259 0
M  V30 13145 H 1192.99 -3.29895 1.89403 0
M  V30 13146 H 1194.3 -4.43081 2.29088 0
M  V30 13147 H 1193.45 -6.04011 0.570555 0
M  V30 13148 H 1192.19 -4.87644 0.0740371 0
M  V30 13149 H 1191.2 -4.95738 2.37748 0
M  V30 13150 H 1192.42 -6.15517 2.86907 0
M  V30 13151 H 1190.37 -6.52711 0.656092 0
M  V30 13152 H 1190.29 -7.2197 2.24266 0
M  V30 13153 H 1191.55 -7.70842 1.15856 0
M  V30 13154 N 1195.78 -0.955326 -1.25345 0
M  V30 13155 C 1197.19 -0.651118 -1.74978 0
M  V30 13156 C 1197.54 0.833495 -1.77616 0
M  V30 13157 O 1196.67 1.65228 -1.39745 0
M  V30 13158 C 1197.26 -1.17521 -3.17764 0
M  V30 13159 C 1195.82 -0.921151 -3.64954 0
M  V30 13160 C 1194.97 -1.31784 -2.43984 0
M  V30 13161 H 1197.92 -1.13205 -1.11222 0
M  V30 13162 H 1197.94 -0.535625 -3.76711 0
M  V30 13163 H 1197.45 -2.25575 -3.15813 0
M  V30 13164 H 1195.56 0.144392 -3.7232 0
M  V30 13165 H 1195.67 -1.5581 -4.53056 0
M  V30 13166 H 1194.03 -0.736219 -2.43828 0
M  V30 13167 H 1194.82 -2.40761 -2.44723 0
M  V30 13168 N 1197.26 1.39987 -0.723979 0
M  V30 13169 C 1198.19 2.3332 -0.0917282 0
M  V30 13170 C 1199.17 1.53335 0.736361 0
M  V30 13171 O 1200.36 1.81771 0.683582 0
M  V30 13172 C 1197.49 3.3737 0.824549 0
M  V30 13173 C 1196.44 4.2788 0.101452 0
M  V30 13174 C 1195.77 5.22536 1.13401 0
M  V30 13175 C 1197.07 5.11649 -1.04939 0
M  V30 13176 H 1198.76 2.86441 -0.871318 0
M  V30 13177 H 1196.31 1.37725 -0.420448 0
M  V30 13178 H 1198.26 4.01607 1.27631 0
M  V30 13179 H 1196.98 2.82663 1.63613 0
M  V30 13180 H 1195.64 3.65107 -0.330569 0
M  V30 13181 H 1195.29 4.64131 1.93886 0
M  V30 13182 H 1194.99 5.83938 0.65502 0
M  V30 13183 H 1196.52 5.89651 1.58569 0
M  V30 13184 H 1197.93 5.69293 -0.6766 0
M  V30 13185 H 1196.33 5.82137 -1.45729 0
M  V30 13186 H 1197.4 4.47132 -1.8762 0
M  V30 13187 N 1198.74 0.470782 1.50404 0
M  V30 13188 C 1199.99 -0.0765611 2.03256 0
M  V30 13189 C 1200.34 -1.37435 1.34646 0
M  V30 13190 O 1199.63 -1.85918 0.463152 0
M  V30 13191 C 1199.83 -0.316419 3.55997 0
M  V30 13192 C 1199.66 0.956569 4.39409 0
M  V30 13193 C 1198.43 1.49978 4.82529 0
M  V30 13194 C 1200.62 1.85188 4.79802 0
M  V30 13195 N 1198.61 2.72182 5.50264 0
M  V30 13196 C 1199.98 2.9198 5.46944 0
M  V30 13197 C 1202.03 1.86229 4.61761 0
M  V30 13198 C 1200.74 3.99802 5.97955 0
M  V30 13199 C 1202.76 2.93008 5.13712 0
M  V30 13200 C 1202.12 3.98519 5.80829 0
M  V30 13201 H 1198.22 0.0120036 0.781908 0
M  V30 13202 H 1200.81 0.638919 1.83918 0
M  V30 13203 H 1198.98 -1.00094 3.75281 0
M  V30 13204 H 1200.71 -0.858077 3.95499 0
M  V30 13205 H 1197.46 1.04901 4.61836 0
M  V30 13206 H 1197.89 3.34241 5.88737 0
M  V30 13207 H 1202.53 1.05974 4.09303 0
M  V30 13208 H 1200.25 4.80875 6.4945 0
M  V30 13209 H 1203.83 2.94797 5.01584 0
M  V30 13210 H 1202.71 4.79784 6.20304 0
M  V30 13211 N 1200.22 -1.56282 0.203376 0
M  V30 13212 C 1201.15 -2.2247 -0.709183 0
M  V30 13213 C 1202.13 -1.19046 -1.21499 0
M  V30 13214 O 1203.31 -1.47578 -1.26231 0
M  V30 13215 C 1200.44 -2.8905 -1.92529 0
M  V30 13216 C 1199.4 -3.98789 -1.55407 0
M  V30 13217 C 1198.72 -4.52574 -2.84747 0
M  V30 13218 C 1200.02 -5.16774 -0.75775 0
M  V30 13219 H 1201.72 -2.98986 -0.157392 0
M  V30 13220 H 1199.26 -1.43808 -0.0742613 0
M  V30 13221 H 1201.22 -3.34038 -2.56898 0
M  V30 13222 H 1199.94 -2.09952 -2.50175 0
M  V30 13223 H 1198.6 -3.54504 -0.933928 0
M  V30 13224 H 1198.25 -3.70229 -3.40499 0
M  V30 13225 H 1197.95 -5.26627 -2.6065 0
M  V30 13226 H 1199.47 -5.00269 -3.5009 0
M  V30 13227 H 1200.89 -5.58256 -1.30472 0
M  V30 13228 H 1199.28 -5.96945 -0.614583 0
M  V30 13229 H 1200.35 -4.84308 0.239476 0
M  V30 13230 N 1201.7 0.070167 -1.57444 0
M  V30 13231 C 1202.61 1.10106 -2.07157 0
M  V30 13232 C 1203.62 1.42293 -1.00143 0
M  V30 13233 O 1204.8 1.52437 -1.31624 0
M  V30 13234 C 1201.86 2.39486 -2.50694 0
M  V30 13235 C 1200.92 2.14255 -3.72012 0
M  V30 13236 C 1200.16 3.37466 -4.13464 0
M  V30 13237 O 1200.38 4.46645 -3.54773 0
M  V30 13238 O 1199.31 3.25583 -5.0624 0
M  V30 13239 H 1203.14 0.70873 -2.95315 0
M  V30 13240 H 1200.72 0.28441 -1.46668 0
M  V30 13241 H 1202.61 3.15625 -2.79212 0
M  V30 13242 H 1201.28 2.78095 -1.65664 0
M  V30 13243 H 1200.19 1.35816 -3.48575 0
M  V30 13244 H 1201.52 1.80525 -4.57899 0
M  V30 13245 N 1203.17 1.53854 0.341593 0
M  V30 13246 C 1204.42 1.71194 1.08162 0
M  V30 13247 C 1204.75 0.47614 1.88582 0
M  V30 13248 O 1204 -0.542115 1.88041 0
M  V30 13249 C 1204.3 2.92844 2.04884 0
M  V30 13250 C 1203.97 4.28366 1.40759 0
M  V30 13251 C 1202.63 4.65214 1.23 0
M  V30 13252 C 1204.98 5.12546 0.945819 0
M  V30 13253 C 1202.31 5.83857 0.576852 0
M  V30 13254 C 1204.66 6.31857 0.306568 0
M  V30 13255 C 1203.33 6.67398 0.116677 0
M  V30 13256 H 1202.6 0.626442 0.395792 0
M  V30 13257 H 1205.24 1.88073 0.360688 0
M  V30 13258 H 1203.55 2.70576 2.83365 0
M  V30 13259 H 1205.25 3.03454 2.62139 0
M  V30 13260 H 1201.84 3.99366 1.5558 0
M  V30 13261 H 1206.02 4.84609 1.07087 0
M  V30 13262 H 1201.28 6.09967 0.418363 0
M  V30 13263 H 1205.45 6.96375 -0.0593285 0
M  V30 13264 H 1203.08 7.59191 -0.391477 0
M  V30 13265 N 1204.65 -0.602709 1.4562 0
M  V30 13266 C 1205.6 -1.71312 1.54664 0
M  V30 13267 C 1206.57 -1.61403 0.392197 0
M  V30 13268 O 1207.75 -1.80911 0.606297 0
M  V30 13269 C 1204.89 -3.09629 1.52393 0
M  V30 13270 C 1204.01 -3.30308 2.78425 0
M  V30 13271 C 1203.14 -4.5876 2.67793 0
M  V30 13272 C 1202.18 -4.72713 3.88855 0
M  V30 13273 N 1201.32 -5.92469 3.76729 0
M  V30 13274 H 1206.16 -1.62918 2.49523 0
M  V30 13275 H 1203.69 -0.794324 1.2381 0
M  V30 13276 H 1205.65 -3.89661 1.49064 0
M  V30 13277 H 1204.28 -3.16968 0.610816 0
M  V30 13278 H 1203.33 -2.44018 2.9182 0
M  V30 13279 H 1204.65 -3.36491 3.68205 0
M  V30 13280 H 1203.8 -5.46993 2.62457 0
M  V30 13281 H 1202.54 -4.54983 1.75619 0
M  V30 13282 H 1201.54 -3.82903 3.94545 0
M  V30 13283 H 1202.77 -4.78284 4.82101 0
M  V30 13284 H 1200.72 -5.89728 2.87328 0
M  V30 13285 H 1200.63 -5.99833 4.60148 0
M  V30 13286 H 1201.9 -6.83187 3.75334 0
M  V30 13287 N 1206.13 -1.32992 -0.845635 0
M  V30 13288 C 1207.37 -1.2539 -1.61421 0
M  V30 13289 C 1207.73 0.179395 -1.9116 0
M  V30 13290 O 1208.93 0.379275 -2.66111 0
M  V30 13291 C 1207.21 -2.09817 -2.8933 0
M  V30 13292 S 1208.76 -2.19335 -3.80049 0
M  V30 13293 H 1205.58 -0.446202 -0.553556 0
M  V30 13294 H 1208.18 -1.67946 -1.00072 0
M  V30 13295 H 1206.89 -3.12999 -2.65443 0
M  V30 13296 H 1206.42 -1.68073 -3.5569 0
M  V30 13297 H 1208.43 -1.34946 -4.77498 0
M  V30 13298 N 1207.61 1.06304 -1.1635 0
M  V30 13299 C 1208.57 2.11947 -0.872419 0
M  V30 13300 C 1209.57 1.60253 0.132534 0
M  V30 13301 O 1210.76 1.73922 -0.0983441 0
M  V30 13302 C 1207.89 3.39536 -0.304646 0
M  V30 13303 H 1209.09 2.39201 -1.80894 0
M  V30 13304 H 1206.64 1.22367 -0.972419 0
M  V30 13305 H 1207.37 3.17931 0.639565 0
M  V30 13306 H 1207.16 3.78363 -1.02878 0
M  V30 13307 H 1208.65 4.17431 -0.118936 0
M  V30 13308 N 1209.09 0.96196 1.24836 0
M  V30 13309 C 1210.36 0.537809 1.88061 0
M  V30 13310 C 1210.74 -0.985023 1.8671 0
M  V30 13311 O 1210.09 -1.85394 1.33572 0
M  V30 13312 C 1210.3 1.12279 3.30446 0
M  V30 13313 C 1211.65 1.20414 4.07168 0
M  V30 13314 O 1212.67 1.07488 3.39595 0
M  V30 13315 O 1211.53 1.4078 5.28056 0
M  V30 13316 H 1208.63 0.178491 0.807509 0
M  V30 13317 H 1211.17 1.05586 1.32852 0
M  V30 13318 H 1209.94 2.16578 3.25898 0
M  V30 13319 H 1209.57 0.58843 3.93222 0
M  V30 13320 N 1210.56 -1.39601 0.731392 0
M  V30 13321 C 1211.97 -1.83424 0.348194 0
M  V30 13322 C 1212.33 -1.61106 -1.11979 0
M  V30 13323 O 1211.45 -1.1003 -1.86339 0
M  V30 13324 C 1212.05 -3.32982 0.6252 0
M  V30 13325 C 1210.6 -3.75238 0.295536 0
M  V30 13326 C 1209.75 -2.62642 0.88964 0
M  V30 13327 H 1212.7 -1.28644 0.929318 0
M  V30 13328 H 1212.72 -3.80357 -0.104254 0
M  V30 13329 H 1212.24 -3.49193 1.69368 0
M  V30 13330 H 1210.34 -3.64615 -0.767254 0
M  V30 13331 H 1210.45 -4.72781 0.775576 0
M  V30 13332 H 1208.81 -2.52726 0.316529 0
M  V30 13333 H 1209.6 -2.81661 1.96271 0
M  V30 13334 N 1212.04 -0.478751 -1.50152 0
M  V30 13335 C 1213.27 0.0710485 -2.06778 0
M  V30 13336 C 1213.69 1.32826 -1.34174 0
M  V30 13337 O 1213.04 1.77758 -0.413304 0
M  V30 13338 C 1213.09 0.351351 -3.59789 0
M  V30 13339 O 1212.81 -0.855998 -4.29656 0
M  V30 13340 C 1214.32 0.947269 -4.33061 0
M  V30 13341 H 1211.54 -0.0105032 -0.670918 0
M  V30 13342 H 1214.08 -0.669732 -1.93222 0
M  V30 13343 H 1212.23 1.04207 -3.73121 0
M  V30 13344 H 1212.65 -0.605252 -5.20996 0
M  V30 13345 H 1214.12 1.09312 -5.41068 0
M  V30 13346 H 1214.6 1.93937 -3.94062 0
M  V30 13347 H 1215.21 0.294693 -4.24278 0
M  V30 13348 N 1213.52 1.56172 -0.211661 0
M  V30 13349 C 1214.48 2.18602 0.688906 0
M  V30 13350 C 1215.48 1.14508 1.12892 0
M  V30 13351 O 1216.67 1.39799 1.03932 0
M  V30 13352 C 1213.81 2.80141 1.94253 0
M  V30 13353 H 1215 2.9955 0.144765 0
M  V30 13354 H 1212.55 1.56254 0.0379615 0
M  V30 13355 H 1213.29 2.03035 2.52878 0
M  V30 13356 H 1213.07 3.56358 1.63558 0
M  V30 13357 H 1214.56 3.28026 2.58436 0
M  V30 13358 N 1215 -0.0618163 1.57479 0
M  V30 13359 C 1215.93 -1.07252 2.07411 0
M  V30 13360 C 1216.91 -1.39756 0.969649 0
M  V30 13361 O 1218.09 -1.4921 1.24298 0
M  V30 13362 C 1215.22 -2.38313 2.52635 0
M  V30 13363 C 1214.18 -2.20136 3.67048 0
M  V30 13364 C 1213.5 -3.56668 3.98361 0
M  V30 13365 C 1214.8 -1.61437 4.96725 0
M  V30 13366 H 1216.5 -0.656983 2.92103 0
M  V30 13367 H 1214.04 -0.314579 1.40522 0
M  V30 13368 H 1216 -3.09319 2.86181 0
M  V30 13369 H 1214.72 -2.81865 1.64984 0
M  V30 13370 H 1213.38 -1.51569 3.338 0
M  V30 13371 H 1213.03 -3.97809 3.07826 0
M  V30 13372 H 1212.73 -3.45342 4.75408 0
M  V30 13373 H 1214.25 -4.2909 4.34413 0
M  V30 13374 H 1215.67 -2.2232 5.28438 0
M  V30 13375 H 1214.06 -1.60779 5.78161 0
M  V30 13376 H 1215.13 -0.576795 4.81457 0
M  V30 13377 N 1216.48 -1.54033 -0.333429 0
M  V30 13378 C 1217.7 -1.76031 -1.09672 0
M  V30 13379 C 1218.13 -0.502844 -1.81254 0
M  V30 13380 O 1217.48 0.54509 -1.72912 0
M  V30 13381 C 1217.53 -2.947 -2.07809 0
M  V30 13382 O 1216.64 -2.65555 -3.15522 0
M  V30 13383 H 1215.98 -0.583611 -0.316692 0
M  V30 13384 H 1218.51 -2.01026 -0.380732 0
M  V30 13385 H 1218.52 -3.21771 -2.50853 0
M  V30 13386 H 1217.19 -3.85895 -1.55106 0
M  V30 13387 H 1215.77 -2.49403 -2.77223 0
M  V30 13388 N 1217.95 0.594978 -1.45938 0
M  V30 13389 C 1218.9 1.726 -1.55923 0
M  V30 13390 C 1219.9 1.63893 -0.428411 0
M  V30 13391 O 1221.1 1.69535 -0.604815 0
M  V30 13392 H 1217.48 0.570447 -0.489994 0
M  V30 13393 H 1219.45 1.61308 -2.51043 0
M  V30 13394 C 1218.2 3.10988 -1.55505 0
M  V30 13395 H 1217.52 3.18353 -2.4185 0
M  V30 13396 H 1218.96 3.8992 -1.66548 0
M  V30 13397 C 1217.42 3.35721 -0.281573 0
M  V30 13398 O 1217.95 3.96676 0.633336 0
M  V30 13399 N 1216.16 2.90083 -0.173314 0
M  V30 13400 H 1215.7 2.4066 -0.91872 0
M  V30 13401 H 1215.66 3.07005 0.677903 0
M  V30 13402 N 1219.43 1.33438 0.838571 0
M  V30 13403 C 1220.34 1.25753 1.98049 0
M  V30 13404 C 1221.36 0.168051 1.73187 0
M  V30 13405 O 1222.53 0.391691 1.97554 0
M  V30 13406 C 1219.6 0.997148 3.32051 0
M  V30 13407 C 1218.66 2.17667 3.70027 0
M  V30 13408 C 1217.89 1.92861 4.97635 0
M  V30 13409 O 1218.12 0.879072 5.63585 0
M  V30 13410 O 1217.05 2.79402 5.33121 0
M  V30 13411 H 1220.88 2.21786 2.07472 0
M  V30 13412 H 1218.46 1.13488 0.971645 0
M  V30 13413 H 1220.34 0.869099 4.1234 0
M  V30 13414 H 1219.02 0.0671036 3.2363 0
M  V30 13415 H 1217.93 2.36025 2.90246 0
M  V30 13416 H 1219.26 3.09006 3.83114 0
M  V30 13417 N 1220.91 -1.05686 1.16912 0
M  V30 13418 C 1222.14 -1.82282 0.978811 0
M  V30 13419 C 1222.55 -1.8278 -0.472972 0
M  V30 13420 O 1221.91 -1.25143 -1.32836 0
M  V30 13421 C 1221.96 -3.28623 1.50629 0
M  V30 13422 O 1221.68 -3.28269 2.90122 0
M  V30 13423 C 1223.18 -4.21927 1.35987 0
M  V30 13424 H 1220.4 -0.574558 0.346588 0
M  V30 13425 H 1222.95 -1.33301 1.55084 0
M  V30 13426 H 1221.1 -3.74893 0.976404 0
M  V30 13427 H 1221.52 -4.19824 3.14401 0
M  V30 13428 H 1222.99 -5.2261 1.77716 0
M  V30 13429 H 1223.47 -4.38131 0.30626 0
M  V30 13430 H 1224.07 -3.81508 1.87968 0
M  V30 13431 N 1222.39 -0.968567 -1.24324 0
M  V30 13432 C 1223.64 -0.626519 -1.91723 0
M  V30 13433 C 1223.95 0.84225 -1.76538 0
M  V30 13434 O 1225.16 1.29486 -2.38633 0
M  V30 13435 C 1223.61 -1.06992 -3.43629 0
M  V30 13436 C 1223.22 -2.5622 -3.67499 0
M  V30 13437 C 1224.96 -0.801057 -4.16873 0
M  V30 13438 C 1222.87 -2.94288 -5.1298 0
M  V30 13439 H 1221.8 -0.23062 -0.717865 0
M  V30 13440 H 1224.45 -1.17489 -1.40956 0
M  V30 13441 H 1222.83 -0.44985 -3.93437 0
M  V30 13442 H 1224.01 -3.23364 -3.28287 0
M  V30 13443 H 1222.32 -2.80726 -3.07542 0
M  V30 13444 H 1224.92 -1.06147 -5.24058 0
M  V30 13445 H 1225.26 0.262742 -4.1547 0
M  V30 13446 H 1225.8 -1.38213 -3.73017 0
M  V30 13447 H 1222.54 -3.99743 -5.19506 0
M  V30 13448 H 1222.06 -2.31829 -5.53187 0
M  V30 13449 H 1223.73 -2.84242 -5.81219 0
M  V30 13450 N 1223.87 1.39211 -0.738786 0
M  V30 13451 C 1225.11 2.0004 -0.28782 0
M  V30 13452 C 1225.44 1.58921 1.13 0
M  V30 13453 O 1224.71 0.839193 1.77015 0
M  V30 13454 H 1223.29 0.739805 -0.103425 0
M  V30 13455 H 1225.95 1.70202 -0.949587 0
M  V30 13456 H 1225.04 3.10251 -0.339208 0
M  V30 13457 N 1225.34 0.486708 1.49896 0
M  V30 13458 C 1226.59 -0.0646197 2.01596 0
M  V30 13459 C 1226.91 -1.39363 1.37249 0
M  V30 13460 O 1228.11 -2.03082 1.80194 0
M  V30 13461 C 1226.57 -0.16565 3.59519 0
M  V30 13462 C 1226.18 1.15586 4.32832 0
M  V30 13463 C 1227.92 -0.668103 4.1921 0
M  V30 13464 C 1225.83 1.01778 5.82576 0
M  V30 13465 H 1224.76 -0.0279241 0.753483 0
M  V30 13466 H 1227.41 0.623969 1.72566 0
M  V30 13467 H 1225.79 -0.918372 3.85204 0
M  V30 13468 H 1226.96 1.92076 4.1886 0
M  V30 13469 H 1225.28 1.59064 3.84822 0
M  V30 13470 H 1227.88 -0.788698 5.28851 0
M  V30 13471 H 1228.22 -1.66339 3.81624 0
M  V30 13472 H 1228.75 0.0276746 3.9779 0
M  V30 13473 H 1225.49 1.9869 6.24662 0
M  V30 13474 H 1225.01 0.293527 5.99081 0
M  V30 13475 H 1226.69 0.690693 6.43303 0
M  V30 13476 N 1226.82 -1.56058 0.219941 0
M  V30 13477 C 1228.07 -1.97436 -0.412543 0
M  V30 13478 C 1228.39 -1.11058 -1.61014 0
M  V30 13479 O 1229.59 -1.42328 -2.31203 0
M  V30 13480 C 1228.05 -3.51227 -0.785362 0
M  V30 13481 C 1227.66 -4.46305 0.389328 0
M  V30 13482 C 1229.4 -4.01321 -1.38354 0
M  V30 13483 C 1227.31 -5.914 -0.00583531 0
M  V30 13484 H 1226.24 -0.73728 -0.157906 0
M  V30 13485 H 1228.89 -1.8076 0.315898 0
M  V30 13486 H 1227.27 -3.63497 -1.57118 0
M  V30 13487 H 1228.44 -4.45781 1.16686 0
M  V30 13488 H 1226.76 -4.06543 0.900633 0
M  V30 13489 H 1229.36 -5.07221 -1.69207 0
M  V30 13490 H 1229.7 -3.47077 -2.29876 0
M  V30 13491 H 1230.23 -3.92267 -0.66119 0
M  V30 13492 H 1226.97 -6.49623 0.87583 0
M  V30 13493 H 1226.49 -5.95121 -0.74772 0
M  V30 13494 H 1228.17 -6.45549 -0.43308 0
M  V30 13495 N 1228.3 0.053464 -1.57509 0
M  V30 13496 C 1229.55 0.749102 -1.88135 0
M  V30 13497 C 1229.88 1.76642 -0.814111 0
M  V30 13498 O 1229.13 1.94796 0.187845 0
M  V30 13499 C 1229.43 1.47666 -3.25468 0
M  V30 13500 C 1229.1 0.597619 -4.46922 0
M  V30 13501 C 1227.76 0.355429 -4.79886 0
M  V30 13502 C 1230.11 -0.0107869 -5.21199 0
M  V30 13503 C 1227.44 -0.504347 -5.84528 0
M  V30 13504 C 1229.79 -0.858123 -6.26753 0
M  V30 13505 C 1228.45 -1.11001 -6.58206 0
M  V30 13506 H 1227.72 0.274116 -0.688434 0
M  V30 13507 H 1230.37 0.00944162 -1.91498 0
M  V30 13508 H 1228.68 2.28901 -3.1798 0
M  V30 13509 H 1230.37 2.02002 -3.46404 0
M  V30 13510 H 1226.96 0.796526 -4.21134 0
M  V30 13511 H 1231.15 0.163404 -4.96031 0
M  V30 13512 H 1226.4 -0.708057 -6.07286 0
M  V30 13513 H 1230.58 -1.3362 -6.83461 0
M  V30 13514 H 1228.2 -1.77798 -7.39116 0
M  V30 13515 N 1229.78 1.54207 0.325255 0
M  V30 13516 C 1230.73 1.83474 1.40021 0
M  V30 13517 C 1231.7 0.681719 1.51466 0
M  V30 13518 O 1232.88 0.92798 1.66713 0
M  V30 13519 C 1230.02 2.06624 2.76407 0
M  V30 13520 C 1229.13 3.3431 2.73607 0
M  V30 13521 C 1228.27 3.4743 4.01828 0
M  V30 13522 C 1227.31 4.68997 3.93329 0
M  V30 13523 N 1226.45 4.79052 5.13277 0
M  V30 13524 H 1231.29 2.75182 1.14363 0
M  V30 13525 H 1228.82 1.36284 0.553639 0
M  V30 13526 H 1230.78 2.18037 3.5569 0
M  V30 13527 H 1229.41 1.18209 3.00377 0
M  V30 13528 H 1228.46 3.31643 1.86324 0
M  V30 13529 H 1229.77 4.237 2.6321 0
M  V30 13530 H 1228.93 3.58376 4.89542 0
M  V30 13531 H 1227.67 2.56128 4.1503 0
M  V30 13532 H 1226.67 4.58109 3.04 0
M  V30 13533 H 1227.9 5.61681 3.81695 0
M  V30 13534 H 1225.84 3.90666 5.26988 0
M  V30 13535 H 1225.76 5.62406 5.05208 0
M  V30 13536 H 1227.03 4.94328 6.02711 0
M  V30 13537 N 1231.26 -0.58723 1.46251 0
M  V30 13538 C 1232.21 -1.69141 1.5289 0
M  V30 13539 C 1233.19 -1.56096 0.39024 0
M  V30 13540 O 1234.38 -1.65087 0.638373 0
M  V30 13541 C 1231.51 -3.07922 1.51785 0
M  V30 13542 C 1230.6 -3.2628 2.70928 0
M  V30 13543 N 1230.99 -3.14815 3.95885 0
M  V30 13544 C 1229.29 -3.57207 2.67056 0
M  V30 13545 C 1229.99 -3.35055 4.75514 0
M  V30 13546 N 1228.96 -3.59999 4.0731 0
M  V30 13547 H 1232.77 -1.588 2.47305 0
M  V30 13548 H 1230.28 -0.791124 1.41827 0
M  V30 13549 H 1232.28 -3.87164 1.54628 0
M  V30 13550 H 1230.94 -3.19397 0.584435 0
M  V30 13551 H 1231.95 -2.92778 4.27202 0
M  V30 13552 H 1228.63 -3.75394 1.82717 0
M  V30 13553 H 1230.02 -3.31412 5.84479 0
M  V30 13554 N 1232.74 -1.33881 -0.831482 0
M  V30 13555 C 1233.98 -1.25507 -1.58406 0
M  V30 13556 C 1234.3 0.177137 -1.94194 0
M  V30 13557 O 1233.57 1.10769 -1.61576 0
M  V30 13558 H 1232.15 -0.461551 -0.587349 0
M  V30 13559 H 1234.82 -1.6769 -0.99328 0
M  V30 13560 H 1233.91 -1.85391 -2.51071 0
M  V30 13561 N 1234.21 1.05064 -1.1747 0
M  V30 13562 C 1235.49 1.74999 -0.873776 0
M  V30 13563 C 1235.87 2.01615 0.625676 0
M  V30 13564 O 1235.22 1.65324 1.57734 0
M  V30 13565 C 1235.43 3.04231 -1.7101 0
M  V30 13566 C 1236.78 3.78157 -1.93087 0
M  V30 13567 O 1237.8 3.14104 -1.6798 0
M  V30 13568 O 1236.66 4.93255 -2.3529 0
M  V30 13569 H 1233.75 0.761042 -0.323641 0
M  V30 13570 H 1236.3 1.1122 -1.28172 0
M  V30 13571 H 1235.07 2.80621 -2.72704 0
M  V30 13572 H 1234.69 3.75746 -1.30002 0
M  V30 13573 N 1235.69 0.975146 1.23809 0
M  V30 13574 C 1236.97 0.557725 1.8748 0
M  V30 13575 C 1237.35 -0.965164 1.87744 0
M  V30 13576 O 1236.7 -1.83966 1.35531 0
M  V30 13577 C 1236.91 1.15777 3.29236 0
M  V30 13578 C 1238.25 1.24726 4.05868 0
M  V30 13579 O 1239.28 1.11084 3.38436 0
M  V30 13580 O 1238.14 1.46373 5.26533 0
M  V30 13581 H 1235.23 0.187045 0.80557 0
M  V30 13582 H 1237.78 1.06989 1.31725 0
M  V30 13583 H 1236.55 2.20023 3.23583 0
M  V30 13584 H 1236.17 0.630103 3.92575 0
M  V30 13585 N 1237.17 -1.38817 0.746158 0
M  V30 13586 C 1238.1 -2.33144 0.128836 0
M  V30 13587 C 1239.08 -1.54487 -0.711873 0
M  V30 13588 O 1240.27 -1.82836 -0.654577 0
M  V30 13589 C 1237.4 -3.38639 -0.770772 0
M  V30 13590 C 1236.35 -4.27987 -0.0333669 0
M  V30 13591 C 1235.68 -5.24274 -1.05073 0
M  V30 13592 C 1236.98 -5.09915 1.13066 0
M  V30 13593 H 1238.67 -2.85019 0.916778 0
M  V30 13594 H 1236.22 -1.37039 0.442306 0
M  V30 13595 H 1238.17 -4.03587 -1.21225 0
M  V30 13596 H 1236.89 -2.8523 -1.59095 0
M  V30 13597 H 1235.55 -3.64534 0.388612 0
M  V30 13598 H 1235.2 -4.67156 -1.86478 0
M  V30 13599 H 1234.9 -5.84906 -0.562037 0
M  V30 13600 H 1236.42 -5.92099 -1.49169 0
M  V30 13601 H 1237.84 -5.68145 0.767084 0
M  V30 13602 H 1236.23 -5.79744 1.54972 0
M  V30 13603 H 1237.3 -4.4409 1.94709 0
M  V30 13604 N 1238.65 -0.49465 -1.49636 0
M  V30 13605 C 1240.06 -0.150217 -1.58892 0
M  V30 13606 C 1240.26 1.34485 -1.50053 0
M  V30 13607 O 1239.32 2.12026 -1.37118 0
M  V30 13608 C 1240.63 -0.721372 -2.91919 0
M  V30 13609 C 1242.18 -0.686908 -3.0537 0
M  V30 13610 C 1242.66 -1.23601 -4.41006 0
M  V30 13611 N 1244.15 -1.19644 -4.47481 0
M  V30 13612 C 1244.88 -1.59157 -5.50869 0
M  V30 13613 N 1244.38 -2.06232 -6.61393 0
M  V30 13614 N 1246.17 -1.50612 -5.41546 0
M  V30 13615 H 1238.32 -1.46675 -1.53624 0
M  V30 13616 H 1240.58 -0.608003 -0.727349 0
M  V30 13617 H 1240.29 -1.76964 -3.03935 0
M  V30 13618 H 1240.16 -0.178199 -3.76779 0
M  V30 13619 H 1242.55 0.352508 -2.92987 0
M  V30 13620 H 1242.63 -1.26716 -2.22209 0
M  V30 13621 H 1242.28 -2.27418 -4.5414 0
M  V30 13622 H 1242.21 -0.631765 -5.22797 0
M  V30 13623 H 1244.7 -0.851443 -3.68183 0
M  V30 13624 H 1245.01 -2.34469 -7.36372 0
M  V30 13625 H 1243.36 -2.10202 -6.6245 0
M  V30 13626 H 1246.55 -1.13659 -4.54092 0
M  V30 13627 H 1246.72 -1.8173 -6.21995 0
M  V30 13628 N 1240.13 1.55939 -0.228214 0
M  V30 13629 C 1241.06 2.17874 0.711589 0
M  V30 13630 C 1242.07 1.14969 1.15265 0
M  V30 13631 O 1243.26 1.41919 1.08265 0
M  V30 13632 C 1240.36 2.75294 1.97652 0
M  V30 13633 C 1239.53 4.03435 1.68994 0
M  V30 13634 C 1238.59 4.45354 2.8026 0
M  V30 13635 O 1237.62 5.12117 2.48445 0
M  V30 13636 N 1238.82 4.11588 4.0936 0
M  V30 13637 H 1241.58 2.99148 0.181757 0
M  V30 13638 H 1239.15 1.6183 -0.0474567 0
M  V30 13639 H 1241.14 3.00305 2.71292 0
M  V30 13640 H 1239.71 1.98285 2.41665 0
M  V30 13641 H 1238.93 3.8621 0.789657 0
M  V30 13642 H 1240.22 4.87015 1.47287 0
M  V30 13643 H 1239.61 3.57953 4.38048 0
M  V30 13644 H 1238.17 4.41477 4.79522 0
M  V30 13645 N 1241.6 -0.0451101 1.57535 0
M  V30 13646 C 1242.88 -0.773625 1.79651 0
M  V30 13647 C 1243.26 -1.94422 0.822391 0
M  V30 13648 O 1242.61 -2.28077 -0.138913 0
M  V30 13649 C 1242.82 -1.22168 3.26919 0
M  V30 13650 C 1244.17 -1.64419 3.91474 0
M  V30 13651 O 1245.19 -1.31668 3.30971 0
M  V30 13652 O 1244.05 -2.25148 4.97967 0
M  V30 13653 H 1241.14 -0.372786 0.738214 0
M  V30 13654 H 1243.69 -0.0231245 1.69684 0
M  V30 13655 H 1242.46 -0.385302 3.89398 0
M  V30 13656 H 1242.09 -2.03269 3.41713 0
M  V30 13657 N 1243.08 -1.54377 -0.317073 0
M  V30 13658 C 1244.02 -1.7907 -1.41453 0
M  V30 13659 C 1244.99 -0.641012 -1.49432 0
M  V30 13660 O 1246.18 -0.879179 -1.66741 0
M  V30 13661 C 1243.3 -1.91307 -2.79498 0
M  V30 13662 C 1242.35 -3.13639 -2.8902 0
M  V30 13663 S 1243.18 -4.72093 -2.52762 0
M  V30 13664 C 1244.34 -4.87245 -3.92866 0
M  V30 13665 H 1244.57 -2.71875 -1.20296 0
M  V30 13666 H 1242.11 -1.45583 -0.514279 0
M  V30 13667 H 1244.06 -1.99043 -3.59015 0
M  V30 13668 H 1242.72 -0.994687 -2.97934 0
M  V30 13669 H 1241.92 -3.18955 -3.90235 0
M  V30 13670 H 1241.52 -3.04266 -2.17481 0
M  V30 13671 H 1243.81 -4.7028 -4.87691 0
M  V30 13672 H 1244.75 -5.89344 -3.92529 0
M  V30 13673 H 1245.16 -4.15504 -3.82122 0
M  V30 13674 N 1244.56 0.579466 -1.4656 0
M  V30 13675 C 1245.49 1.69846 -1.60233 0
M  V30 13676 C 1246.47 1.6397 -0.452533 0
M  V30 13677 O 1247.66 1.81936 -0.679174 0
M  V30 13678 C 1244.79 3.08488 -1.59538 0
M  V30 13679 C 1243.74 3.29197 -2.7352 0
M  V30 13680 C 1243.07 4.684 -2.57887 0
M  V30 13681 C 1244.37 3.16718 -4.15315 0
M  V30 13682 H 1246.06 1.5866 -2.53904 0
M  V30 13683 H 1243.61 0.761873 -1.22194 0
M  V30 13684 H 1245.56 3.86595 -1.67696 0
M  V30 13685 H 1244.28 3.20581 -0.62413 0
M  V30 13686 H 1242.94 2.53491 -2.64836 0
M  V30 13687 H 1242.59 4.77262 -1.58839 0
M  V30 13688 H 1242.29 4.83208 -3.34341 0
M  V30 13689 H 1243.81 5.48671 -2.67942 0
M  V30 13690 H 1245.23 3.84666 -4.25094 0
M  V30 13691 H 1243.63 3.43047 -4.92381 0
M  V30 13692 H 1244.7 2.13755 -4.35244 0
M  V30 13693 N 1246.04 1.3432 0.824371 0
M  V30 13694 C 1247.29 1.25938 1.57552 0
M  V30 13695 C 1247.6 -0.169298 1.94866 0
M  V30 13696 O 1248.81 -0.375262 2.68894 0
M  V30 13697 C 1247.26 2.20757 2.84244 0
M  V30 13698 C 1246.87 3.68873 2.54237 0
M  V30 13699 C 1248.61 2.21279 3.62265 0
M  V30 13700 C 1246.52 4.55566 3.77113 0
M  V30 13701 H 1245.45 0.467832 0.591311 0
M  V30 13702 H 1248.1 1.59476 0.907724 0
M  V30 13703 H 1246.48 1.80168 3.52641 0
M  V30 13704 H 1247.66 4.17991 1.93959 0
M  V30 13705 H 1245.97 3.70784 1.89494 0
M  V30 13706 H 1248.57 2.83272 4.53499 0
M  V30 13707 H 1248.91 1.2117 3.98276 0
M  V30 13708 H 1249.45 2.60305 3.00809 0
M  V30 13709 H 1246.19 5.56605 3.46223 0
M  V30 13710 H 1245.71 4.11184 4.36678 0
M  V30 13711 H 1247.38 4.701 4.44539 0
M  V30 13712 N 1247.52 -1.0444 1.18026 0
M  V30 13713 C 1248.45 -2.14297 0.927314 0
M  V30 13714 C 1249.43 -1.69575 -0.13357 0
M  V30 13715 O 1250.61 -1.94191 0.0182439 0
M  V30 13716 C 1247.74 -3.44397 0.448134 0
M  V30 13717 C 1246.7 -4.02723 1.44907 0
M  V30 13718 C 1246.02 -5.28257 0.827555 0
M  V30 13719 C 1247.32 -4.39331 2.82463 0
M  V30 13720 H 1249.02 -2.35715 1.84605 0
M  V30 13721 H 1246.56 -1.13281 0.889012 0
M  V30 13722 H 1248.52 -4.20606 0.258554 0
M  V30 13723 H 1247.24 -3.22654 -0.506159 0
M  V30 13724 H 1245.9 -3.28591 1.62552 0
M  V30 13725 H 1245.55 -5.02822 -0.13381 0
M  V30 13726 H 1245.25 -5.68242 1.49581 0
M  V30 13727 H 1246.77 -6.07147 0.64842 0
M  V30 13728 H 1248.18 -5.06543 2.68491 0
M  V30 13729 H 1246.58 -4.90355 3.45936 0
M  V30 13730 H 1247.65 -3.4933 3.36299 0
M  V30 13731 N 1248.99 -0.981699 -1.2329 0
M  V30 13732 C 1249.93 -0.481042 -2.24095 0
M  V30 13733 C 1250.94 0.417818 -1.57347 0
M  V30 13734 O 1252.13 0.221746 -1.77117 0
M  V30 13735 C 1249.23 0.323324 -3.37354 0
M  V30 13736 C 1248.4 -0.568975 -4.33684 0
M  V30 13737 C 1247.46 0.181761 -5.25886 0
M  V30 13738 O 1246.49 -0.429059 -5.67581 0
M  V30 13739 N 1247.69 1.46737 -5.61648 0
M  V30 13740 H 1250.45 -1.34781 -2.67683 0
M  V30 13741 H 1248.01 -0.855117 -1.37475 0
M  V30 13742 H 1250.01 0.833934 -3.96015 0
M  V30 13743 H 1248.58 1.09111 -2.9294 0
M  V30 13744 H 1247.8 -1.2604 -3.73507 0
M  V30 13745 H 1249.08 -1.17704 -4.94998 0
M  V30 13746 H 1248.48 1.98513 -5.29725 0
M  V30 13747 H 1247.04 1.92339 -6.22775 0
M  V30 13748 N 1250.47 1.3842 -0.753509 0
M  V30 13749 C 1251.72 1.99359 -0.306416 0
M  V30 13750 C 1252.03 1.60492 1.11811 0
M  V30 13751 O 1253.24 2.14401 1.66567 0
M  V30 13752 C 1251.7 3.56453 -0.496895 0
M  V30 13753 C 1251.3 4.04272 -1.9305 0
M  V30 13754 C 1253.05 4.24351 -0.11251 0
M  V30 13755 C 1250.96 5.54007 -2.06955 0
M  V30 13756 H 1249.89 0.745812 -0.110818 0
M  V30 13757 H 1252.54 1.58185 -0.930039 0
M  V30 13758 H 1250.92 3.95515 0.195912 0
M  V30 13759 H 1252.09 3.765 -2.65677 0
M  V30 13760 H 1250.41 3.49098 -2.26979 0
M  V30 13761 H 1253 5.34344 -0.195161 0
M  V30 13762 H 1253.35 4.05668 0.934849 0
M  V30 13763 H 1253.88 3.90528 -0.757168 0
M  V30 13764 H 1250.62 5.77594 -3.09944 0
M  V30 13765 H 1250.14 5.83522 -1.38788 0
M  V30 13766 H 1251.82 6.19704 -1.85945 0
M  V30 13767 N 1251.95 0.502579 1.49372 0
M  V30 13768 C 1252.88 -0.264307 2.31999 0
M  V30 13769 C 1253.86 -0.96107 1.40348 0
M  V30 13770 O 1255.05 -0.952167 1.69255 0
M  V30 13771 C 1252.18 -1.32822 3.20898 0
M  V30 13772 C 1251.13 -0.751236 4.21355 0
M  V30 13773 C 1250.46 -1.91578 4.99201 0
M  V30 13774 C 1251.76 0.258764 5.21659 0
M  V30 13775 H 1253.45 0.425391 2.96363 0
M  V30 13776 H 1251 0.206022 1.42519 0
M  V30 13777 H 1252.95 -1.87245 3.77515 0
M  V30 13778 H 1251.67 -2.04712 2.54481 0
M  V30 13779 H 1250.33 -0.228743 3.65886 0
M  V30 13780 H 1249.98 -2.62241 4.2923 0
M  V30 13781 H 1249.68 -1.53578 5.67175 0
M  V30 13782 H 1251.2 -2.46432 5.58663 0
M  V30 13783 H 1252.62 -0.197385 5.7296 0
M  V30 13784 H 1251.02 0.554681 5.97531 0
M  V30 13785 H 1252.09 1.1741 4.70471 0
M  V30 13786 N 1253.43 -1.55816 0.23648 0
M  V30 13787 C 1254.84 -1.59159 -0.118601 0
M  V30 13788 C 1255.04 -1.25352 -1.57763 0
M  V30 13789 O 1254.1 -0.995863 -2.32032 0
M  V30 13790 C 1255.41 -2.99885 0.221175 0
M  V30 13791 C 1256.96 -3.12567 0.164624 0
M  V30 13792 C 1257.44 -4.55496 0.478285 0
M  V30 13793 N 1258.93 -4.61215 0.428402 0
M  V30 13794 C 1259.66 -5.69768 0.644398 0
M  V30 13795 N 1259.16 -6.86624 0.922966 0
M  V30 13796 N 1260.95 -5.59143 0.575814 0
M  V30 13797 H 1253.1 -1.76063 1.18809 0
M  V30 13798 H 1255.37 -0.819079 0.477297 0
M  V30 13799 H 1255.07 -3.29326 1.2344 0
M  V30 13800 H 1254.95 -3.74425 -0.456723 0
M  V30 13801 H 1257.33 -2.82914 -0.839263 0
M  V30 13802 H 1257.41 -2.40325 0.876219 0
M  V30 13803 H 1257.06 -4.85868 1.47968 0
M  V30 13804 H 1256.99 -5.25984 -0.254671 0
M  V30 13805 H 1259.48 -3.77251 0.221398 0
M  V30 13806 H 1259.79 -7.6528 1.07548 0
M  V30 13807 H 1258.14 -6.88333 0.960325 0
M  V30 13808 H 1261.33 -4.66727 0.358307 0
M  V30 13809 H 1261.5 -6.43674 0.747548 0
M  V30 13810 N 1254.91 0.036755 -1.57557 0
M  V30 13811 C 1256.16 0.728107 -1.881 0
M  V30 13812 C 1256.47 1.7693 -0.833974 0
M  V30 13813 O 1257.67 2.5127 -1.02837 0
M  V30 13814 C 1256.13 1.34604 -3.33781 0
M  V30 13815 C 1255.74 0.341599 -4.46696 0
M  V30 13816 C 1257.48 2.01772 -3.73481 0
M  V30 13817 C 1255.39 0.967444 -5.83433 0
M  V30 13818 H 1254.32 0.275695 -0.701789 0
M  V30 13819 H 1256.97 -0.0177555 -1.83491 0
M  V30 13820 H 1255.35 2.14135 -3.3311 0
M  V30 13821 H 1256.53 -0.426441 -4.58823 0
M  V30 13822 H 1254.84 -0.227558 -4.15778 0
M  V30 13823 H 1257.44 2.49435 -4.72955 0
M  V30 13824 H 1257.78 2.83255 -3.05077 0
M  V30 13825 H 1258.31 1.29026 -3.76294 0
M  V30 13826 H 1255.05 0.19219 -6.55218 0
M  V30 13827 H 1254.57 1.70551 -5.75041 0
M  V30 13828 H 1256.25 1.47705 -6.29914 0
M  V30 13829 N 1256.39 1.54543 0.308881 0
M  V30 13830 C 1257.32 1.79818 1.40502 0
M  V30 13831 C 1258.3 0.648927 1.4909 0
M  V30 13832 O 1259.48 0.888009 1.66273 0
M  V30 13833 C 1256.61 1.92787 2.7848 0
M  V30 13834 C 1255.65 3.15167 2.87353 0
M  V30 13835 S 1256.49 4.73427 2.50255 0
M  V30 13836 C 1257.64 4.89321 3.90276 0
M  V30 13837 H 1257.88 2.7251 1.18852 0
M  V30 13838 H 1255.41 1.45854 0.506551 0
M  V30 13839 H 1257.37 2.00944 3.57955 0
M  V30 13840 H 1256.03 1.01047 2.97403 0
M  V30 13841 H 1255.22 3.2102 3.88538 0
M  V30 13842 H 1254.82 3.05416 2.15864 0
M  V30 13843 H 1257.11 4.7286 4.8519 0
M  V30 13844 H 1258.06 5.91418 3.89398 0
M  V30 13845 H 1258.47 4.17524 3.79913 0
M  V30 13846 N 1257.86 -0.571685 1.46866 0
M  V30 13847 C 1258.77 -1.70758 1.60869 0
M  V30 13848 C 1259.79 -1.66903 0.49186 0
M  V30 13849 O 1260.97 -1.86613 0.757468 0
M  V30 13850 C 1258.03 -3.07267 1.60586 0
M  V30 13851 C 1257.09 -3.22301 2.83585 0
M  V30 13852 C 1256.32 -4.52298 2.83306 0
M  V30 13853 O 1256.55 -5.36869 1.92685 0
M  V30 13854 O 1255.48 -4.70814 3.7499 0
M  V30 13855 H 1259.31 -1.6189 2.56954 0
M  V30 13856 H 1256.89 -0.740018 1.29785 0
M  V30 13857 H 1258.77 -3.8853 1.63163 0
M  V30 13858 H 1257.45 -3.16549 0.676637 0
M  V30 13859 H 1256.36 -2.4049 2.86558 0
M  V30 13860 H 1257.69 -3.17916 3.75753 0
M  V30 13861 N 1259.34 -1.34755 -0.817236 0
M  V30 13862 C 1260.57 -1.30676 -1.61054 0
M  V30 13863 C 1260.99 0.115343 -1.87746 0
M  V30 13864 O 1260.35 1.07887 -1.45705 0
M  V30 13865 C 1260.4 -2.10881 -2.92509 0
M  V30 13866 O 1259.5 -1.48223 -3.84842 0
M  V30 13867 H 1258.84 -0.448531 -0.489608 0
M  V30 13868 H 1261.37 -1.77642 -1.01512 0
M  V30 13869 H 1261.38 -2.22446 -3.42026 0
M  V30 13870 H 1260.06 -3.14274 -2.72406 0
M  V30 13871 H 1258.63 -1.45434 -3.4337 0
M  V30 13872 N 1260.82 1.03812 -1.18578 0
M  V30 13873 C 1262.07 1.76455 -0.977071 0
M  V30 13874 C 1262.38 1.8926 0.493964 0
M  V30 13875 O 1263.59 2.58781 0.821256 0
M  V30 13876 C 1262.04 3.17264 -1.69917 0
M  V30 13877 C 1261.65 3.12543 -3.20969 0
M  V30 13878 C 1263.4 3.94266 -1.57337 0
M  V30 13879 C 1261.3 4.48226 -3.85807 0
M  V30 13880 H 1260.23 0.661445 -0.361949 0
M  V30 13881 H 1262.88 1.16252 -1.41978 0
M  V30 13882 H 1261.27 3.77878 -1.18424 0
M  V30 13883 H 1262.44 2.61364 -3.79507 0
M  V30 13884 H 1260.75 2.49039 -3.33719 0
M  V30 13885 H 1263.35 4.9461 -2.03137 0
M  V30 13886 H 1263.69 4.12963 -0.526033 0
M  V30 13887 H 1264.23 3.40232 -2.06124 0
M  V30 13888 H 1260.97 4.34734 -4.90599 0
M  V30 13889 H 1260.49 4.99497 -3.32058 0
M  V30 13890 H 1262.17 5.17135 -3.88819 0
M  V30 13891 N 1262.3 0.988223 1.22768 0
M  V30 13892 C 1263.54 0.672085 1.91975 0
M  V30 13893 C 1263.9 -0.786719 1.7558 0
M  V30 13894 O 1263.19 -1.561 1.111 0
M  V30 13895 C 1263.39 1.00744 3.42907 0
M  V30 13896 C 1263.21 2.4973 3.73985 0
M  V30 13897 C 1261.98 3.16058 3.94253 0
M  V30 13898 C 1264.18 3.47831 3.78838 0
M  V30 13899 N 1262.16 4.54568 4.12603 0
M  V30 13900 C 1263.54 4.7178 4.02273 0
M  V30 13901 C 1265.59 3.42203 3.61665 0
M  V30 13902 C 1264.29 5.90789 4.10318 0
M  V30 13903 C 1266.32 4.60584 3.70967 0
M  V30 13904 C 1265.68 5.83331 3.94847 0
M  V30 13905 H 1261.78 0.297129 0.723352 0
M  V30 13906 H 1264.36 1.26728 1.47811 0
M  V30 13907 H 1262.54 0.440869 3.8589 0
M  V30 13908 H 1264.27 0.647774 3.99482 0
M  V30 13909 H 1261.02 2.66536 3.91479 0
M  V30 13910 H 1261.45 5.26399 4.25715 0
M  V30 13911 H 1266.09 2.48323 3.42193 0
M  V30 13912 H 1263.81 6.85078 4.28596 0
M  V30 13913 H 1267.39 4.57813 3.59024 0
M  V30 13914 H 1266.27 6.73403 4.01868 0
M  V30 13915 N 1263.78 -1.38018 0.760839 0
M  V30 13916 C 1264.69 -2.34181 0.140232 0
M  V30 13917 C 1265.7 -1.59635 -0.692287 0
M  V30 13918 O 1266.88 -1.91788 -0.614752 0
M  V30 13919 C 1263.94 -3.38778 -0.73693 0
M  V30 13920 C 1263 -4.29157 0.110792 0
M  V30 13921 C 1262.24 -5.28758 -0.724599 0
M  V30 13922 O 1262.46 -5.35585 -1.96226 0
M  V30 13923 O 1261.39 -6.01738 -0.139565 0
M  V30 13924 H 1265.22 -2.88962 0.934588 0
M  V30 13925 H 1262.8 -1.3999 0.521835 0
M  V30 13926 H 1264.69 -4.02804 -1.23803 0
M  V30 13927 H 1263.36 -2.86341 -1.50966 0
M  V30 13928 H 1262.27 -3.68268 0.658007 0
M  V30 13929 H 1263.6 -4.84869 0.846346 0
M  V30 13930 N 1265.25 -0.510493 -1.49103 0
M  V30 13931 C 1266.48 0.0271718 -2.06882 0
M  V30 13932 C 1266.9 1.2995 -1.36962 0
M  V30 13933 O 1266.25 1.76842 -0.450916 0
M  V30 13934 C 1266.3 0.274956 -3.60453 0
M  V30 13935 O 1266.03 -0.946941 -4.27744 0
M  V30 13936 C 1267.53 0.855197 -4.34973 0
M  V30 13937 H 1264.75 -0.024732 -0.670544 0
M  V30 13938 H 1267.29 -0.710567 -1.91758 0
M  V30 13939 H 1265.45 0.962696 -3.75248 0
M  V30 13940 H 1265.86 -0.715627 -5.19595 0
M  V30 13941 H 1267.33 0.978103 -5.43265 0
M  V30 13942 H 1267.81 1.85535 -3.98087 0
M  V30 13943 H 1268.42 0.204632 -4.24807 0
M  V30 13944 N 1266.73 1.55688 -0.24474 0
M  V30 13945 C 1267.64 2.24933 0.666519 0
M  V30 13946 C 1268.66 1.26471 1.19503 0
M  V30 13947 O 1269.83 1.59342 1.23176 0
M  V30 13948 C 1266.9 2.9336 1.84772 0
M  V30 13949 C 1265.96 4.07225 1.35889 0
M  V30 13950 C 1265.19 4.72381 2.48379 0
M  V30 13951 O 1265.42 4.36605 3.67059 0
M  V30 13952 O 1264.35 5.60933 2.18261 0
M  V30 13953 H 1268.18 3.03513 0.106507 0
M  V30 13954 H 1265.76 1.49394 -0.0133309 0
M  V30 13955 H 1267.64 3.36468 2.53708 0
M  V30 13956 H 1266.32 2.17721 2.39539 0
M  V30 13957 H 1265.22 3.68639 0.636881 0
M  V30 13958 H 1266.56 4.84676 0.857333 0
M  V30 13959 N 1268.21 -0.0283989 1.57574 0
M  V30 13960 C 1269.43 -0.734537 1.93957 0
M  V30 13961 C 1269.86 -1.68062 0.844787 0
M  V30 13962 O 1269.22 -1.802 -0.199432 0
M  V30 13963 C 1269.27 -1.46716 3.29404 0
M  V30 13964 O 1268.37 -2.58036 3.217 0
M  V30 13965 H 1267.71 -0.197507 0.633946 0
M  V30 13966 H 1270.24 0.0163258 2.04593 0
M  V30 13967 H 1270.25 -1.83693 3.64309 0
M  V30 13968 H 1268.93 -0.773292 4.08648 0
M  V30 13969 H 1267.5 -2.23597 2.98427 0
M  V30 13970 N 1269.69 -1.54705 -0.300681 0
M  V30 13971 C 1270.62 -1.88679 -1.37559 0
M  V30 13972 C 1271.6 -0.74574 -1.52881 0
M  V30 13973 O 1272.78 -1.0015 -1.66384 0
M  V30 13974 C 1269.91 -2.13438 -2.73974 0
M  V30 13975 C 1268.87 -3.29284 -2.73415 0
M  V30 13976 C 1268.19 -3.39462 -4.13122 0
M  V30 13977 C 1269.49 -4.66382 -2.35128 0
M  V30 13978 H 1271.19 -2.78707 -1.09373 0
M  V30 13979 H 1268.73 -1.341 -0.524704 0
M  V30 13980 H 1270.69 -2.35791 -3.49257 0
M  V30 13981 H 1269.41 -1.20181 -3.03684 0
M  V30 13982 H 1268.07 -3.06855 -2.00588 0
M  V30 13983 H 1267.72 -2.43721 -4.4001 0
M  V30 13984 H 1267.42 -4.17334 -4.1365 0
M  V30 13985 H 1268.94 -3.64075 -4.90185 0
M  V30 13986 H 1270.36 -4.88463 -3.00128 0
M  V30 13987 H 1268.75 -5.4697 -2.46867 0
M  V30 13988 H 1269.82 -4.67078 -1.30256 0
M  V30 13989 N 1271.17 0.563888 -1.47167 0
M  V30 13990 C 1272.44 1.32454 -1.43928 0
M  V30 13991 C 1272.82 2.10683 -0.13267 0
M  V30 13992 O 1272.17 2.1063 0.885845 0
M  V30 13993 C 1272.38 2.2347 -2.68071 0
M  V30 13994 C 1273.73 2.84702 -3.15008 0
M  V30 13995 O 1274.75 2.33775 -2.68752 0
M  V30 13996 O 1273.61 3.77251 -3.95404 0
M  V30 13997 H 1270.71 0.596074 -0.573258 0
M  V30 13998 H 1273.25 0.583345 -1.59359 0
M  V30 13999 H 1272.02 1.6522 -3.54708 0
M  V30 14000 H 1271.65 3.04897 -2.55193 0
M  V30 14001 N 1272.64 1.35187 0.810078 0
M  V30 14002 C 1273.57 1.30481 1.93641 0
M  V30 14003 C 1274.56 0.179875 1.69146 0
M  V30 14004 O 1275.74 0.374284 1.90559 0
M  V30 14005 C 1272.87 1.07251 3.30325 0
M  V30 14006 C 1271.82 2.16348 3.69293 0
M  V30 14007 C 1271.15 1.78288 5.04101 0
M  V30 14008 C 1272.45 3.58285 3.80038 0
M  V30 14009 H 1274.14 2.24725 1.97836 0
M  V30 14010 H 1271.69 1.08179 0.950436 0
M  V30 14011 H 1273.64 1.02599 4.08719 0
M  V30 14012 H 1272.37 0.0945203 3.26463 0
M  V30 14013 H 1271.03 2.2009 2.93182 0
M  V30 14014 H 1270.67 0.791163 4.96739 0
M  V30 14015 H 1270.37 2.51315 5.31144 0
M  V30 14016 H 1271.9 1.75155 5.84938 0
M  V30 14017 H 1273.31 3.56884 4.48672 0
M  V30 14018 H 1271.71 4.30044 4.18548 0
M  V30 14019 H 1272.78 3.94691 2.81685 0
M  V30 14020 N 1274.12 -1.03182 1.19127 0
M  V30 14021 C 1275.36 -1.78089 1.00318 0
M  V30 14022 C 1275.73 -1.86451 -0.458252 0
M  V30 14023 O 1276.93 -2.57653 -0.766061 0
M  V30 14024 C 1275.2 -3.17012 1.6504 0
M  V30 14025 S 1276.76 -4.08146 1.61129 0
M  V30 14026 H 1273.58 -0.613096 0.360048 0
M  V30 14027 H 1276.18 -1.23657 1.51424 0
M  V30 14028 H 1274.88 -3.08541 2.70612 0
M  V30 14029 H 1274.41 -3.7652 1.14001 0
M  V30 14030 H 1276.43 -4.92141 0.633408 0
M  V30 14031 N 1275.6 -0.99472 -1.22242 0
M  V30 14032 C 1276.53 -0.566499 -2.26524 0
M  V30 14033 C 1277.51 0.407541 -1.65146 0
M  V30 14034 O 1278.7 0.297777 -1.91903 0
M  V30 14035 C 1275.83 0.11786 -3.471 0
M  V30 14036 C 1274.78 -0.774908 -4.20927 0
M  V30 14037 C 1274.11 0.0424687 -5.34683 0
M  V30 14038 C 1275.41 -2.07263 -4.79416 0
M  V30 14039 H 1277.1 -1.43818 -2.62596 0
M  V30 14040 H 1274.65 -0.692971 -1.2623 0
M  V30 14041 H 1276.6 0.428842 -4.19212 0
M  V30 14042 H 1275.32 1.0241 -3.10129 0
M  V30 14043 H 1273.98 -1.06956 -3.50651 0
M  V30 14044 H 1273.63 0.949677 -4.93954 0
M  V30 14045 H 1273.33 -0.551867 -5.85003 0
M  V30 14046 H 1274.85 0.347504 -6.0961 0
M  V30 14047 H 1276.27 -1.82548 -5.4346 0
M  V30 14048 H 1274.67 -2.61594 -5.40082 0
M  V30 14049 H 1275.74 -2.75017 -3.99366 0
M  V30 14050 N 1277.08 1.37613 -0.768148 0
M  V30 14051 C 1278.01 2.3291 -0.165911 0
M  V30 14052 C 1278.99 1.556 0.687205 0
M  V30 14053 O 1280.17 1.83854 0.625407 0
M  V30 14054 C 1277.3 3.39822 0.7168 0
M  V30 14055 C 1276.26 4.27986 -0.0347264 0
M  V30 14056 C 1275.58 5.2588 0.967192 0
M  V30 14057 C 1276.88 5.08052 -1.21164 0
M  V30 14058 H 1278.58 2.83524 -0.962006 0
M  V30 14059 H 1276.12 1.36318 -0.464051 0
M  V30 14060 H 1278.08 4.05464 1.14789 0
M  V30 14061 H 1276.8 2.87725 1.54538 0
M  V30 14062 H 1275.46 3.6387 -0.446557 0
M  V30 14063 H 1275.11 4.70064 1.79022 0
M  V30 14064 H 1274.81 5.85726 0.468913 0
M  V30 14065 H 1276.33 5.94397 1.3973 0
M  V30 14066 H 1277.75 5.66853 -0.857373 0
M  V30 14067 H 1276.14 5.77206 -1.64176 0
M  V30 14068 H 1277.21 4.40936 -2.0175 0
M  V30 14069 N 1278.56 0.518393 1.4883 0
M  V30 14070 C 1279.97 0.0749773 1.86549 0
M  V30 14071 C 1280.32 -1.34429 1.4291 0
M  V30 14072 O 1279.44 -2.00481 0.814648 0
M  V30 14073 C 1280.04 0.129289 3.38553 0
M  V30 14074 C 1278.6 -0.258871 3.75509 0
M  V30 14075 C 1277.74 0.494185 2.72861 0
M  V30 14076 H 1280.7 0.730266 1.409 0
M  V30 14077 H 1280.72 -0.661844 3.747 0
M  V30 14078 H 1280.23 1.16237 3.70285 0
M  V30 14079 H 1278.33 -1.29453 3.49389 0
M  V30 14080 H 1278.44 0.0726769 4.79045 0
M  V30 14081 H 1276.81 -0.0581428 2.54634 0
M  V30 14082 H 1277.59 1.52767 3.07436 0
M  V30 14083 N 1280.03 -1.55556 0.252993 0
M  V30 14084 C 1281.26 -2.03196 -0.37348 0
M  V30 14085 C 1281.67 -1.13145 -1.51641 0
M  V30 14086 O 1281.02 -0.139519 -1.83169 0
M  V30 14087 C 1281.08 -3.47066 -0.937308 0
M  V30 14088 C 1280.74 -4.5694 0.0741513 0
M  V30 14089 C 1281.74 -5.12297 0.885862 0
M  V30 14090 C 1279.42 -5.01894 0.202003 0
M  V30 14091 C 1281.42 -6.11107 1.81182 0
M  V30 14092 C 1279.1 -6.00534 1.13146 0
M  V30 14093 C 1280.1 -6.5502 1.93489 0
M  V30 14094 O 1279.79 -7.51735 2.84868 0
M  V30 14095 H 1279.52 -0.669687 -0.092171 0
M  V30 14096 H 1282.08 -2.01924 0.376264 0
M  V30 14097 H 1280.31 -3.45507 -1.73672 0
M  V30 14098 H 1282 -3.78171 -1.47451 0
M  V30 14099 H 1282.76 -4.78395 0.797707 0
M  V30 14100 H 1278.64 -4.59144 -0.413301 0
M  V30 14101 H 1282.18 -6.53561 2.43935 0
M  V30 14102 H 1278.08 -6.33856 1.22052 0
M  V30 14103 H 1278.85 -7.69373 2.79298 0
M  V30 14104 N 1281.51 0.0200419 -1.57587 0
M  V30 14105 C 1282.76 0.707627 -1.89307 0
M  V30 14106 C 1283.08 1.7541 -0.851831 0
M  V30 14107 O 1282.35 1.95571 0.113404 0
M  V30 14108 H 1280.93 0.264349 -0.698662 0
M  V30 14109 H 1283.59 -0.0161428 -1.94893 0
M  V30 14110 H 1282.69 1.19152 -2.8846 0
M  V30 14111 N 1282.99 1.54862 0.292472 0
M  V30 14112 C 1284.23 1.76289 1.03448 0
M  V30 14113 C 1284.59 0.541914 1.84194 0
M  V30 14114 O 1285.8 0.634075 2.61214 0
M  V30 14115 C 1284.07 3.02112 1.90953 0
M  V30 14116 S 1285.63 3.44577 2.71683 0
M  V30 14117 H 1282.44 0.619596 0.348744 0
M  V30 14118 H 1285.05 1.93075 0.306952 0
M  V30 14119 H 1283.75 3.89091 1.30523 0
M  V30 14120 H 1283.28 2.87937 2.68059 0
M  V30 14121 H 1285.3 3.02318 3.93469 0
M  V30 14122 N 1284.47 -0.556076 1.47464 0
M  V30 14123 C 1285.72 -1.30955 1.53407 0
M  V30 14124 C 1286.03 -1.94559 0.201485 0
M  V30 14125 O 1287.24 -2.71144 0.138925 0
M  V30 14126 C 1285.69 -2.37476 2.70431 0
M  V30 14127 C 1285.3 -1.80057 4.10224 0
M  V30 14128 C 1287.04 -3.13997 2.85668 0
M  V30 14129 C 1284.95 -2.84365 5.18547 0
M  V30 14130 H 1283.88 -0.4924 0.571015 0
M  V30 14131 H 1286.53 -0.590459 1.73741 0
M  V30 14132 H 1284.91 -3.12304 2.43479 0
M  V30 14133 H 1286.09 -1.11593 4.47083 0
M  V30 14134 H 1284.4 -1.16116 3.99882 0
M  V30 14135 H 1287 -3.91892 3.63764 0
M  V30 14136 H 1287.34 -3.68253 1.94153 0
M  V30 14137 H 1287.88 -2.46281 3.12395 0
M  V30 14138 H 1284.62 -2.34963 6.11942 0
M  V30 14139 H 1284.14 -3.51235 4.86203 0
M  V30 14140 H 1285.81 -3.47836 5.45545 0
M  V30 14141 N 1285.95 -1.35615 -0.802897 0
M  V30 14142 C 1287.17 -1.32377 -1.59659 0
M  V30 14143 C 1287.6 0.0954235 -1.87858 0
M  V30 14144 O 1286.96 1.06336 -1.46842 0
M  V30 14145 C 1287 -2.13972 -2.90256 0
M  V30 14146 O 1286.11 -1.52296 -3.83249 0
M  V30 14147 H 1285.45 -0.453699 -0.484823 0
M  V30 14148 H 1287.98 -1.78708 -0.996217 0
M  V30 14149 H 1287.99 -2.26061 -3.39647 0
M  V30 14150 H 1286.66 -3.17145 -2.69057 0
M  V30 14151 H 1285.24 -1.49068 -3.41809 0
M  V30 14152 N 1287.43 1.02549 -1.19673 0
M  V30 14153 C 1288.65 1.79623 -1.0268 0
M  V30 14154 C 1289.07 1.83969 0.424345 0
M  V30 14155 O 1288.43 1.28621 1.29472 0
M  V30 14156 C 1288.48 3.24514 -1.59289 0
M  V30 14157 O 1288.2 3.20462 -2.98723 0
M  V30 14158 C 1289.7 4.18173 -1.47126 0
M  V30 14159 H 1286.92 0.565167 -0.3617 0
M  V30 14160 H 1289.46 1.29143 -1.58564 0
M  V30 14161 H 1287.62 3.72173 -1.07546 0
M  V30 14162 H 1288.03 4.11341 -3.25421 0
M  V30 14163 H 1289.51 5.17714 -1.9151 0
M  V30 14164 H 1289.98 4.37165 -0.422315 0
M  V30 14165 H 1290.59 3.7639 -1.98017 0
M  V30 14166 N 1288.9 1.00119 1.21713 0
M  V30 14167 C 1290.15 0.680377 1.90303 0
M  V30 14168 C 1290.47 -0.790927 1.7824 0
M  V30 14169 O 1289.74 -1.5676 1.17486 0
M  V30 14170 H 1288.32 0.248665 0.704397 0
M  V30 14171 H 1290.98 1.26948 1.47886 0
M  V30 14172 H 1290.08 0.950188 2.97284 0
M  V30 14173 N 1290.38 -1.37203 0.775435 0
M  V30 14174 C 1291.66 -1.93783 0.266005 0
M  V30 14175 C 1292.04 -1.70875 -1.23956 0
M  V30 14176 O 1291.39 -1.05965 -2.02444 0
M  V30 14177 C 1291.6 -3.43018 0.643404 0
M  V30 14178 C 1292.94 -4.20119 0.615267 0
M  V30 14179 O 1293.97 -3.51396 0.583018 0
M  V30 14180 O 1292.83 -5.42673 0.645637 0
M  V30 14181 H 1289.92 -0.824649 0.0623107 0
M  V30 14182 H 1292.47 -1.46468 0.857036 0
M  V30 14183 H 1291.24 -3.5329 1.68232 0
M  V30 14184 H 1290.86 -3.97592 0.0255138 0
M  V30 14185 N 1291.86 -0.526279 -1.48553 0
M  V30 14186 C 1292.81 0.238513 -2.29564 0
M  V30 14187 C 1293.78 0.937222 -1.37133 0
M  V30 14188 O 1294.96 0.93897 -1.66096 0
M  V30 14189 C 1292.1 1.28173 -3.20415 0
M  V30 14190 C 1291.21 0.592244 -4.27921 0
M  V30 14191 C 1290.35 1.61808 -5.05956 0
M  V30 14192 C 1289.39 0.911846 -6.0527 0
M  V30 14193 N 1288.53 1.88305 -6.76377 0
M  V30 14194 H 1293.37 -0.458502 -2.94452 0
M  V30 14195 H 1290.9 -0.237948 -1.45163 0
M  V30 14196 H 1292.86 1.89883 -3.71484 0
M  V30 14197 H 1291.49 1.94718 -2.57458 0
M  V30 14198 H 1290.54 -0.138714 -3.80147 0
M  V30 14199 H 1291.85 0.0375427 -4.98786 0
M  V30 14200 H 1291.01 2.30956 -5.61021 0
M  V30 14201 H 1289.75 2.20667 -4.34922 0
M  V30 14202 H 1288.75 0.206273 -5.49413 0
M  V30 14203 H 1289.98 0.329415 -6.78301 0
M  V30 14204 H 1287.92 2.46079 -6.08096 0
M  V30 14205 H 1287.84 1.37969 -7.43304 0
M  V30 14206 H 1289.11 2.56663 -7.36033 0
M  V30 14207 N 1293.34 1.5542 -0.261239 0
M  V30 14208 C 1294.59 1.9846 0.360052 0
M  V30 14209 C 1294.9 1.15288 1.58013 0
M  V30 14210 O 1296.11 1.48408 2.27348 0
M  V30 14211 C 1294.56 3.53185 0.691964 0
M  V30 14212 C 1294.17 4.45116 -0.507521 0
M  V30 14213 C 1295.91 4.04848 1.27665 0
M  V30 14214 C 1293.82 5.91207 -0.150966 0
M  V30 14215 H 1292.75 0.741207 0.138303 0
M  V30 14216 H 1295.4 1.79859 -0.363712 0
M  V30 14217 H 1293.78 3.67535 1.47425 0
M  V30 14218 H 1294.96 4.42531 -1.28465 0
M  V30 14219 H 1293.27 4.04013 -1.0081 0
M  V30 14220 H 1295.87 5.11529 1.55699 0
M  V30 14221 H 1296.21 3.5305 2.20593 0
M  V30 14222 H 1296.75 3.93882 0.556955 0
M  V30 14223 H 1293.48 6.47072 -1.04776 0
M  V30 14224 H 1293 5.96894 0.589671 0
M  V30 14225 H 1294.68 6.4647 0.261772 0
M  V30 14226 N 1294.82 -0.0116844 1.57596 0
M  V30 14227 C 1296.06 -0.697577 1.89679 0
M  V30 14228 C 1296.38 -1.74956 0.861122 0
M  V30 14229 O 1295.65 -1.95629 -0.103031 0
M  V30 14230 H 1294.23 -0.26064 0.700054 0
M  V30 14231 H 1296.9 0.0264782 1.94882 0
M  V30 14232 H 1295.99 -1.17621 2.89088 0
M  V30 14233 N 1296.29 -1.55015 -0.284256 0
M  V30 14234 C 1297.23 -1.82031 -1.37623 0
M  V30 14235 C 1298.2 -0.672564 -1.48038 0
M  V30 14236 O 1299.39 -0.914349 -1.64839 0
M  V30 14237 C 1296.52 -1.97193 -2.75377 0
M  V30 14238 C 1295.56 -3.19699 -2.82303 0
M  V30 14239 S 1296.39 -4.77348 -2.42691 0
M  V30 14240 C 1297.55 -4.95468 -3.82442 0
M  V30 14241 H 1297.78 -2.74366 -1.14502 0
M  V30 14242 H 1295.32 -1.46642 -0.483283 0
M  V30 14243 H 1297.27 -2.06614 -3.54713 0
M  V30 14244 H 1295.94 -1.05766 -2.95757 0
M  V30 14245 H 1295.13 -3.27161 -3.83382 0
M  V30 14246 H 1294.73 -3.08811 -2.10978 0
M  V30 14247 H 1297.02 -4.80519 -4.77606 0
M  V30 14248 H 1297.97 -5.97538 -3.7994 0
M  V30 14249 H 1298.37 -4.23516 -3.73222 0
M  V30 14250 N 1297.77 0.548248 -1.47757 0
M  V30 14251 C 1299.02 1.30139 -1.54099 0
M  V30 14252 C 1299.33 1.9445 -0.2118 0
M  V30 14253 O 1300.54 2.71067 -0.153302 0
M  V30 14254 C 1299 2.36039 -2.71687 0
M  V30 14255 C 1298.6 1.77879 -4.11173 0
M  V30 14256 C 1300.35 3.12478 -2.87329 0
M  V30 14257 C 1298.25 2.81611 -5.20047 0
M  V30 14258 H 1297.18 0.489364 -0.573619 0
M  V30 14259 H 1299.84 0.581237 -1.74051 0
M  V30 14260 H 1298.22 3.11008 -2.45132 0
M  V30 14261 H 1299.39 1.09221 -4.47669 0
M  V30 14262 H 1297.71 1.13994 -4.00493 0
M  V30 14263 H 1300.3 3.89958 -3.65837 0
M  V30 14264 H 1300.65 3.67218 -1.96103 0
M  V30 14265 H 1301.18 2.4462 -3.13697 0
M  V30 14266 H 1297.92 2.31714 -6.13179 0
M  V30 14267 H 1297.44 3.48652 -4.88059 0
M  V30 14268 H 1299.12 3.44938 -5.47382 0
M  V30 14269 N 1299.25 1.36039 0.795694 0
M  V30 14270 C 1300.16 1.31991 1.93948 0
M  V30 14271 C 1301.18 0.223064 1.72564 0
M  V30 14272 O 1302.35 0.454344 1.96208 0
M  V30 14273 C 1299.42 1.10228 3.28711 0
M  V30 14274 C 1298.48 2.29328 3.62914 0
M  V30 14275 C 1297.71 2.08595 4.91247 0
M  V30 14276 O 1297.93 1.05793 5.60503 0
M  V30 14277 O 1296.87 2.96222 5.23962 0
M  V30 14278 H 1300.69 2.28274 2.00311 0
M  V30 14279 H 1298.28 1.16521 0.935048 0
M  V30 14280 H 1300.16 0.999842 4.09367 0
M  V30 14281 H 1298.84 0.17003 3.23253 0
M  V30 14282 H 1297.74 2.4514 2.8259 0
M  V30 14283 H 1299.08 3.21038 3.73089 0
M  V30 14284 N 1300.73 -1.01913 1.20215 0
M  V30 14285 C 1301.98 -1.74878 1.00502 0
M  V30 14286 C 1302.29 -1.90022 -0.463792 0
M  V30 14287 O 1303.5 -2.60055 -0.779982 0
M  V30 14288 C 1301.95 -3.1452 1.74943 0
M  V30 14289 C 1301.56 -3.07397 3.259 0
M  V30 14290 C 1303.3 -3.91713 1.63589 0
M  V30 14291 C 1301.21 -4.42032 3.92889 0
M  V30 14292 H 1300.14 -0.655603 0.372426 0
M  V30 14293 H 1302.79 -1.13978 1.4381 0
M  V30 14294 H 1301.17 -3.75946 1.24421 0
M  V30 14295 H 1302.35 -2.55294 3.83617 0
M  V30 14296 H 1300.66 -2.43698 3.37639 0
M  V30 14297 H 1303.26 -4.91316 2.1098 0
M  V30 14298 H 1303.6 -4.12074 0.591665 0
M  V30 14299 H 1304.14 -3.3691 2.11511 0
M  V30 14300 H 1300.88 -4.26874 4.97453 0
M  V30 14301 H 1300.4 -4.94151 3.39962 0
M  V30 14302 H 1302.07 -5.10884 3.96997 0
M  V30 14303 N 1302.21 -1.00763 -1.2118 0
M  V30 14304 C 1303.45 -0.692851 -1.90598 0
M  V30 14305 C 1303.79 0.774698 -1.78079 0
M  V30 14306 O 1303.06 1.56186 -1.15914 0
M  V30 14307 C 1303.34 -1.11792 -3.42308 0
M  V30 14308 C 1303.2 -2.64511 -3.63805 0
M  V30 14309 C 1304.52 -0.682314 -4.34779 0
M  V30 14310 H 1301.63 -0.253175 -0.69215 0
M  V30 14311 H 1304.28 -1.25378 -1.4276 0
M  V30 14312 H 1302.43 -0.640665 -3.83181 0
M  V30 14313 H 1304.1 -3.20021 -3.32242 0
M  V30 14314 H 1302.34 -3.05903 -3.0758 0
M  V30 14315 H 1303.01 -2.89306 -4.70113 0
M  V30 14316 H 1305.49 -1.09247 -4.01503 0
M  V30 14317 H 1304.36 -1.00787 -5.39568 0
M  V30 14318 H 1304.63 0.416441 -4.40134 0
M  V30 14319 N 1303.68 1.3679 -0.7827 0
M  V30 14320 C 1304.63 2.30139 -0.174595 0
M  V30 14321 C 1305.6 1.51645 0.677714 0
M  V30 14322 O 1306.79 1.80176 0.627796 0
M  V30 14323 C 1303.93 3.38133 0.689936 0
M  V30 14324 C 1303.04 4.31624 -0.180179 0
M  V30 14325 C 1302.17 5.26698 0.69009 0
M  V30 14326 C 1301.21 6.1183 -0.181891 0
M  V30 14327 N 1300.35 6.99113 0.646977 0
M  V30 14328 H 1305.19 2.81559 -0.97613 0
M  V30 14329 H 1302.73 1.38595 -0.492944 0
M  V30 14330 H 1304.69 3.99386 1.2061 0
M  V30 14331 H 1303.32 2.88049 1.45696 0
M  V30 14332 H 1302.37 3.71583 -0.81425 0
M  V30 14333 H 1303.68 4.91464 -0.852337 0
M  V30 14334 H 1302.83 5.93209 1.27232 0
M  V30 14335 H 1301.57 4.67297 1.3959 0
M  V30 14336 H 1300.58 5.44288 -0.776572 0
M  V30 14337 H 1301.8 6.73306 -0.885195 0
M  V30 14338 H 1299.75 6.42227 1.3372 0
M  V30 14339 H 1299.67 7.55993 0.0323547 0
M  V30 14340 H 1300.93 7.7 1.21325 0
M  V30 14341 N 1305.16 0.53415 1.48272 0
M  V30 14342 C 1306.44 -0.0630181 1.95498 0
M  V30 14343 C 1306.82 -1.50877 1.47646 0
M  V30 14344 O 1306.17 -2.17358 0.704829 0
M  V30 14345 C 1306.38 0.0585475 3.48951 0
M  V30 14346 C 1307.73 -0.0985978 4.24486 0
M  V30 14347 O 1308.75 -0.0150438 3.56197 0
M  V30 14348 O 1307.61 -0.274356 5.45811 0
M  V30 14349 H 1304.7 -0.0769841 0.823409 0
M  V30 14350 H 1307.25 0.599043 1.58775 0
M  V30 14351 H 1306.02 1.06549 3.76514 0
M  V30 14352 H 1305.64 -0.642175 3.9238 0
M  V30 14353 N 1306.64 -1.55279 0.269478 0
M  V30 14354 C 1307.6 -2.21008 -0.607299 0
M  V30 14355 C 1308.6 -1.18619 -1.08564 0
M  V30 14356 O 1309.79 -1.4356 -0.986721 0
M  V30 14357 C 1306.93 -2.87157 -1.83721 0
M  V30 14358 H 1308.12 -2.99881 -0.0334894 0
M  V30 14359 H 1305.67 -1.56287 0.0200573 0
M  V30 14360 H 1306.41 -2.12281 -2.45168 0
M  V30 14361 H 1306.19 -3.62183 -1.5022 0
M  V30 14362 H 1307.68 -3.37391 -2.46083 0
M  V30 14363 N 1308.12 0.00332656 -1.576 0
M  V30 14364 C 1309.35 0.699945 -1.94701 0
M  V30 14365 C 1309.76 1.67492 -0.871312 0
M  V30 14366 O 1309.12 1.81882 0.150054 0
M  V30 14367 C 1309.17 1.43471 -3.31811 0
M  V30 14368 O 1308.89 0.498835 -4.35251 0
M  V30 14369 C 1310.39 2.22614 -3.83351 0
M  V30 14370 H 1307.61 0.195158 -0.641993 0
M  V30 14371 H 1310.16 -0.0468044 -2.04446 0
M  V30 14372 H 1308.31 2.13311 -3.23384 0
M  V30 14373 H 1308.72 1.01688 -5.14548 0
M  V30 14374 H 1310.2 2.69527 -4.81725 0
M  V30 14375 H 1310.68 3.05146 -3.15883 0
M  V30 14376 H 1311.28 1.57796 -3.94944 0
M  V30 14377 N 1309.6 1.55164 0.276031 0
M  V30 14378 C 1310.82 1.79649 1.02635 0
M  V30 14379 C 1311.24 0.568289 1.80044 0
M  V30 14380 O 1310.6 -0.462569 1.7654 0
M  V30 14381 C 1310.65 3.01974 1.98731 0
M  V30 14382 O 1310.37 4.2005 1.24459 0
M  V30 14383 C 1311.87 3.39039 2.856 0
M  V30 14384 H 1309.09 0.598529 0.303321 0
M  V30 14385 H 1311.63 2.02171 0.307733 0
M  V30 14386 H 1309.79 2.81586 2.6606 0
M  V30 14387 H 1310.2 4.89185 1.89205 0
M  V30 14388 H 1311.68 4.27809 3.48831 0
M  V30 14389 H 1312.15 2.58306 3.55211 0
M  V30 14390 H 1312.76 3.61674 2.23767 0
M  V30 14391 N 1311.07 -0.540404 1.48045 0
M  V30 14392 C 1312.32 -1.2932 1.54787 0
M  V30 14393 C 1312.64 -1.94335 0.222109 0
M  V30 14394 O 1313.84 -2.70982 0.167675 0
M  V30 14395 C 1312.3 -2.34594 2.72935 0
M  V30 14396 C 1311.91 -1.75696 4.1211 0
M  V30 14397 C 1313.65 -3.10949 2.88982 0
M  V30 14398 C 1311.56 -2.78849 5.21534 0
M  V30 14399 H 1310.49 -0.486315 0.576206 0
M  V30 14400 H 1313.14 -0.571998 1.74357 0
M  V30 14401 H 1311.52 -3.09704 2.46778 0
M  V30 14402 H 1312.69 -1.06845 4.48242 0
M  V30 14403 H 1311.01 -1.11869 4.01091 0
M  V30 14404 H 1313.61 -3.88012 3.679 0
M  V30 14405 H 1313.95 -3.66173 1.98048 0
M  V30 14406 H 1314.48 -2.42953 3.1499 0
M  V30 14407 H 1311.22 -2.28459 6.144 0
M  V30 14408 H 1310.74 -3.46059 4.89901 0
M  V30 14409 H 1312.42 -3.4203 5.49203 0
M  V30 14410 N 1312.55 -1.36459 -0.788468 0
M  V30 14411 C 1313.52 -1.3071 -1.88275 0
M  V30 14412 C 1314.52 -0.214596 -1.59362 0
M  V30 14413 O 1315.71 -0.469437 -1.67756 0
M  V30 14414 C 1312.84 -1.02648 -3.25079 0
M  V30 14415 H 1314.03 -2.28029 -1.94788 0
M  V30 14416 H 1311.58 -1.21245 -0.986375 0
M  V30 14417 H 1312.32 -0.0578992 -3.24248 0
M  V30 14418 H 1312.1 -1.81708 -3.47454 0
M  V30 14419 H 1313.59 -1.01233 -4.05144 0
M  V30 14420 N 1314.03 1.01274 -1.20754 0
M  V30 14421 C 1314.98 2.09894 -0.959852 0
M  V30 14422 C 1315.95 1.65726 0.111351 0
M  V30 14423 O 1317.13 1.90769 -0.0341721 0
M  V30 14424 C 1314.27 3.41126 -0.52223 0
M  V30 14425 C 1313.39 3.98749 -1.66202 0
M  V30 14426 C 1312.52 5.18057 -1.17432 0
M  V30 14427 C 1311.56 5.67772 -2.28694 0
M  V30 14428 N 1310.7 6.78338 -1.81114 0
M  V30 14429 H 1315.54 2.30416 -1.88977 0
M  V30 14430 H 1313.07 1.12989 -0.941906 0
M  V30 14431 H 1315.03 4.16451 -0.249799 0
M  V30 14432 H 1313.66 3.20665 0.370688 0
M  V30 14433 H 1312.71 3.20483 -2.04927 0
M  V30 14434 H 1314.03 4.31646 -2.49967 0
M  V30 14435 H 1313.18 6.00601 -0.858086 0
M  V30 14436 H 1311.92 4.86735 -0.306614 0
M  V30 14437 H 1310.92 4.8383 -2.61129 0
M  V30 14438 H 1312.15 6.01127 -3.15948 0
M  V30 14439 H 1310.09 6.48837 -0.966761 0
M  V30 14440 H 1310.01 7.10448 -2.58457 0
M  V30 14441 H 1311.28 7.64437 -1.52502 0
M  V30 14442 N 1315.51 1.01404 1.20644 0
M  V30 14443 C 1316.76 0.697244 1.89265 0
M  V30 14444 C 1317.07 -0.776149 1.79542 0
M  V30 14445 O 1318.28 -1.2054 2.43274 0
M  V30 14446 C 1316.73 1.19672 3.39421 0
M  V30 14447 C 1316.34 2.69683 3.57736 0
M  V30 14448 C 1318.09 0.955225 4.13613 0
M  V30 14449 C 1315.99 3.13124 5.01704 0
M  V30 14450 H 1314.92 0.257105 0.708811 0
M  V30 14451 H 1317.57 1.22639 1.36499 0
M  V30 14452 H 1315.96 0.595562 3.91496 0
M  V30 14453 H 1317.13 3.35326 3.16059 0
M  V30 14454 H 1315.44 2.91946 2.96911 0
M  V30 14455 H 1318.04 1.25524 5.19757 0
M  V30 14456 H 1318.38 -0.108362 4.16159 0
M  V30 14457 H 1318.92 1.51962 3.67631 0
M  V30 14458 H 1315.66 4.18748 5.04311 0
M  V30 14459 H 1315.18 2.522 5.44201 0
M  V30 14460 H 1316.86 3.05617 5.70269 0
M  V30 14461 N 1316.99 -1.36373 0.789944 0
M  V30 14462 C 1317.92 -2.2873 0.146642 0
M  V30 14463 C 1318.93 -1.49503 -0.644419 0
M  V30 14464 O 1320.12 -1.71939 -0.479515 0
M  V30 14465 C 1317.22 -3.28945 -0.815369 0
M  V30 14466 C 1316.39 -4.37337 -0.0742515 0
M  V30 14467 C 1315.45 -5.17511 -0.952284 0
M  V30 14468 O 1314.48 -5.67726 -0.409336 0
M  V30 14469 N 1315.68 -5.34001 -2.27648 0
M  V30 14470 H 1318.45 -2.84578 0.939978 0
M  V30 14471 H 1316.01 -1.48545 0.643898 0
M  V30 14472 H 1318 -3.79469 -1.40661 0
M  V30 14473 H 1316.57 -2.73734 -1.50958 0
M  V30 14474 H 1315.79 -3.8797 0.698068 0
M  V30 14475 H 1317.08 -5.06919 0.437148 0
M  V30 14476 H 1316.48 -4.94819 -2.74173 0
M  V30 14477 H 1315.03 -5.87766 -2.81735 0
M  V30 14478 N 1318.47 -0.542005 -1.47987 0
M  V30 14479 C 1319.4 0.25143 -2.27817 0
M  V30 14480 C 1320.41 0.893436 -1.36094 0
M  V30 14481 O 1321.6 0.769849 -1.61045 0
M  V30 14482 C 1318.7 1.37236 -3.0987 0
M  V30 14483 C 1317.87 0.830021 -4.29452 0
M  V30 14484 C 1316.93 1.83356 -4.93221 0
M  V30 14485 O 1315.96 1.38571 -5.52075 0
M  V30 14486 N 1317.16 3.16631 -4.86544 0
M  V30 14487 H 1319.92 -0.433281 -2.96551 0
M  V30 14488 H 1317.49 -0.377099 -1.57447 0
M  V30 14489 H 1319.48 2.04212 -3.49399 0
M  V30 14490 H 1318.05 1.96055 -2.43478 0
M  V30 14491 H 1317.27 -0.0160827 -3.94197 0
M  V30 14492 H 1318.56 0.446762 -5.06835 0
M  V30 14493 H 1317.95 3.55673 -4.39901 0
M  V30 14494 H 1316.51 3.79207 -5.30137 0
M  V30 14495 N 1319.94 1.55134 -0.277709 0
M  V30 14496 C 1321.17 2.04519 0.344472 0
M  V30 14497 C 1321.59 1.15466 1.4849 0
M  V30 14498 O 1320.95 0.153798 1.80646 0
M  V30 14499 C 1321 3.51602 0.800527 0
M  V30 14500 O 1320.1 3.65632 1.90754 0
M  V30 14501 H 1319.44 0.660212 0.0708226 0
M  V30 14502 H 1321.97 2.00393 -0.412764 0
M  V30 14503 H 1321.98 3.93015 1.09559 0
M  V30 14504 H 1320.66 4.15886 -0.033838 0
M  V30 14505 H 1319.24 3.36122 1.61481 0
M  V30 14506 N 1321.42 0.00503138 1.57599 0
M  V30 14507 C 1322.65 -0.689609 1.95069 0
M  V30 14508 C 1323.06 -1.67028 0.880183 0
M  V30 14509 O 1322.42 -1.81959 -0.140406 0
M  V30 14510 C 1322.47 -1.41709 3.32567 0
M  V30 14511 O 1322.19 -0.475746 4.35509 0
M  V30 14512 C 1323.69 -2.20578 3.84526 0
M  V30 14513 H 1320.91 -0.19175 0.643019 0
M  V30 14514 H 1323.46 0.057646 2.04419 0
M  V30 14515 H 1321.61 -2.11593 3.2451 0
M  V30 14516 H 1322.03 -0.989573 5.1508 0
M  V30 14517 H 1323.5 -2.66969 4.83148 0
M  V30 14518 H 1323.98 -3.03467 3.17497 0
M  V30 14519 H 1324.58 -1.557 3.95775 0
M  V30 14520 N 1322.9 -1.55308 -0.267798 0
M  V30 14521 C 1324.15 -1.7642 -1.00019 0
M  V30 14522 C 1324.48 -0.566559 -1.85752 0
M  V30 14523 O 1323.75 0.435752 -1.89556 0
M  V30 14524 C 1324.04 -3.07229 -1.87836 0
M  V30 14525 C 1323.89 -4.37358 -1.05061 0
M  V30 14526 C 1325.21 -3.34113 -2.86455 0
M  V30 14527 H 1322.33 -0.641859 -0.362197 0
M  V30 14528 H 1324.97 -1.8804 -0.272188 0
M  V30 14529 H 1323.12 -2.97454 -2.49907 0
M  V30 14530 H 1324.79 -4.59098 -0.450208 0
M  V30 14531 H 1323.03 -4.32351 -0.354242 0
M  V30 14532 H 1323.71 -5.25223 -1.69838 0
M  V30 14533 H 1326.18 -3.43715 -2.34519 0
M  V30 14534 H 1325.06 -4.26896 -3.45038 0
M  V30 14535 H 1325.32 -2.54005 -3.61848 0
M  V30 14536 N 1324.38 0.532545 -1.4833 0
M  V30 14537 C 1325.63 1.28597 -1.55908 0
M  V30 14538 C 1325.95 1.93595 -0.233635 0
M  V30 14539 O 1325.22 1.81197 0.744605 0
M  V30 14540 H 1323.8 0.477619 -0.57436 0
M  V30 14541 H 1326.46 0.619922 -1.84778 0
M  V30 14542 H 1325.55 2.0666 -2.33877 0
M  V30 14543 N 1325.86 1.36875 0.78122 0
M  V30 14544 C 1326.8 1.31941 1.91557 0
M  V30 14545 C 1327.8 0.209783 1.68096 0
M  V30 14546 O 1329 0.377266 1.76002 0
M  V30 14547 H 1325.38 0.410955 0.629778 0
M  V30 14548 H 1327.35 2.27721 1.92836 0
M  V30 14549 C 1326.1 1.13379 3.28695 0
M  V30 14550 H 1325.42 1.98013 3.47319 0
M  V30 14551 H 1326.86 1.13976 4.08394 0
M  V30 14552 C 1325.32 -0.161119 3.36515 0
M  V30 14553 O 1325.85 -1.14806 3.84945 0
M  V30 14554 N 1324.06 -0.208594 2.8985 0
M  V30 14555 H 1323.6 0.595187 2.5063 0
M  V30 14556 H 1323.56 -1.07465 2.95463 0
M  V30 14557 N 1327.33 -1.00632 1.21289 0
M  V30 14558 C 1328.56 -1.77967 1.05524 0
M  V30 14559 C 1328.98 -1.84621 -0.395023 0
M  V30 14560 O 1328.33 -1.30664 -1.27409 0
M  V30 14561 C 1328.38 -3.21939 1.64432 0
M  V30 14562 O 1328.11 -3.15669 3.03784 0
M  V30 14563 C 1329.61 -4.1578 1.5376 0
M  V30 14564 H 1326.83 -0.559341 0.370646 0
M  V30 14565 H 1329.37 -1.26604 1.60598 0
M  V30 14566 H 1327.53 -3.70415 1.13453 0
M  V30 14567 H 1327.94 -4.06112 3.31924 0
M  V30 14568 H 1329.41 -5.14602 1.99722 0
M  V30 14569 H 1329.89 -4.36438 0.491811 0
M  V30 14570 H 1330.5 -3.73192 2.0398 0
M  V30 14571 N 1328.81 -1.02043 -1.20104 0
M  V30 14572 C 1330.06 -0.710566 -1.89197 0
M  V30 14573 C 1330.38 0.762471 -1.79475 0
M  V30 14574 O 1329.65 1.54871 -1.19965 0
M  V30 14575 H 1328.23 -0.259839 -0.700352 0
M  V30 14576 H 1330.89 -1.29285 -1.45848 0
M  V30 14577 H 1329.99 -0.997363 -2.95735 0
M  V30 14578 N 1330.29 1.35952 -0.797165 0
M  V30 14579 C 1331.25 2.28266 -0.206748 0
M  V30 14580 C 1332.25 1.49169 0.60043 0
M  V30 14581 O 1333.44 1.69054 0.42029 0
M  V30 14582 C 1330.58 3.33363 0.712884 0
M  V30 14583 H 1331.77 2.81992 -1.02082 0
M  V30 14584 H 1329.32 1.45648 -0.567138 0
M  V30 14585 H 1330.06 2.84806 1.551 0
M  V30 14586 H 1329.84 3.91864 0.135926 0
M  V30 14587 H 1331.33 4.02284 1.1206 0
M  V30 14588 N 1331.77 0.549846 1.47697 0
M  V30 14589 C 1333.02 0.0230503 2.02487 0
M  V30 14590 C 1333.34 -1.32382 1.42497 0
M  V30 14591 O 1332.6 -1.87293 0.567441 0
M  V30 14592 C 1332.9 -0.127268 3.57173 0
M  V30 14593 C 1332.56 1.14777 4.36047 0
M  V30 14594 C 1331.23 1.49716 4.57317 0
M  V30 14595 C 1333.58 1.99302 4.81589 0
M  V30 14596 C 1330.91 2.69042 5.21376 0
M  V30 14597 C 1333.26 3.17824 5.46965 0
M  V30 14598 C 1331.92 3.53086 5.66469 0
M  V30 14599 H 1331.19 0.00843471 0.740952 0
M  V30 14600 H 1333.84 0.719876 1.77454 0
M  V30 14601 H 1332.14 -0.907008 3.81157 0
M  V30 14602 H 1333.84 -0.550103 3.97209 0
M  V30 14603 H 1330.43 0.865703 4.19766 0
M  V30 14604 H 1334.61 1.73618 4.64942 0
M  V30 14605 H 1329.87 2.9654 5.34672 0
M  V30 14606 H 1334.04 3.83612 5.81218 0
M  V30 14607 H 1331.67 4.45643 6.15878 0
M  V30 14608 N 1333.25 -1.54984 0.285932 0
M  V30 14609 C 1334.19 -2.2295 -0.596822 0
M  V30 14610 C 1335.16 -1.20674 -1.14136 0
M  V30 14611 O 1336.35 -1.49249 -1.18867 0
M  V30 14612 C 1333.49 -2.9625 -1.77002 0
M  V30 14613 C 1332.6 -4.13268 -1.25831 0
M  V30 14614 C 1331.74 -4.74187 -2.39417 0
M  V30 14615 C 1330.78 -5.83377 -1.85304 0
M  V30 14616 N 1329.91 -6.38313 -2.92405 0
M  V30 14617 H 1334.75 -2.97998 -0.0106104 0
M  V30 14618 H 1332.29 -1.47099 0.00653041 0
M  V30 14619 H 1334.25 -3.36971 -2.4598 0
M  V30 14620 H 1332.88 -2.23606 -2.3281 0
M  V30 14621 H 1331.93 -3.77593 -0.461278 0
M  V30 14622 H 1333.24 -4.91979 -0.822049 0
M  V30 14623 H 1332.4 -5.17683 -3.16369 0
M  V30 14624 H 1331.13 -3.94775 -2.86364 0
M  V30 14625 H 1330.14 -5.3932 -1.06835 0
M  V30 14626 H 1331.36 -6.64664 -1.3928 0
M  V30 14627 H 1329.31 -5.61791 -3.38713 0
M  V30 14628 H 1329.23 -7.12328 -2.53228 0
M  V30 14629 H 1330.5 -6.86468 -3.69299 0
M  V30 14630 N 1334.72 -0.0133892 -1.57594 0
M  V30 14631 C 1336 0.706416 -1.82398 0
M  V30 14632 C 1336.38 1.91236 -0.893983 0
M  V30 14633 O 1335.73 2.28436 0.0541675 0
M  V30 14634 C 1335.94 1.09951 -3.31228 0
M  V30 14635 C 1337.29 1.49776 -3.97306 0
M  V30 14636 O 1338.31 1.19293 -3.3563 0
M  V30 14637 O 1337.17 2.06511 -5.0598 0
M  V30 14638 H 1334.26 0.345131 -0.751541 0
M  V30 14639 H 1336.81 -0.0398687 -1.69653 0
M  V30 14640 H 1335.58 0.240514 -3.9056 0
M  V30 14641 H 1335.21 1.90447 -3.49021 0
M  V30 14642 N 1336.2 1.55448 0.259558 0
M  V30 14643 C 1337.11 1.92364 1.34289 0
M  V30 14644 C 1338.13 0.822492 1.53333 0
M  V30 14645 O 1339.3 1.12277 1.672 0
M  V30 14646 C 1336.37 2.19978 2.67975 0
M  V30 14647 C 1335.43 3.43454 2.57562 0
M  V30 14648 C 1334.66 3.69741 3.84873 0
M  V30 14649 O 1334.89 2.9831 4.86176 0
M  V30 14650 O 1333.82 4.63274 3.84267 0
M  V30 14651 H 1337.65 2.8461 1.05975 0
M  V30 14652 H 1335.23 1.42167 0.459239 0
M  V30 14653 H 1337.11 2.39104 3.46998 0
M  V30 14654 H 1335.79 1.30912 2.96047 0
M  V30 14655 H 1334.7 3.29649 1.76869 0
M  V30 14656 H 1336.03 4.32782 2.34437 0
M  V30 14657 N 1337.68 -0.524672 1.4861 0
M  V30 14658 C 1338.93 -1.28211 1.5713 0
M  V30 14659 C 1339.26 -1.92626 0.246751 0
M  V30 14660 O 1338.53 -1.79553 -0.747725 0
M  V30 14661 C 1338.82 -2.36737 2.71344 0
M  V30 14662 C 1338.67 -1.76978 4.1352 0
M  V30 14663 C 1339.99 -3.3847 2.81294 0
M  V30 14664 H 1337.11 -0.46479 0.571961 0
M  V30 14665 H 1339.75 -0.583937 1.80804 0
M  V30 14666 H 1337.9 -2.96287 2.51289 0
M  V30 14667 H 1339.57 -1.21438 4.45029 0
M  V30 14668 H 1337.82 -1.07488 4.20272 0
M  V30 14669 H 1338.49 -2.55583 4.89266 0
M  V30 14670 H 1340.96 -2.88882 2.99477 0
M  V30 14671 H 1339.84 -4.11795 3.62928 0
M  V30 14672 H 1340.1 -3.99347 1.89669 0
M  V30 14673 N 1339.16 -1.37287 -0.77395 0
M  V30 14674 C 1340.09 -1.35569 -1.90114 0
M  V30 14675 C 1341.07 -0.224658 -1.6861 0
M  V30 14676 O 1342.25 -0.424676 -1.895 0
M  V30 14677 C 1339.38 -1.15971 -3.27365 0
M  V30 14678 C 1338.34 -2.26063 -3.63427 0
M  V30 14679 C 1337.66 -1.9159 -4.99197 0
M  V30 14680 C 1338.96 -3.68236 -3.70405 0
M  V30 14681 H 1340.66 -2.29891 -1.91808 0
M  V30 14682 H 1338.2 -1.10661 -0.92142 0
M  V30 14683 H 1340.16 -1.134 -4.05855 0
M  V30 14684 H 1338.88 -0.181043 -3.26098 0
M  V30 14685 H 1337.54 -2.27786 -2.87244 0
M  V30 14686 H 1337.19 -0.922586 -4.94467 0
M  V30 14687 H 1336.89 -2.65309 -5.24294 0
M  V30 14688 H 1338.41 -1.90602 -5.80089 0
M  V30 14689 H 1339.83 -3.68655 -4.39052 0
M  V30 14690 H 1338.22 -4.4099 -4.06999 0
M  V30 14691 H 1339.29 -4.02021 -2.71122 0
M  V30 14692 N 1340.64 0.999871 -1.21821 0
M  V30 14693 C 1341.58 2.10985 -0.979183 0
M  V30 14694 C 1342.58 1.69232 0.0753287 0
M  V30 14695 O 1343.78 1.79837 -0.0765083 0
M  V30 14696 H 1340.16 0.689819 -0.299421 0
M  V30 14697 H 1342.13 2.28322 -1.92124 0
M  V30 14698 C 1340.88 3.43062 -0.56602 0
M  V30 14699 H 1340.2 3.75627 -1.36909 0
M  V30 14700 H 1341.64 4.2173 -0.43813 0
M  V30 14701 C 1340.1 3.29036 0.723647 0
M  V30 14702 O 1340.63 3.60214 1.77788 0
M  V30 14703 N 1338.84 2.82237 0.692126 0
M  V30 14704 H 1338.38 2.57064 -0.166082 0
M  V30 14705 H 1338.34 2.73235 1.55532 0
M  V30 14706 N 1342.11 1.02678 1.19562 0
M  V30 14707 C 1343.06 0.576385 2.20594 0
M  V30 14708 C 1344.05 -0.373747 1.56499 0
M  V30 14709 O 1345.24 -0.195058 1.75922 0
M  V30 14710 C 1342.37 -0.0735507 3.43221 0
M  V30 14711 C 1341.46 0.898896 4.14464 0
M  V30 14712 N 1341.85 2.06048 4.61928 0
M  V30 14713 C 1340.14 0.721889 4.40119 0
M  V30 14714 C 1340.85 2.67364 5.16615 0
M  V30 14715 N 1339.82 1.95344 5.07289 0
M  V30 14716 H 1343.62 1.46179 2.54968 0
M  V30 14717 H 1341.14 0.893484 1.35612 0
M  V30 14718 H 1343.13 -0.413825 4.14841 0
M  V30 14719 H 1341.79 -0.954671 3.10348 0
M  V30 14720 H 1342.81 2.43999 4.5682 0
M  V30 14721 H 1339.48 -0.110317 4.17354 0
M  V30 14722 H 1340.87 3.65726 5.63644 0
M  V30 14723 N 1343.59 -1.35528 0.804364 0
M  V30 14724 C 1344.84 -1.9956 0.393383 0
M  V30 14725 C 1345.19 -1.62667 -1.02749 0
M  V30 14726 O 1344.49 -0.87869 -1.70263 0
M  V30 14727 C 1344.68 -3.5372 0.511571 0
M  V30 14728 C 1344.51 -4.05588 1.94238 0
M  V30 14729 C 1343.28 -4.35046 2.57027 0
M  V30 14730 C 1345.48 -4.24287 2.90663 0
M  V30 14731 N 1343.46 -4.7283 3.91541 0
M  V30 14732 C 1344.83 -4.65043 4.10043 0
M  V30 14733 C 1346.89 -4.0649 2.87524 0
M  V30 14734 C 1345.59 -4.89864 5.26712 0
M  V30 14735 C 1347.61 -4.32467 4.03394 0
M  V30 14736 C 1346.98 -4.73492 5.21521 0
M  V30 14737 H 1343.08 -0.758146 0.191674 0
M  V30 14738 H 1345.66 -1.64271 1.04513 0
M  V30 14739 H 1343.83 -3.88244 -0.110174 0
M  V30 14740 H 1345.56 -4.0463 0.0753915 0
M  V30 14741 H 1342.32 -4.25285 2.08397 0
M  V30 14742 H 1342.74 -4.95985 4.6079 0
M  V30 14743 H 1347.38 -3.73916 1.97349 0
M  V30 14744 H 1345.1 -5.21313 6.17461 0
M  V30 14745 H 1348.69 -4.20252 4.02343 0
M  V30 14746 H 1347.57 -4.93201 6.09691 0
M  V30 14747 N 1345.07 -0.557671 -1.47404 0
M  V30 14748 C 1346 0.178019 -2.3282 0
M  V30 14749 C 1346.98 0.908318 -1.43818 0
M  V30 14750 O 1348.17 0.888693 -1.72673 0
M  V30 14751 C 1345.3 1.2082 -3.25607 0
M  V30 14752 C 1344.25 0.594335 -4.23853 0
M  V30 14753 C 1343.58 1.72919 -5.05968 0
M  V30 14754 C 1344.88 -0.452196 -5.20339 0
M  V30 14755 H 1346.57 -0.535091 -2.9458 0
M  V30 14756 H 1344.12 -0.258775 -1.41656 0
M  V30 14757 H 1346.07 1.73104 -3.84204 0
M  V30 14758 H 1344.79 1.95126 -2.61903 0
M  V30 14759 H 1343.45 0.0927898 -3.66483 0
M  V30 14760 H 1343.1 2.4613 -4.38668 0
M  V30 14761 H 1342.8 1.32422 -5.72484 0
M  V30 14762 H 1344.33 2.25527 -5.67424 0
M  V30 14763 H 1345.74 -0.0154011 -5.73298 0
M  V30 14764 H 1344.14 -0.776068 -5.95061 0
M  V30 14765 H 1345.21 -1.34791 -4.65789 0
M  V30 14766 N 1346.55 1.54831 -0.294147 0
M  V30 14767 C 1347.5 2.23263 0.58499 0
M  V30 14768 C 1348.47 1.21278 1.13494 0
M  V30 14769 O 1349.65 1.49878 1.18073 0
M  V30 14770 C 1346.79 2.97185 1.75429 0
M  V30 14771 C 1345.9 4.1393 1.23638 0
M  V30 14772 C 1345.04 4.7545 2.36899 0
M  V30 14773 C 1344.08 5.84352 1.82207 0
M  V30 14774 N 1343.22 6.39855 2.89015 0
M  V30 14775 H 1348.06 2.98 -0.00519329 0
M  V30 14776 H 1345.59 1.47093 -0.0143313 0
M  V30 14777 H 1347.55 3.38271 2.4419 0
M  V30 14778 H 1346.18 2.24837 2.3162 0
M  V30 14779 H 1345.23 3.77832 0.441247 0
M  V30 14780 H 1346.54 4.92409 0.795946 0
M  V30 14781 H 1345.7 5.19353 3.1362 0
M  V30 14782 H 1344.44 3.96288 2.84266 0
M  V30 14783 H 1343.44 5.39879 1.03974 0
M  V30 14784 H 1344.67 6.65393 1.35753 0
M  V30 14785 H 1342.61 5.6358 3.35729 0
M  V30 14786 H 1342.53 7.13661 2.49447 0
M  V30 14787 H 1343.8 6.88417 3.65654 0
M  V30 14788 N 1348.03 0.0217466 1.57585 0
M  V30 14789 C 1348.94 -0.978407 2.13224 0
M  V30 14790 C 1349.95 -1.36212 1.08269 0
M  V30 14791 O 1351.13 -1.44504 1.40288 0
M  V30 14792 C 1348.19 -2.24462 2.6423 0
M  V30 14793 C 1347.26 -1.92201 3.83871 0
M  V30 14794 C 1346.49 -3.12786 4.32436 0
M  V30 14795 O 1346.71 -4.25201 3.8021 0
M  V30 14796 O 1345.65 -2.95514 5.24362 0
M  V30 14797 H 1349.47 -0.535347 2.98944 0
M  V30 14798 H 1347.06 -0.198414 1.48077 0
M  V30 14799 H 1348.94 -2.98809 2.97138 0
M  V30 14800 H 1347.61 -2.67964 1.81596 0
M  V30 14801 H 1346.52 -1.15262 3.55901 0
M  V30 14802 H 1347.85 -1.53521 4.67645 0
M  V30 14803 N 1349.51 -1.55583 -0.251311 0
M  V30 14804 C 1350.45 -1.89946 -1.31108 0
M  V30 14805 C 1351.42 -0.753209 -1.4804 0
M  V30 14806 O 1352.61 -1.00646 -1.62095 0
M  V30 14807 C 1349.75 -2.19576 -2.66233 0
M  V30 14808 C 1348.86 -3.46983 -2.57345 0
M  V30 14809 C 1348 -3.66206 -3.84794 0
M  V30 14810 C 1347.03 -4.87229 -3.70505 0
M  V30 14811 N 1346.17 -5.02996 -4.89836 0
M  V30 14812 H 1351.01 -2.80325 -1.01104 0
M  V30 14813 H 1348.55 -1.3877 -0.487986 0
M  V30 14814 H 1350.51 -2.3476 -3.44882 0
M  V30 14815 H 1349.14 -1.32406 -2.94395 0
M  V30 14816 H 1348.19 -3.40156 -1.70289 0
M  V30 14817 H 1349.5 -4.35776 -2.42695 0
M  V30 14818 H 1348.65 -3.81324 -4.71886 0
M  V30 14819 H 1347.39 -2.75638 -4.02337 0
M  V30 14820 H 1346.4 -4.72092 -2.81797 0
M  V30 14821 H 1347.62 -5.79253 -3.54462 0
M  V30 14822 H 1345.57 -4.15364 -5.07748 0
M  V30 14823 H 1345.49 -5.8587 -4.778 0
M  V30 14824 H 1346.75 -5.22521 -5.78439 0
M  V30 14825 N 1350.98 0.516783 -1.48886 0
M  V30 14826 C 1352.21 1.30103 -1.61518 0
M  V30 14827 C 1352.63 1.85996 -0.28055 0
M  V30 14828 O 1351.99 1.65075 0.749671 0
M  V30 14829 C 1352.04 2.41837 -2.67483 0
M  V30 14830 O 1351.14 3.45249 -2.25559 0
M  V30 14831 H 1350.48 0.384774 -0.541152 0
M  V30 14832 H 1353.01 0.620424 -1.94966 0
M  V30 14833 H 1353.02 2.87832 -2.89165 0
M  V30 14834 H 1351.7 2.00519 -3.64369 0
M  V30 14835 H 1350.28 3.05281 -2.14144 0
M  V30 14836 N 1352.46 1.37696 0.766659 0
M  V30 14837 C 1353.87 1.29668 1.34324 0
M  V30 14838 C 1354.22 -0.0534297 1.96127 0
M  V30 14839 O 1353.35 -0.95534 1.94171 0
M  V30 14840 C 1353.94 2.34818 2.44225 0
M  V30 14841 C 1352.5 2.3041 2.97638 0
M  V30 14842 C 1351.65 2.18378 1.70899 0
M  V30 14843 H 1354.6 1.48244 0.566526 0
M  V30 14844 H 1354.62 1.99778 3.23835 0
M  V30 14845 H 1354.13 3.3307 1.99214 0
M  V30 14846 H 1352.23 1.35698 3.47011 0
M  V30 14847 H 1352.35 3.24028 3.52906 0
M  V30 14848 H 1350.71 1.65008 1.94021 0
M  V30 14849 H 1351.49 3.18551 1.27985 0
M  V30 14850 N 1353.94 -0.993397 1.22349 0
M  V30 14851 C 1355.17 -1.76838 1.07406 0
M  V30 14852 C 1355.58 -1.8503 -0.37542 0
M  V30 14853 O 1354.94 -1.32008 -1.26016 0
M  V30 14854 C 1354.99 -3.20177 1.67837 0
M  V30 14855 O 1354.71 -3.12429 3.07115 0
M  V30 14856 C 1356.21 -4.14125 1.58161 0
M  V30 14857 H 1353.43 -0.555379 0.376557 0
M  V30 14858 H 1355.98 -1.24893 1.61932 0
M  V30 14859 H 1354.13 -3.69191 1.17375 0
M  V30 14860 H 1354.55 -4.02568 3.36213 0
M  V30 14861 H 1356.02 -5.12455 2.05169 0
M  V30 14862 H 1356.5 -4.35892 0.538073 0
M  V30 14863 H 1357.1 -3.71008 2.07926 0
M  V30 14864 N 1355.42 -1.03311 -1.19015 0
M  V30 14865 C 1356.33 -0.627735 -2.26046 0
M  V30 14866 C 1357.34 0.342483 -1.70596 0
M  V30 14867 O 1358.52 0.199307 -2.00411 0
M  V30 14868 C 1355.58 0.0108274 -3.46698 0
M  V30 14869 C 1354.65 -1.00743 -4.17312 0
M  V30 14870 C 1353.88 -0.399245 -5.32205 0
M  V30 14871 O 1354.1 0.796649 -5.64809 0
M  V30 14872 O 1353.04 -1.12419 -5.91308 0
M  V30 14873 H 1356.86 -1.51923 -2.6297 0
M  V30 14874 H 1354.45 -0.803538 -1.25951 0
M  V30 14875 H 1356.33 0.366672 -4.19802 0
M  V30 14876 H 1355 0.876265 -3.11614 0
M  V30 14877 H 1353.91 -1.41494 -3.4631 0
M  V30 14878 H 1355.24 -1.84338 -4.56377 0
M  V30 14879 N 1356.9 1.35099 -0.81154 0
M  V30 14880 C 1357.81 2.33499 -0.22705 0
M  V30 14881 C 1358.82 1.62095 0.632562 0
M  V30 14882 O 1360 1.93938 0.543147 0
M  V30 14883 C 1357.06 3.41279 0.610687 0
M  V30 14884 C 1356.12 4.2845 -0.269994 0
M  V30 14885 C 1355.36 5.31083 0.527854 0
M  V30 14886 O 1355.58 5.42499 1.76213 0
M  V30 14887 O 1354.51 6.01842 -0.083862 0
M  V30 14888 H 1358.34 2.85294 -1.04119 0
M  V30 14889 H 1355.92 1.37957 -0.573432 0
M  V30 14890 H 1357.81 4.07121 1.08768 0
M  V30 14891 H 1356.48 2.91746 1.40235 0
M  V30 14892 H 1355.39 3.65572 -0.794234 0
M  V30 14893 H 1356.72 4.81394 -1.02572 0
M  V30 14894 N 1358.37 0.56548 1.47106 0
M  V30 14895 C 1359.32 -0.177564 2.30116 0
M  V30 14896 C 1360.29 -0.900534 1.39569 0
M  V30 14897 O 1361.48 -0.894603 1.68527 0
M  V30 14898 C 1358.62 -1.19633 3.237 0
M  V30 14899 C 1357.73 -0.47858 4.29341 0
M  V30 14900 C 1356.86 -1.48336 5.10068 0
M  V30 14901 C 1355.9 -0.751049 6.07475 0
M  V30 14902 N 1355.04 -1.70306 6.81132 0
M  V30 14903 H 1359.88 0.536409 2.93132 0
M  V30 14904 H 1357.42 0.276352 1.44481 0
M  V30 14905 H 1359.37 -1.79967 3.76388 0
M  V30 14906 H 1358 -1.87823 2.6253 0
M  V30 14907 H 1357.06 0.239454 3.79646 0
M  V30 14908 H 1358.37 0.0947147 4.9871 0
M  V30 14909 H 1357.52 -2.16 5.66947 0
M  V30 14910 H 1356.26 -2.09058 4.4062 0
M  V30 14911 H 1355.27 -0.0605336 5.49767 0
M  V30 14912 H 1356.49 -0.14946 6.78936 0
M  V30 14913 H 1354.44 -2.2987 6.14407 0
M  V30 14914 H 1354.35 -1.18213 7.46701 0
M  V30 14915 H 1355.62 -2.37058 7.42579 0
M  V30 14916 N 1359.85 -1.54672 0.302354 0
M  V30 14917 C 1361.1 -2.00167 -0.306524 0
M  V30 14918 C 1361.43 -1.19073 -1.53791 0
M  V30 14919 O 1360.68 -0.255328 -1.94027 0
M  V30 14920 C 1360.98 -3.5035 -0.70638 0
M  V30 14921 C 1360.65 -4.48907 0.423429 0
M  V30 14922 C 1359.31 -4.75575 0.733586 0
M  V30 14923 C 1361.66 -5.07588 1.18338 0
M  V30 14924 C 1358.99 -5.58186 1.80679 0
M  V30 14925 C 1361.34 -5.91367 2.24651 0
M  V30 14926 C 1360.01 -6.16345 2.56272 0
M  V30 14927 H 1359.28 -0.732462 -0.112165 0
M  V30 14928 H 1361.92 -1.86798 0.421732 0
M  V30 14929 H 1360.23 -3.61335 -1.51474 0
M  V30 14930 H 1361.92 -3.82977 -1.18869 0
M  V30 14931 H 1358.51 -4.28256 0.171591 0
M  V30 14932 H 1362.7 -4.86985 0.957018 0
M  V30 14933 H 1357.95 -5.75776 2.05649 0
M  V30 14934 H 1362.13 -6.35862 2.83994 0
M  V30 14935 H 1359.76 -6.80148 3.39563 0
M  V30 14936 N 1361.33 -0.0301034 -1.57571 0
M  V30 14937 C 1362.26 0.980187 -2.07183 0
M  V30 14938 C 1363.28 1.2882 -0.995449 0
M  V30 14939 O 1364.46 1.25268 -1.27162 0
M  V30 14940 C 1361.56 2.30734 -2.48224 0
M  V30 14941 C 1360.74 2.18434 -3.78953 0
M  V30 14942 C 1359.8 3.34092 -4.06533 0
M  V30 14943 O 1358.82 3.10934 -4.76769 0
M  V30 14944 N 1360.02 4.57914 -3.56784 0
M  V30 14945 H 1362.79 0.556877 -2.94481 0
M  V30 14946 H 1360.35 0.156632 -1.61141 0
M  V30 14947 H 1362.34 3.06936 -2.63766 0
M  V30 14948 H 1360.91 2.64703 -1.66287 0
M  V30 14949 H 1360.13 1.26953 -3.73198 0
M  V30 14950 H 1361.42 2.07421 -4.64601 0
M  V30 14951 H 1360.82 4.79623 -2.99964 0
M  V30 14952 H 1359.38 5.31281 -3.77603 0
M  V30 14953 N 1362.81 1.55714 0.243056 0
M  V30 14954 C 1363.77 1.89832 1.28438 0
M  V30 14955 C 1364.77 0.775083 1.40887 0
M  V30 14956 O 1365.96 1.04304 1.39521 0
M  V30 14957 C 1363.09 2.13016 2.66153 0
M  V30 14958 H 1364.29 2.82947 0.994022 0
M  V30 14959 H 1361.84 1.48665 0.482521 0
M  V30 14960 H 1362.57 1.22381 3.00322 0
M  V30 14961 H 1362.36 2.94824 2.58498 0
M  V30 14962 H 1363.85 2.40581 3.41336 0
M  V30 14963 N 1364.29 -0.50888 1.49158 0
M  V30 14964 C 1365.25 -1.59354 1.64739 0
M  V30 14965 C 1366.25 -1.52175 0.519557 0
M  V30 14966 O 1367.44 -1.55468 0.785838 0
M  V30 14967 C 1364.57 -2.99002 1.63739 0
M  V30 14968 H 1365.76 -1.46871 2.61474 0
M  V30 14969 H 1363.32 -0.732532 1.38071 0
M  V30 14970 H 1364.05 -3.1697 0.685583 0
M  V30 14971 H 1363.84 -3.05622 2.45637 0
M  V30 14972 H 1365.33 -3.77822 1.77877 0
M  V30 14973 N 1365.76 -1.381 -0.759346 0
M  V30 14974 C 1367.01 -1.3419 -1.52055 0
M  V30 14975 C 1367.34 0.0697657 -1.94075 0
M  V30 14976 O 1366.62 1.02975 -1.65004 0
M  V30 14977 C 1366.9 -2.29236 -2.7771 0
M  V30 14978 C 1366.75 -3.79237 -2.41866 0
M  V30 14979 C 1368.07 -2.22511 -3.79706 0
M  V30 14980 H 1365.19 -0.488768 -0.551611 0
M  V30 14981 H 1367.83 -1.68902 -0.870174 0
M  V30 14982 H 1365.98 -1.99764 -3.33206 0
M  V30 14983 H 1367.66 -4.19358 -1.92189 0
M  V30 14984 H 1365.9 -3.97199 -1.74399 0
M  V30 14985 H 1366.57 -4.41193 -3.31742 0
M  V30 14986 H 1369.05 -2.48516 -3.33735 0
M  V30 14987 H 1367.92 -2.91134 -4.6533 0
M  V30 14988 H 1368.18 -1.22206 -4.24874 0
M  V30 14989 N 1367.24 0.986894 -1.22875 0
M  V30 14990 C 1368.15 2.11232 -1.02069 0
M  V30 14991 C 1369.17 1.73969 0.0328424 0
M  V30 14992 O 1370.34 2.00754 -0.161197 0
M  V30 14993 C 1367.41 3.41337 -0.60747 0
M  V30 14994 C 1366.47 3.92665 -1.73531 0
M  V30 14995 C 1365.7 5.1656 -1.34171 0
M  V30 14996 O 1365.93 5.69964 -0.223106 0
M  V30 14997 O 1364.86 5.61791 -2.16041 0
M  V30 14998 H 1368.69 2.3167 -1.96374 0
M  V30 14999 H 1366.27 1.09607 -1.01522 0
M  V30 15000 H 1368.15 4.19613 -0.387661 0
M  V30 15001 H 1366.83 3.22244 0.306653 0
M  V30 15002 H 1365.74 3.15534 -2.0097 0
M  V30 15003 H 1367.07 4.162 -2.62751 0
M  V30 15004 N 1368.72 1.0394 1.18466 0
M  V30 15005 C 1370.14 0.758404 1.40429 0
M  V30 15006 C 1370.34 -0.652603 1.90639 0
M  V30 15007 O 1369.39 -1.417 2.08991 0
M  V30 15008 C 1370.71 1.80343 2.40618 0
M  V30 15009 C 1372.25 1.82419 2.54347 0
M  V30 15010 C 1372.73 2.8591 3.57798 0
M  V30 15011 N 1374.22 2.84793 3.65304 0
M  V30 15012 C 1374.95 3.61521 4.45073 0
M  V30 15013 N 1374.45 4.47997 5.28461 0
M  V30 15014 N 1376.24 3.50016 4.39824 0
M  V30 15015 H 1368.39 1.94998 0.842 0
M  V30 15016 H 1370.66 0.843649 0.43239 0
M  V30 15017 H 1370.36 2.81547 2.10771 0
M  V30 15018 H 1370.24 1.63451 3.39947 0
M  V30 15019 H 1372.62 0.818872 2.83511 0
M  V30 15020 H 1372.71 2.03388 1.55136 0
M  V30 15021 H 1372.35 3.8662 3.29375 0
M  V30 15022 H 1372.28 2.62196 4.56684 0
M  V30 15023 H 1374.77 2.22082 3.05758 0
M  V30 15024 H 1375.08 5.03257 5.86475 0
M  V30 15025 H 1373.43 4.52065 5.27885 0
M  V30 15026 H 1376.62 2.81862 3.73726 0
M  V30 15027 H 1376.79 4.10063 5.0175 0
M  V30 15028 N 1370.2 -1.34667 0.818693 0
M  V30 15029 C 1371.45 -1.98414 0.404759 0
M  V30 15030 C 1371.77 -1.64919 -1.03112 0
M  V30 15031 O 1371.03 -0.910695 -1.73219 0
M  V30 15032 C 1371.33 -3.53157 0.549059 0
M  V30 15033 C 1370.99 -4.06552 1.95003 0
M  V30 15034 C 1369.66 -4.20846 2.33329 0
M  V30 15035 C 1372.01 -4.35324 2.86604 0
M  V30 15036 C 1369.34 -4.61236 3.62599 0
M  V30 15037 C 1371.69 -4.77159 4.15334 0
M  V30 15038 C 1370.35 -4.89658 4.53642 0
M  V30 15039 H 1369.62 -0.726047 0.148112 0
M  V30 15040 H 1372.27 -1.60681 1.04182 0
M  V30 15041 H 1370.57 -3.91425 -0.17141 0
M  V30 15042 H 1372.27 -4.00453 0.209374 0
M  V30 15043 H 1368.86 -3.95887 1.64231 0
M  V30 15044 H 1373.04 -4.23823 2.58239 0
M  V30 15045 H 1368.3 -4.69104 3.92112 0
M  V30 15046 H 1372.47 -4.98381 4.86404 0
M  V30 15047 H 1370.1 -5.20713 5.53861 0
M  V30 15048 N 1371.68 -0.573274 -1.46804 0
M  V30 15049 C 1372.92 -0.0553432 -2.02724 0
M  V30 15050 C 1373.26 1.29753 -1.44492 0
M  V30 15051 O 1372.53 1.84804 -0.606455 0
M  V30 15052 C 1372.81 0.0205511 -3.60094 0
M  V30 15053 C 1372.67 -1.36055 -4.2873 0
M  V30 15054 C 1373.99 0.725944 -4.34071 0
M  V30 15055 H 1371.1 -0.0215858 -0.736684 0
M  V30 15056 H 1373.75 -0.738657 -1.75054 0
M  V30 15057 H 1371.9 0.602481 -3.838 0
M  V30 15058 H 1373.57 -1.98692 -4.16316 0
M  V30 15059 H 1371.81 -1.93087 -3.88458 0
M  V30 15060 H 1372.48 -1.26001 -5.37427 0
M  V30 15061 H 1374.96 0.231677 -4.15455 0
M  V30 15062 H 1373.83 0.74805 -5.43779 0
M  V30 15063 H 1374.1 1.78536 -4.04447 0
M  V30 15064 N 1373.15 1.5451 -0.310553 0
M  V30 15065 C 1374.38 2.04442 0.297807 0
M  V30 15066 C 1374.79 1.18695 1.47337 0
M  V30 15067 O 1374.14 0.207405 1.82525 0
M  V30 15068 C 1374.2 3.50306 0.807851 0
M  V30 15069 C 1373.86 4.5635 -0.24369 0
M  V30 15070 C 1374.86 5.08656 -1.07539 0
M  V30 15071 C 1372.54 5.00798 -0.388138 0
M  V30 15072 C 1374.54 6.03961 -2.03738 0
M  V30 15073 C 1372.22 5.95921 -1.35357 0
M  V30 15074 C 1373.22 6.47387 -2.17667 0
M  V30 15075 O 1372.91 7.40644 -3.12571 0
M  V30 15076 H 1372.64 0.672646 0.0672525 0
M  V30 15077 H 1375.2 2.00389 -0.450948 0
M  V30 15078 H 1373.43 3.51714 1.6073 0
M  V30 15079 H 1375.12 3.83383 1.33314 0
M  V30 15080 H 1375.88 4.75105 -0.97471 0
M  V30 15081 H 1371.76 4.60361 0.242608 0
M  V30 15082 H 1375.3 6.44057 -2.68023 0
M  V30 15083 H 1371.2 6.2889 -1.45493 0
M  V30 15084 H 1371.97 7.58477 -3.0766 0
M  V30 15085 N 1374.63 0.0384594 1.57553 0
M  V30 15086 C 1375.86 -0.651613 1.96898 0
M  V30 15087 C 1376.28 -1.64328 0.915308 0
M  V30 15088 O 1375.64 -1.80883 -0.122824 0
M  V30 15089 C 1375.69 -1.32613 3.3533 0
M  V30 15090 O 1374.79 -2.44159 3.32355 0
M  V30 15091 H 1374.13 -0.170441 0.641752 0
M  V30 15092 H 1376.66 0.103086 2.0434 0
M  V30 15093 H 1376.67 -1.68076 3.71772 0
M  V30 15094 H 1375.35 -0.599275 4.1156 0
M  V30 15095 H 1373.93 -2.10738 3.07642 0
M  V30 15096 N 1376.11 -1.55841 -0.234795 0
M  V30 15097 C 1377.35 -1.80007 -0.968334 0
M  V30 15098 C 1377.72 -0.609903 -1.82055 0
M  V30 15099 O 1378.92 -0.730586 -2.58681 0
M  V30 15100 C 1377.19 -3.08991 -1.79609 0
M  V30 15101 S 1378.75 -3.54423 -2.58707 0
M  V30 15102 H 1375.56 -0.632112 -0.325508 0
M  V30 15103 H 1378.17 -1.94081 -0.235082 0
M  V30 15104 H 1376.87 -3.93667 -1.15993 0
M  V30 15105 H 1376.4 -2.97688 -2.57188 0
M  V30 15106 H 1378.42 -3.16713 -3.81978 0
M  V30 15107 N 1377.59 0.500963 -1.49426 0
M  V30 15108 C 1378.55 1.58478 -1.65582 0
M  V30 15109 C 1379.55 1.51897 -0.52762 0
M  V30 15110 O 1380.74 1.55049 -0.794071 0
M  V30 15111 C 1377.87 2.9813 -1.65322 0
M  V30 15112 H 1379.07 1.45483 -2.6225 0
M  V30 15113 H 1376.62 0.725199 -1.38458 0
M  V30 15114 H 1377.36 3.16602 -0.702384 0
M  V30 15115 H 1377.14 3.04315 -2.47255 0
M  V30 15116 H 1378.63 3.76874 -1.79878 0
M  V30 15117 N 1379.07 1.38501 0.752011 0
M  V30 15118 C 1380.32 1.34529 1.50819 0
M  V30 15119 C 1380.64 -0.0636155 1.94896 0
M  V30 15120 O 1379.91 -1.01161 1.6776 0
M  V30 15121 H 1378.49 0.49501 0.559441 0
M  V30 15122 H 1381.15 1.73196 0.893822 0
M  V30 15123 H 1380.24 1.99713 2.39835 0
M  V30 15124 N 1380.55 -0.980364 1.23396 0
M  V30 15125 C 1381.78 -1.75434 1.09117 0
M  V30 15126 C 1382.18 -1.85739 -0.360243 0
M  V30 15127 O 1381.53 -1.33585 -1.26098 0
M  V30 15128 C 1381.59 -3.19795 1.6423 0
M  V30 15129 C 1381.25 -3.32999 3.12986 0
M  V30 15130 C 1382.25 -3.19321 4.1028 0
M  V30 15131 C 1379.93 -3.57647 3.52695 0
M  V30 15132 C 1381.93 -3.30096 5.45266 0
M  V30 15133 C 1379.62 -3.68061 4.87826 0
M  V30 15134 C 1380.61 -3.54295 5.83921 0
M  V30 15135 O 1380.3 -3.6434 7.16597 0
M  V30 15136 H 1380.03 -0.557382 0.382494 0
M  V30 15137 H 1382.59 -1.24038 1.63718 0
M  V30 15138 H 1380.82 -3.72439 1.04049 0
M  V30 15139 H 1382.51 -3.78954 1.45427 0
M  V30 15140 H 1383.27 -3.00177 3.80945 0
M  V30 15141 H 1379.15 -3.67433 2.78413 0
M  V30 15142 H 1382.7 -3.19268 6.20253 0
M  V30 15143 H 1378.59 -3.86715 5.16838 0
M  V30 15144 H 1379.36 -3.81135 7.24347 0
M  V30 15145 N 1382.02 -1.04567 -1.17913 0
M  V30 15146 C 1383.26 -0.760977 -1.89706 0
M  V30 15147 C 1383.63 0.698804 -1.78832 0
M  V30 15148 O 1384.83 1.09733 -2.45382 0
M  V30 15149 C 1383.1 -1.22042 -3.35917 0
M  V30 15150 S 1384.66 -1.06214 -4.25751 0
M  V30 15151 H 1381.48 -0.276538 -0.655017 0
M  V30 15152 H 1384.08 -1.339 -1.42446 0
M  V30 15153 H 1382.78 -2.27813 -3.41364 0
M  V30 15154 H 1382.31 -0.636401 -3.88218 0
M  V30 15155 H 1384.33 0.0174486 -4.96197 0
M  V30 15156 N 1383.5 1.34231 -0.825823 0
M  V30 15157 C 1384.75 1.9849 -0.415891 0
M  V30 15158 C 1385.08 1.6531 1.01913 0
M  V30 15159 O 1384.36 0.926223 1.7103 0
M  V30 15160 C 1384.64 3.54691 -0.621785 0
M  V30 15161 C 1384.49 3.97603 -2.10313 0
M  V30 15162 C 1385.81 4.4006 -0.0595871 0
M  V30 15163 H 1382.93 0.721032 -0.152582 0
M  V30 15164 H 1385.57 1.5908 -1.03892 0
M  V30 15165 H 1383.72 3.88392 -0.0914439 0
M  V30 15166 H 1385.39 3.74221 -2.69733 0
M  V30 15167 H 1383.64 3.47809 -2.59251 0
M  V30 15168 H 1384.31 5.06352 -2.19799 0
M  V30 15169 H 1386.78 4.12929 -0.512743 0
M  V30 15170 H 1385.66 5.48403 -0.233431 0
M  V30 15171 H 1385.92 4.29798 1.03568 0
M  V30 15172 N 1384.98 0.581051 1.46498 0
M  V30 15173 C 1385.94 -0.142937 2.28754 0
M  V30 15174 C 1386.94 -0.820383 1.38298 0
M  V30 15175 O 1388.13 -0.672592 1.60692 0
M  V30 15176 C 1385.26 -1.21176 3.18637 0
M  V30 15177 H 1386.46 0.579918 2.9424 0
M  V30 15178 H 1384.01 0.338951 1.52581 0
M  V30 15179 H 1384.75 -1.96624 2.57894 0
M  V30 15180 H 1384.53 -0.730517 3.85235 0
M  V30 15181 H 1386.02 -1.71958 3.80552 0
M  V30 15182 N 1386.46 -1.54343 0.318742 0
M  V30 15183 C 1387.69 -2.04894 -0.287378 0
M  V30 15184 C 1388.1 -1.19514 -1.46157 0
M  V30 15185 O 1387.46 -0.224722 -1.81111 0
M  V30 15186 C 1387.51 -3.54124 -0.726505 0
M  V30 15187 O 1387.23 -4.36261 0.400968 0
M  V30 15188 C 1388.73 -4.20748 -1.39594 0
M  V30 15189 H 1385.95 -0.668323 -0.0598724 0
M  V30 15190 H 1388.49 -1.99177 0.463531 0
M  V30 15191 H 1386.65 -3.60145 -1.4274 0
M  V30 15192 H 1387.06 -5.2447 0.0558714 0
M  V30 15193 H 1388.54 -5.26632 -1.65418 0
M  V30 15194 H 1389.01 -3.71566 -2.3417 0
M  V30 15195 H 1389.62 -4.18852 -0.737749 0
M  V30 15196 N 1387.94 -0.0468143 -1.5753 0
M  V30 15197 C 1389.18 0.627939 -1.92518 0
M  V30 15198 C 1389.51 1.71107 -0.924801 0
M  V30 15199 O 1388.77 1.95597 0.0635812 0
M  V30 15200 C 1389.06 1.26669 -3.342 0
M  V30 15201 C 1388.73 0.312184 -4.49818 0
M  V30 15202 C 1387.39 0.0495202 -4.81175 0
M  V30 15203 C 1389.74 -0.342228 -5.20075 0
M  V30 15204 C 1387.07 -0.875064 -5.80137 0
M  V30 15205 C 1389.42 -1.25498 -6.20027 0
M  V30 15206 C 1388.09 -1.52636 -6.49814 0
M  V30 15207 H 1387.36 0.229779 -0.704473 0
M  V30 15208 H 1390.01 -0.112363 -1.9117 0
M  V30 15209 H 1388.31 2.08215 -3.31894 0
M  V30 15210 H 1390.01 1.79563 -3.5855 0
M  V30 15211 H 1386.6 0.527088 -4.25347 0
M  V30 15212 H 1390.78 -0.152384 -4.96066 0
M  V30 15213 H 1386.04 -1.09284 -6.01554 0
M  V30 15214 H 1390.21 -1.76815 -6.7358 0
M  V30 15215 H 1387.84 -2.24443 -7.26312 0
M  V30 15216 N 1389.41 1.55964 0.226527 0
M  V30 15217 C 1390.66 1.7901 0.95306 0
M  V30 15218 C 1390.99 0.615608 1.84184 0
M  V30 15219 O 1390.27 -0.385341 1.90645 0
M  V30 15220 C 1390.55 3.12101 1.79624 0
M  V30 15221 C 1390.4 4.3999 0.934286 0
M  V30 15222 C 1391.72 3.4159 2.77496 0
M  V30 15223 H 1388.84 0.651236 0.345052 0
M  V30 15224 H 1391.48 1.88696 0.222236 0
M  V30 15225 H 1389.63 3.03975 2.41933 0
M  V30 15226 H 1391.31 4.6013 0.328328 0
M  V30 15227 H 1389.55 4.33138 0.239487 0
M  V30 15228 H 1390.22 5.29541 1.55853 0
M  V30 15229 H 1392.7 3.49812 2.25323 0
M  V30 15230 H 1391.57 4.35894 3.33599 0
M  V30 15231 H 1391.83 2.6351 3.54986 0
M  V30 15232 N 1390.89 -0.493031 1.4969 0
M  V30 15233 C 1391.82 -1.60215 1.69863 0
M  V30 15234 C 1392.8 -1.61053 0.547362 0
M  V30 15235 O 1393.99 -1.77667 0.784093 0
M  V30 15236 C 1391.12 -2.98662 1.77252 0
M  V30 15237 C 1390.07 -3.1269 2.92248 0
M  V30 15238 C 1389.4 -4.52567 2.84758 0
M  V30 15239 C 1390.7 -2.91965 4.33074 0
M  V30 15240 H 1392.39 -1.43587 2.62723 0
M  V30 15241 H 1389.94 -0.689334 1.26429 0
M  V30 15242 H 1391.89 -3.7616 1.89951 0
M  V30 15243 H 1390.62 -3.16397 0.809976 0
M  V30 15244 H 1389.27 -2.37619 2.79164 0
M  V30 15245 H 1388.92 -4.6719 1.86394 0
M  V30 15246 H 1388.62 -4.62893 3.61944 0
M  V30 15247 H 1390.15 -5.32116 2.99475 0
M  V30 15248 H 1391.56 -3.59228 4.46798 0
M  V30 15249 H 1389.96 -3.13756 5.11544 0
M  V30 15250 H 1391.03 -1.88015 4.46966 0
M  V30 15251 N 1392.37 -1.38898 -0.744656 0
M  V30 15252 C 1393.62 -1.35327 -1.50104 0
M  V30 15253 C 1393.94 0.0532788 -1.94927 0
M  V30 15254 O 1393.21 1.0027 -1.68294 0
M  V30 15255 H 1391.79 -0.49797 -0.556808 0
M  V30 15256 H 1394.45 -1.73667 -0.884625 0
M  V30 15257 H 1393.55 -2.00983 -2.38773 0
M  V30 15258 N 1393.85 0.973806 -1.23914 0
M  V30 15259 C 1395.1 1.71027 -1.06923 0
M  V30 15260 C 1395.41 1.91612 0.392947 0
M  V30 15261 O 1396.62 2.62771 0.682927 0
M  V30 15262 C 1395.07 3.07811 -1.86496 0
M  V30 15263 C 1394.68 2.9509 -3.37085 0
M  V30 15264 C 1396.42 3.85371 -1.78015 0
M  V30 15265 C 1394.33 4.27145 -4.09024 0
M  V30 15266 H 1393.26 0.641329 -0.396501 0
M  V30 15267 H 1395.91 1.08562 -1.47941 0
M  V30 15268 H 1394.29 3.71069 -1.38288 0
M  V30 15269 H 1395.47 2.4088 -3.92827 0
M  V30 15270 H 1393.78 2.30999 -3.46451 0
M  V30 15271 H 1396.38 4.83147 -2.2907 0
M  V30 15272 H 1396.72 4.09594 -0.744196 0
M  V30 15273 H 1397.26 3.28827 -2.23869 0
M  V30 15274 H 1394 4.08117 -5.12953 0
M  V30 15275 H 1393.52 4.81194 -3.58068 0
M  V30 15276 H 1395.19 4.95798 -4.15685 0
M  V30 15277 N 1395.33 1.05191 1.17357 0
M  V30 15278 C 1396.57 0.760479 1.87246 0
M  V30 15279 C 1396.9 -0.714618 1.81434 0
M  V30 15280 O 1396.17 -1.51636 1.24029 0
M  V30 15281 H 1394.75 0.278317 0.693216 0
M  V30 15282 H 1397.41 1.33106 1.42369 0
M  V30 15283 H 1396.5 1.07542 2.92987 0
M  V30 15284 N 1396.8 -1.33791 0.83293 0
M  V30 15285 C 1398.08 -1.9248 0.347955 0
M  V30 15286 C 1398.46 -1.75978 -1.16597 0
M  V30 15287 O 1397.81 -1.14456 -1.97768 0
M  V30 15288 C 1398.02 -3.3998 0.78831 0
M  V30 15289 C 1399.37 -4.17131 0.7929 0
M  V30 15290 O 1400.39 -3.48607 0.731533 0
M  V30 15291 O 1399.25 -5.39446 0.875223 0
M  V30 15292 H 1396.34 -0.821264 0.0972309 0
M  V30 15293 H 1398.89 -1.42702 0.918387 0
M  V30 15294 H 1397.66 -3.45836 1.83065 0
M  V30 15295 H 1397.29 -3.97126 0.194123 0
M  V30 15296 N 1398.28 -0.588812 -1.46187 0
M  V30 15297 C 1399.7 -0.250962 -1.57615 0
M  V30 15298 C 1399.9 1.2467 -1.58302 0
M  V30 15299 O 1398.95 2.02876 -1.50325 0
M  V30 15300 C 1400.27 -0.905561 -2.8674 0
M  V30 15301 C 1401.82 -0.879721 -3.00383 0
M  V30 15302 C 1402.29 -1.51398 -4.32253 0
M  V30 15303 N 1403.78 -1.4786 -4.38967 0
M  V30 15304 C 1404.52 -1.93868 -5.39632 0
M  V30 15305 N 1404.01 -2.47876 -6.46938 0
M  V30 15306 N 1405.81 -1.84748 -5.30872 0
M  V30 15307 H 1397.96 -1.56148 -1.43985 0
M  V30 15308 H 1400.22 -0.653028 -0.68721 0
M  V30 15309 H 1399.93 -1.95935 -2.92066 0
M  V30 15310 H 1399.8 -0.417456 -3.74883 0
M  V30 15311 H 1402.19 0.165466 -2.94636 0
M  V30 15312 H 1402.27 -1.40591 -2.137 0
M  V30 15313 H 1401.91 -2.55839 -4.38758 0
M  V30 15314 H 1401.84 -0.962965 -5.17721 0
M  V30 15315 H 1404.33 -1.08387 -3.62023 0
M  V30 15316 H 1404.65 -2.80824 -7.1997 0
M  V30 15317 H 1402.99 -2.51905 -6.47741 0
M  V30 15318 H 1406.18 -1.42307 -4.45944 0
M  V30 15319 H 1406.35 -2.20919 -6.09179 0
M  V30 15320 N 1399.76 1.54172 -0.326923 0
M  V30 15321 C 1400.71 2.21189 0.553126 0
M  V30 15322 C 1401.69 1.19356 1.07903 0
M  V30 15323 O 1402.89 1.44972 1.01549 0
M  V30 15324 C 1400.02 2.97573 1.71188 0
M  V30 15325 C 1399.1 4.06748 1.20071 0
M  V30 15326 N 1399.49 5.0414 0.409473 0
M  V30 15327 C 1397.79 4.20759 1.47913 0
M  V30 15328 C 1398.49 5.81546 0.134036 0
M  V30 15329 N 1397.47 5.38796 0.721097 0
M  V30 15330 H 1401.27 2.93841 -0.0586462 0
M  V30 15331 H 1398.78 1.61855 -0.132947 0
M  V30 15332 H 1400.78 3.44072 2.35415 0
M  V30 15333 H 1399.44 2.26443 2.32709 0
M  V30 15334 H 1400.45 5.17874 0.0520181 0
M  V30 15335 H 1397.13 3.60844 2.09995 0
M  V30 15336 H 1398.52 6.70013 -0.503156 0
M  V30 15337 N 1401.24 0.0551678 1.57503 0
M  V30 15338 C 1402.19 -0.935665 2.12951 0
M  V30 15339 C 1403.18 -1.31954 1.06229 0
M  V30 15340 O 1404.39 -1.29873 1.24632 0
M  V30 15341 H 1400.76 -0.319618 0.680697 0
M  V30 15342 H 1402.73 -0.442937 2.95094 0
M  V30 15343 C 1401.48 -2.19977 2.69268 0
M  V30 15344 H 1400.8 -1.91319 3.51051 0
M  V30 15345 H 1402.24 -2.87456 3.11681 0
M  V30 15346 C 1400.7 -2.94714 1.63233 0
M  V30 15347 O 1401.23 -3.87803 1.04747 0
M  V30 15348 N 1399.44 -2.57518 1.34659 0
M  V30 15349 H 1398.99 -1.81894 1.82407 0
M  V30 15350 H 1398.94 -3.07829 0.639425 0
M  V30 15351 N 1402.72 -1.56081 -0.218252 0
M  V30 15352 C 1403.99 -1.70043 -0.966684 0
M  V30 15353 C 1404.37 -0.603372 -2.02293 0
M  V30 15354 O 1403.72 0.389138 -2.25162 0
M  V30 15355 C 1403.93 -3.11484 -1.57413 0
M  V30 15356 C 1405.28 -3.70995 -2.06513 0
M  V30 15357 O 1406.3 -3.14466 -1.67301 0
M  V30 15358 O 1405.16 -4.70156 -2.78596 0
M  V30 15359 H 1402.26 -0.692691 -0.451784 0
M  V30 15360 H 1404.8 -1.68398 -0.209774 0
M  V30 15361 H 1403.57 -3.8279 -0.811614 0
M  V30 15362 H 1403.2 -3.1726 -2.3965 0
M  V30 15363 N 1404.2 0.485086 -1.49949 0
M  V30 15364 C 1405.14 1.60559 -1.68296 0
M  V30 15365 C 1406.14 1.60264 -0.548802 0
M  V30 15366 O 1407.34 1.64581 -0.728905 0
M  V30 15367 H 1403.72 0.532529 -0.530958 0
M  V30 15368 H 1405.69 1.42242 -2.62316 0
M  V30 15369 C 1404.44 2.98596 -1.78145 0
M  V30 15370 H 1403.76 2.99536 -2.64799 0
M  V30 15371 H 1405.2 3.76492 -1.95012 0
M  V30 15372 C 1403.66 3.32708 -0.529828 0
M  V30 15373 O 1404.19 4.00281 0.337347 0
M  V30 15374 N 1402.4 2.87998 -0.388012 0
M  V30 15375 H 1401.94 2.33182 -1.0947 0
M  V30 15376 H 1401.9 3.11187 0.448307 0
M  V30 15377 N 1405.67 1.39291 0.737279 0
M  V30 15378 C 1406.92 1.35702 1.49224 0
M  V30 15379 C 1407.24 -0.0450282 1.95548 0
M  V30 15380 O 1408.44 -0.203495 2.70736 0
M  V30 15381 C 1406.9 2.38387 2.69629 0
M  V30 15382 C 1406.51 3.84295 2.30263 0
M  V30 15383 C 1408.25 2.4387 3.47459 0
M  V30 15384 C 1406.16 4.78626 3.47377 0
M  V30 15385 H 1405.09 0.50449 0.560362 0
M  V30 15386 H 1407.74 1.64926 0.804466 0
M  V30 15387 H 1406.12 2.0223 3.40469 0
M  V30 15388 H 1407.29 4.2948 1.66984 0
M  V30 15389 H 1405.61 3.82085 1.6553 0
M  V30 15390 H 1408.21 3.11539 4.34566 0
M  V30 15391 H 1408.55 1.46253 3.89764 0
M  V30 15392 H 1409.08 2.78908 2.83646 0
M  V30 15393 H 1405.82 5.77497 3.10124 0
M  V30 15394 H 1405.34 4.38123 4.09645 0
M  V30 15395 H 1407.02 4.9742 4.13742 0
M  V30 15396 N 1407.15 -0.967221 1.24429 0
M  V30 15397 C 1408.08 -2.06071 0.980314 0
M  V30 15398 C 1409.06 -1.62372 -0.0860829 0
M  V30 15399 O 1410.25 -1.88431 0.0509524 0
M  V30 15400 C 1407.37 -3.35289 0.479452 0
M  V30 15401 C 1406.42 -3.9794 1.53447 0
M  V30 15402 S 1407.25 -4.3551 3.11595 0
M  V30 15403 C 1408.41 -5.67865 2.63212 0
M  V30 15404 H 1408.64 -2.28145 1.90623 0
M  V30 15405 H 1406.17 -1.10519 1.07819 0
M  V30 15406 H 1408.13 -4.10027 0.197103 0
M  V30 15407 H 1406.79 -3.11201 -0.425755 0
M  V30 15408 H 1405.99 -4.91067 1.13445 0
M  V30 15409 H 1405.59 -3.29634 1.76685 0
M  V30 15410 H 1407.88 -6.45405 2.06054 0
M  V30 15411 H 1408.82 -6.12724 3.5493 0
M  V30 15412 H 1409.23 -5.26496 2.03623 0
M  V30 15413 N 1408.63 -1.05812 -1.16797 0
M  V30 15414 C 1409.88 -0.767008 -1.86547 0
M  V30 15415 C 1410.19 0.708979 -1.82299 0
M  V30 15416 O 1411.4 1.11428 -2.4758 0
M  V30 15417 C 1409.85 -1.32186 -3.34746 0
M  V30 15418 C 1409.46 -2.82774 -3.4748 0
M  V30 15419 C 1411.21 -1.10808 -4.09783 0
M  V30 15420 C 1409.11 -3.31529 -4.89737 0
M  V30 15421 H 1408.04 -0.283235 -0.698781 0
M  V30 15422 H 1410.69 -1.27621 -1.31853 0
M  V30 15423 H 1409.08 -0.740453 -3.89016 0
M  V30 15424 H 1410.25 -3.46825 -3.03396 0
M  V30 15425 H 1408.56 -3.02765 -2.85871 0
M  V30 15426 H 1411.16 -1.44728 -5.14741 0
M  V30 15427 H 1411.5 -0.046167 -4.16274 0
M  V30 15428 H 1412.04 -1.65502 -3.61737 0
M  V30 15429 H 1408.78 -4.37177 -4.88422 0
M  V30 15430 H 1408.3 -2.72224 -5.34466 0
M  V30 15431 H 1409.98 -3.26572 -5.58534 0
M  V30 15432 N 1410.11 1.33347 -0.840014 0
M  V30 15433 C 1411.34 2.01952 -0.449793 0
M  V30 15434 C 1411.75 1.63197 0.949317 0
M  V30 15435 O 1411.11 0.84589 1.61713 0
M  V30 15436 C 1411.16 3.57102 -0.562178 0
M  V30 15437 O 1410.88 3.94458 -1.90616 0
M  V30 15438 C 1412.38 4.42978 -0.169062 0
M  V30 15439 H 1409.6 0.646843 -0.178425 0
M  V30 15440 H 1412.14 1.70251 -1.1329 0
M  V30 15441 H 1410.3 3.87331 0.0730345 0
M  V30 15442 H 1410.71 4.89167 -1.8925 0
M  V30 15443 H 1412.19 5.51191 -0.298742 0
M  V30 15444 H 1412.66 4.30106 0.889137 0
M  V30 15445 H 1413.27 4.18109 -0.778756 0
M  V30 15446 N 1411.59 0.596556 1.45873 0
M  V30 15447 C 1412.5 -0.130832 2.34235 0
M  V30 15448 C 1413.51 -0.871805 1.50584 0
M  V30 15449 O 1414.69 -0.831877 1.83417 0
M  V30 15450 C 1411.75 -1.12279 3.28016 0
M  V30 15451 C 1410.81 -0.384982 4.2757 0
M  V30 15452 C 1410.05 -1.32969 5.1687 0
M  V30 15453 O 1410.27 -2.56696 5.09375 0
M  V30 15454 O 1409.2 -0.832741 5.96112 0
M  V30 15455 H 1413.03 0.59503 2.97814 0
M  V30 15456 H 1410.61 0.356873 1.45075 0
M  V30 15457 H 1412.5 -1.6944 3.85834 0
M  V30 15458 H 1411.17 -1.82988 2.67015 0
M  V30 15459 H 1410.08 0.228816 3.734 0
M  V30 15460 H 1411.41 0.281398 4.91395 0
M  V30 15461 N 1413.06 -1.53996 0.335095 0
M  V30 15462 C 1414.29 -2.05188 -0.26563 0
M  V30 15463 C 1414.71 -1.21058 -1.44881 0
M  V30 15464 O 1414.06 -0.243919 -1.80863 0
M  V30 15465 C 1414.11 -3.54875 -0.688904 0
M  V30 15466 O 1413.84 -4.35811 0.447217 0
M  V30 15467 C 1415.34 -4.22204 -1.35123 0
M  V30 15468 H 1412.56 -0.668921 -0.0527806 0
M  V30 15469 H 1415.1 -1.98675 0.48463 0
M  V30 15470 H 1413.26 -3.61638 -1.38912 0
M  V30 15471 H 1413.67 -5.24381 0.111495 0
M  V30 15472 H 1415.14 -5.28356 -1.59823 0
M  V30 15473 H 1415.62 -3.74029 -2.30216 0
M  V30 15474 H 1416.23 -4.19611 -0.693283 0
M  V30 15475 N 1414.54 -0.0635198 -1.57472 0
M  V30 15476 C 1415.79 0.606285 -1.92792 0
M  V30 15477 C 1416.11 1.70648 -0.943615 0
M  V30 15478 O 1415.38 1.95898 0.00957612 0
M  V30 15479 H 1413.96 0.226943 -0.711692 0
M  V30 15480 H 1416.62 -0.119429 -1.94534 0
M  V30 15481 H 1415.72 1.03694 -2.9437 0
M  V30 15482 N 1416.02 1.56195 0.209972 0
M  V30 15483 C 1416.97 1.94226 1.27981 0
M  V30 15484 C 1417.96 0.825742 1.47912 0
M  V30 15485 O 1419.17 1.01066 1.48949 0
M  V30 15486 H 1415.54 0.617395 0.429333 0
M  V30 15487 H 1417.51 2.83474 0.931946 0
M  V30 15488 C 1416.26 2.28527 2.62051 0
M  V30 15489 H 1415.59 3.1396 2.47526 0
M  V30 15490 H 1417.03 2.59012 3.35692 0
M  V30 15491 C 1415.48 1.11452 3.17931 0
M  V30 15492 O 1416.01 0.381713 3.99882 0
M  V30 15493 N 1414.22 0.895263 2.76466 0
M  V30 15494 H 1413.77 1.4929 2.09929 0
M  V30 15495 H 1413.73 0.113688 3.14194 0
M  V30 15496 N 1417.5 -0.477127 1.50204 0
M  V30 15497 C 1418.43 -1.58405 1.71552 0
M  V30 15498 C 1419.41 -1.60463 0.564413 0
M  V30 15499 O 1420.59 -1.76826 0.802893 0
M  V30 15500 C 1417.72 -2.96765 1.8041 0
M  V30 15501 C 1416.68 -3.09573 2.95548 0
M  V30 15502 C 1416 -4.49522 2.89542 0
M  V30 15503 C 1417.3 -2.87356 4.36147 0
M  V30 15504 H 1419 -1.40792 2.64231 0
M  V30 15505 H 1416.54 -0.675886 1.27153 0
M  V30 15506 H 1418.5 -3.74125 1.9393 0
M  V30 15507 H 1417.22 -3.1552 0.843489 0
M  V30 15508 H 1415.88 -2.34645 2.81669 0
M  V30 15509 H 1415.53 -4.65186 1.91339 0
M  V30 15510 H 1415.23 -4.59028 3.66834 0
M  V30 15511 H 1416.75 -5.28909 3.05102 0
M  V30 15512 H 1418.17 -3.54469 4.50583 0
M  V30 15513 H 1416.56 -3.08313 5.14843 0
M  V30 15514 H 1417.63 -1.83264 4.48935 0
M  V30 15515 N 1418.98 -1.3968 -0.729882 0
M  V30 15516 C 1420.22 -1.37182 -1.48954 0
M  V30 15517 C 1420.55 0.0305728 -1.94476 0
M  V30 15518 O 1419.81 1.0124 -1.67478 0
M  V30 15519 C 1420.11 -2.29499 -2.7398 0
M  V30 15520 C 1419.77 -3.77034 -2.47298 0
M  V30 15521 C 1418.43 -4.17232 -2.39731 0
M  V30 15522 C 1420.79 -4.70325 -2.24597 0
M  V30 15523 C 1418.11 -5.48777 -2.07511 0
M  V30 15524 C 1420.47 -6.02153 -1.93893 0
M  V30 15525 C 1419.13 -6.41409 -1.84798 0
M  V30 15526 H 1418.4 -0.501985 -0.545061 0
M  V30 15527 H 1421.05 -1.72226 -0.837294 0
M  V30 15528 H 1419.35 -1.87592 -3.43972 0
M  V30 15529 H 1421.05 -2.24857 -3.32024 0
M  V30 15530 H 1417.64 -3.45177 -2.54069 0
M  V30 15531 H 1421.82 -4.40097 -2.29408 0
M  V30 15532 H 1417.08 -5.78109 -1.98996 0
M  V30 15533 H 1421.25 -6.73966 -1.75337 0
M  V30 15534 H 1418.88 -7.43258 -1.59598 0
M  V30 15535 N 1420.45 0.960609 -1.2494 0
M  V30 15536 C 1421.4 2.04164 -1.01493 0
M  V30 15537 C 1422.39 1.60834 0.0461124 0
M  V30 15538 O 1423.58 1.76196 -0.168491 0
M  V30 15539 C 1420.71 3.37484 -0.629251 0
M  V30 15540 C 1419.8 3.87356 -1.72674 0
M  V30 15541 N 1420.19 4.10085 -2.9608 0
M  V30 15542 C 1418.48 4.16086 -1.60589 0
M  V30 15543 C 1419.19 4.51091 -3.67276 0
M  V30 15544 N 1418.16 4.56676 -2.9487 0
M  V30 15545 H 1421.96 2.19723 -1.95189 0
M  V30 15546 H 1419.48 1.14496 -1.15171 0
M  V30 15547 H 1421.47 4.14545 -0.442484 0
M  V30 15548 H 1420.13 3.23307 0.300446 0
M  V30 15549 H 1421.15 3.97331 -3.32187 0
M  V30 15550 H 1417.82 4.10804 -0.744725 0
M  V30 15551 H 1419.21 4.77031 -4.73172 0
M  V30 15552 N 1421.93 1.0643 1.16234 0
M  V30 15553 C 1423.18 0.77689 1.86138 0
M  V30 15554 C 1423.49 -0.699301 1.82672 0
M  V30 15555 O 1424.7 -1.10113 2.48168 0
M  V30 15556 C 1423.16 1.3396 3.3404 0
M  V30 15557 C 1422.76 2.84613 3.45976 0
M  V30 15558 C 1424.51 1.12979 4.09189 0
M  V30 15559 C 1422.42 3.34122 4.87972 0
M  V30 15560 H 1421.35 0.286936 0.697269 0
M  V30 15561 H 1424 1.28318 1.31174 0
M  V30 15562 H 1422.38 0.761073 3.88618 0
M  V30 15563 H 1423.55 3.48429 3.01552 0
M  V30 15564 H 1421.87 3.04277 2.84262 0
M  V30 15565 H 1424.46 1.47456 5.13966 0
M  V30 15566 H 1424.81 0.0682424 4.16244 0
M  V30 15567 H 1425.34 1.67418 3.60855 0
M  V30 15568 H 1422.08 4.39761 4.86097 0
M  V30 15569 H 1421.6 2.75055 5.33015 0
M  V30 15570 H 1423.28 3.29529 5.56794 0
M  V30 15571 N 1423.41 -1.329 0.847073 0
M  V30 15572 C 1424.69 -1.921 0.368351 0
M  V30 15573 C 1425.07 -1.77205 -1.14724 0
M  V30 15574 O 1424.42 -1.16547 -1.96543 0
M  V30 15575 C 1424.63 -3.39125 0.824326 0
M  V30 15576 C 1425.97 -4.16267 0.837097 0
M  V30 15577 O 1427 -3.47812 0.768466 0
M  V30 15578 O 1425.86 -5.38487 0.932389 0
M  V30 15579 H 1422.95 -0.820187 0.105936 0
M  V30 15580 H 1425.5 -1.41719 0.933471 0
M  V30 15581 H 1424.27 -3.43875 1.86723 0
M  V30 15582 H 1423.89 -3.96898 0.236233 0
M  V30 15583 N 1424.89 -0.604284 -1.45555 0
M  V30 15584 C 1426.14 -0.0981861 -2.02262 0
M  V30 15585 C 1426.46 1.27002 -1.47312 0
M  V30 15586 O 1425.72 1.85058 -0.636563 0
M  V30 15587 C 1426.02 -0.00538243 -3.574 0
M  V30 15588 C 1425.68 -1.30881 -4.31487 0
M  V30 15589 C 1424.35 -1.66586 -4.51445 0
M  V30 15590 C 1426.7 -2.17039 -4.7386 0
M  V30 15591 C 1424.03 -2.88207 -5.11032 0
M  V30 15592 C 1426.38 -3.37905 -5.34792 0
M  V30 15593 C 1425.04 -3.73866 -5.52974 0
M  V30 15594 H 1424.31 -0.0359289 -0.740128 0
M  V30 15595 H 1426.96 -0.785241 -1.7466 0
M  V30 15596 H 1425.26 0.764919 -3.84261 0
M  V30 15597 H 1426.96 0.402303 -3.98977 0
M  V30 15598 H 1423.55 -1.0209 -4.16264 0
M  V30 15599 H 1427.73 -1.90754 -4.58177 0
M  V30 15600 H 1422.99 -3.16179 -5.23298 0
M  V30 15601 H 1427.16 -4.0492 -5.6658 0
M  V30 15602 H 1424.79 -4.68194 -5.98914 0
M  V30 15603 N 1426.37 1.53816 -0.343257 0
M  V30 15604 C 1427.61 2.00512 0.252845 0
M  V30 15605 C 1427.94 1.23274 1.51091 0
M  V30 15606 O 1427.21 0.339841 1.9293 0
M  V30 15607 H 1425.79 0.740751 0.0964202 0
M  V30 15608 H 1428.45 1.89288 -0.464347 0
M  V30 15609 H 1427.54 3.08142 0.495499 0
M  V30 15610 N 1427.84 0.0718701 1.57436 0
M  V30 15611 C 1428.79 -0.905443 2.0925 0
M  V30 15612 C 1429.78 -1.25875 1.00221 0
M  V30 15613 O 1430.97 -1.23771 1.26529 0
M  V30 15614 C 1428.1 -2.17298 2.65775 0
M  V30 15615 C 1427.19 -1.84614 3.81809 0
M  V30 15616 N 1427.58 -1.22381 4.90771 0
M  V30 15617 C 1425.87 -2.14364 3.91106 0
M  V30 15618 C 1426.58 -1.07791 5.71626 0
M  V30 15619 N 1425.55 -1.58764 5.19899 0
M  V30 15620 H 1429.35 -0.419955 2.90884 0
M  V30 15621 H 1426.87 -0.132017 1.61863 0
M  V30 15622 H 1428.86 -2.88231 3.01211 0
M  V30 15623 H 1427.52 -2.66434 1.85588 0
M  V30 15624 H 1428.54 -0.89345 5.10135 0
M  V30 15625 H 1425.21 -2.65877 3.21894 0
M  V30 15626 H 1426.6 -0.593061 6.69278 0
M  V30 15627 N 1429.32 -1.56304 -0.201686 0
M  V30 15628 C 1430.57 -1.79433 -0.921241 0
M  V30 15629 C 1430.88 -0.643943 -1.84696 0
M  V30 15630 O 1432.09 -0.759359 -2.60665 0
M  V30 15631 C 1430.55 -3.17835 -1.68846 0
M  V30 15632 C 1430.15 -4.40655 -0.807892 0
M  V30 15633 C 1431.9 -3.50277 -2.39805 0
M  V30 15634 C 1429.81 -5.7008 -1.5736 0
M  V30 15635 H 1428.74 -0.669029 -0.34773 0
M  V30 15636 H 1431.39 -1.82667 -0.174657 0
M  V30 15637 H 1429.77 -3.08832 -2.47869 0
M  V30 15638 H 1430.94 -4.60765 -0.0567923 0
M  V30 15639 H 1429.26 -4.15873 -0.209465 0
M  V30 15640 H 1431.85 -4.44207 -2.97631 0
M  V30 15641 H 1432.2 -2.7371 -3.1367 0
M  V30 15642 H 1432.73 -3.60698 -1.67754 0
M  V30 15643 H 1429.47 -6.49595 -0.877855 0
M  V30 15644 H 1428.99 -5.53999 -2.2988 0
M  V30 15645 H 1430.67 -6.10964 -2.12912 0
M  V30 15646 N 1430.8 0.469154 -1.50455 0
M  V30 15647 C 1431.73 1.57493 -1.7239 0
M  V30 15648 C 1432.71 1.60161 -0.572915 0
M  V30 15649 O 1433.9 1.76397 -0.812259 0
M  V30 15650 C 1431.03 2.95804 -1.81981 0
M  V30 15651 C 1429.98 3.08001 -2.97185 0
M  V30 15652 C 1429.31 4.4798 -2.91922 0
M  V30 15653 C 1430.61 2.85039 -4.37665 0
M  V30 15654 H 1432.3 1.39389 -2.64974 0
M  V30 15655 H 1429.85 0.669133 -1.27509 0
M  V30 15656 H 1431.8 3.73091 -1.95911 0
M  V30 15657 H 1430.52 3.15068 -0.86021 0
M  V30 15658 H 1429.18 2.33148 -2.82909 0
M  V30 15659 H 1428.83 4.64165 -1.93803 0
M  V30 15660 H 1428.53 4.57076 -3.69263 0
M  V30 15661 H 1430.05 5.27284 -3.07903 0
M  V30 15662 H 1431.47 3.52074 -4.52456 0
M  V30 15663 H 1429.87 3.05578 -5.16471 0
M  V30 15664 H 1430.94 1.8088 -4.499 0
M  V30 15665 N 1432.28 1.40065 0.722464 0
M  V30 15666 C 1433.53 1.37698 1.47932 0
M  V30 15667 C 1433.85 -0.0222608 1.94987 0
M  V30 15668 O 1433.12 -0.975795 1.69868 0
M  V30 15669 H 1431.7 0.506766 0.548815 0
M  V30 15670 H 1434.36 1.75053 0.856884 0
M  V30 15671 H 1433.46 2.04756 2.35545 0
M  V30 15672 N 1433.76 -0.95397 1.25448 0
M  V30 15673 C 1434.71 -2.07206 1.05681 0
M  V30 15674 C 1435.7 -1.69395 -0.0124672 0
M  V30 15675 O 1436.91 -1.79429 0.143201 0
M  V30 15676 H 1433.28 -0.678231 0.324817 0
M  V30 15677 H 1435.25 -2.21034 2.00466 0
M  V30 15678 C 1434 -3.40725 0.692955 0
M  V30 15679 H 1433.32 -3.70287 1.50756 0
M  V30 15680 H 1434.76 -4.19814 0.594351 0
M  V30 15681 C 1433.22 -3.31495 -0.601028 0
M  V30 15682 O 1433.75 -3.66565 -1.64296 0
M  V30 15683 N 1431.96 -2.84612 -0.586899 0
M  V30 15684 H 1431.51 -2.56271 0.261375 0
M  V30 15685 H 1431.46 -2.78819 -1.45284 0
M  V30 15686 N 1435.24 -1.07045 -1.15668 0
M  V30 15687 C 1436.47 -0.811567 -1.89992 0
M  V30 15688 C 1436.87 0.638628 -1.78096 0
M  V30 15689 O 1436.22 1.44953 -1.12846 0
M  V30 15690 C 1436.28 -1.13665 -3.41058 0
M  V30 15691 C 1435.94 -2.58681 -3.7674 0
M  V30 15692 C 1436.94 -3.56923 -3.78023 0
M  V30 15693 C 1434.62 -2.94178 -4.07142 0
M  V30 15694 C 1436.62 -4.88699 -4.09209 0
M  V30 15695 C 1434.31 -4.26152 -4.37993 0
M  V30 15696 C 1435.3 -5.23222 -4.39007 0
M  V30 15697 O 1434.99 -6.52826 -4.6912 0
M  V30 15698 H 1434.72 -0.293243 -0.609085 0
M  V30 15699 H 1437.28 -1.42941 -1.47502 0
M  V30 15700 H 1435.51 -0.461762 -3.83933 0
M  V30 15701 H 1437.2 -0.860808 -3.96667 0
M  V30 15702 H 1437.96 -3.30842 -3.54639 0
M  V30 15703 H 1433.84 -2.19272 -4.05513 0
M  V30 15704 H 1437.39 -5.6446 -4.09915 0
M  V30 15705 H 1433.28 -4.51988 -4.60844 0
M  V30 15706 H 1434.05 -6.5793 -4.86898 0
M  V30 15707 N 1436.71 1.32449 -0.85411 0
M  V30 15708 C 1437.66 2.2889 -0.296341 0
M  V30 15709 C 1438.63 1.55024 0.596378 0
M  V30 15710 O 1439.82 1.8325 0.531406 0
M  V30 15711 C 1436.96 3.41315 0.509729 0
M  V30 15712 C 1436.07 4.30062 -0.40872 0
M  V30 15713 C 1435.2 5.29616 0.409928 0
M  V30 15714 C 1434.24 6.10005 -0.505953 0
M  V30 15715 N 1433.38 7.01559 0.275483 0
M  V30 15716 H 1438.22 2.75989 -1.12401 0
M  V30 15717 H 1435.76 1.35787 -0.565717 0
M  V30 15718 H 1437.71 4.05218 0.992697 0
M  V30 15719 H 1436.34 2.95367 1.30223 0
M  V30 15720 H 1435.4 3.66745 -1.01007 0
M  V30 15721 H 1436.71 4.86255 -1.11165 0
M  V30 15722 H 1435.86 5.99119 0.956083 0
M  V30 15723 H 1434.6 4.74039 1.14623 0
M  V30 15724 H 1433.61 5.39406 -1.064 0
M  V30 15725 H 1434.83 6.67667 -1.24086 0
M  V30 15726 H 1432.78 6.48412 0.994887 0
M  V30 15727 H 1432.69 7.55102 -0.368426 0
M  V30 15728 H 1433.96 7.75349 0.803382 0
M  V30 15729 N 1438.19 0.611994 1.45232 0
M  V30 15730 C 1439.42 0.113618 2.07089 0
M  V30 15731 C 1439.84 -1.1947 1.45288 0
M  V30 15732 O 1439.2 -1.72845 0.547207 0
M  V30 15733 C 1439.25 -0.00789978 3.60599 0
M  V30 15734 O 1438.35 -1.05697 3.98625 0
M  V30 15735 H 1437.69 0.076066 0.659629 0
M  V30 15736 H 1440.22 0.843253 1.86415 0
M  V30 15737 H 1440.23 -0.204692 4.07486 0
M  V30 15738 H 1438.91 0.947386 4.04966 0
M  V30 15739 H 1437.48 -0.836291 3.63401 0
M  V30 15740 N 1439.67 -1.53632 0.351409 0
M  V30 15741 C 1440.92 -2.0104 -0.242687 0
M  V30 15742 C 1441.24 -1.23906 -1.49925 0
M  V30 15743 O 1440.5 -0.316927 -1.93117 0
M  V30 15744 C 1440.8 -3.5242 -0.594561 0
M  V30 15745 C 1440.46 -4.47333 0.566031 0
M  V30 15746 C 1439.13 -4.73001 0.884515 0
M  V30 15747 C 1441.48 -5.03566 1.34426 0
M  V30 15748 C 1438.81 -5.52156 1.98346 0
M  V30 15749 C 1441.16 -5.8392 2.43351 0
M  V30 15750 C 1439.82 -6.0788 2.7575 0
M  V30 15751 H 1439.09 -0.735659 -0.0888056 0
M  V30 15752 H 1441.74 -1.85362 0.480948 0
M  V30 15753 H 1440.04 -3.65971 -1.39902 0
M  V30 15754 H 1441.74 -3.86565 -1.06625 0
M  V30 15755 H 1438.33 -4.27494 0.307751 0
M  V30 15756 H 1442.52 -4.83694 1.11146 0
M  V30 15757 H 1437.77 -5.68942 2.23863 0
M  V30 15758 H 1441.95 -6.26505 3.04079 0
M  V30 15759 H 1439.57 -6.69001 3.61029 0
M  V30 15760 N 1441.15 -0.0802183 -1.57396 0
M  V30 15761 C 1442.08 0.881426 -2.16225 0
M  V30 15762 C 1443.06 1.30459 -1.09154 0
M  V30 15763 O 1444.24 1.37413 -1.37227 0
M  V30 15764 C 1441.37 2.14599 -2.73065 0
M  V30 15765 C 1440.33 1.86195 -3.85377 0
M  V30 15766 C 1439.65 3.19354 -4.28856 0
M  V30 15767 C 1440.95 1.16059 -5.09242 0
M  V30 15768 H 1442.65 0.391325 -2.96832 0
M  V30 15769 H 1440.19 0.186785 -1.42783 0
M  V30 15770 H 1442.15 2.82297 -3.12868 0
M  V30 15771 H 1440.87 2.65866 -1.89691 0
M  V30 15772 H 1439.53 1.209 -3.46091 0
M  V30 15773 H 1439.18 3.68479 -3.42392 0
M  V30 15774 H 1438.88 3.01137 -5.04569 0
M  V30 15775 H 1440.4 3.88235 -4.71281 0
M  V30 15776 H 1441.82 1.7384 -5.46308 0
M  V30 15777 H 1440.21 1.08072 -5.90288 0
M  V30 15778 H 1441.28 0.14098 -4.84695 0
M  V30 15779 N 1442.63 1.56409 0.193394 0
M  V30 15780 C 1443.87 1.80367 0.911717 0
M  V30 15781 C 1444.19 0.653561 1.83721 0
M  V30 15782 O 1443.46 -0.328001 1.93135 0
M  V30 15783 H 1442.04 0.665316 0.339652 0
M  V30 15784 H 1444.71 1.93887 0.198496 0
M  V30 15785 H 1443.8 2.7359 1.50182 0
M  V30 15786 N 1444.1 -0.461169 1.50702 0
M  V30 15787 C 1445.35 -1.20934 1.61425 0
M  V30 15788 C 1445.67 -1.92884 0.32481 0
M  V30 15789 O 1446.87 -2.69712 0.311081 0
M  V30 15790 C 1445.33 -2.19797 2.84987 0
M  V30 15791 C 1444.94 -1.53604 4.20844 0
M  V30 15792 C 1446.68 -2.95194 3.05059 0
M  V30 15793 C 1444.59 -2.50811 5.35582 0
M  V30 15794 H 1443.52 -0.455088 0.601174 0
M  V30 15795 H 1446.17 -0.478771 1.77144 0
M  V30 15796 H 1444.55 -2.96187 2.62848 0
M  V30 15797 H 1445.72 -0.829345 4.53275 0
M  V30 15798 H 1444.04 -0.904504 4.06457 0
M  V30 15799 H 1446.64 -3.67965 3.87951 0
M  V30 15800 H 1446.98 -3.5516 2.1718 0
M  V30 15801 H 1447.51 -2.25915 3.27425 0
M  V30 15802 H 1444.25 -1.9557 6.25646 0
M  V30 15803 H 1443.77 -3.19604 5.07556 0
M  V30 15804 H 1445.45 -3.12437 5.66561 0
M  V30 15805 N 1445.58 -1.40446 -0.715026 0
M  V30 15806 C 1446.53 -1.40931 -1.85044 0
M  V30 15807 C 1447.52 -0.289745 -1.66904 0
M  V30 15808 O 1448.73 -0.460809 -1.74002 0
M  V30 15809 H 1445.1 -0.440534 -0.609454 0
M  V30 15810 H 1447.08 -2.36662 -1.81752 0
M  V30 15811 C 1445.82 -1.28933 -3.22911 0
M  V30 15812 H 1445.15 -2.14359 -3.37476 0
M  V30 15813 H 1446.59 -1.33331 -4.02491 0
M  V30 15814 C 1445.05 0.000379936 -3.369 0
M  V30 15815 O 1445.58 0.963093 -3.89984 0
M  V30 15816 N 1443.78 0.0700649 -2.90516 0
M  V30 15817 H 1443.33 -0.714088 -2.47505 0
M  V30 15818 H 1443.29 0.932457 -3.00254 0
M  V30 15819 N 1447.06 0.947303 -1.25952 0
M  V30 15820 C 1448.01 2.04511 -1.06976 0
M  V30 15821 C 1448.98 1.66084 0.023347 0
M  V30 15822 O 1450.16 1.9032 -0.135247 0
M  V30 15823 C 1447.3 3.37878 -0.70232 0
M  V30 15824 C 1446.41 3.89379 -1.87105 0
M  V30 15825 C 1445.55 5.11104 -1.44728 0
M  V30 15826 C 1444.59 5.54852 -2.58469 0
M  V30 15827 N 1443.73 6.67784 -2.16817 0
M  V30 15828 H 1448.57 2.20075 -2.00925 0
M  V30 15829 H 1446.1 1.07837 -1.00048 0
M  V30 15830 H 1448.06 4.14542 -0.470199 0
M  V30 15831 H 1446.69 3.22179 0.20019 0
M  V30 15832 H 1445.74 3.09169 -2.21627 0
M  V30 15833 H 1447.05 4.17789 -2.72496 0
M  V30 15834 H 1446.21 5.95208 -1.17525 0
M  V30 15835 H 1444.95 4.84426 -0.564191 0
M  V30 15836 H 1443.95 4.69308 -2.86409 0
M  V30 15837 H 1445.18 5.83534 -3.47368 0
M  V30 15838 H 1443.12 6.428 -1.30934 0
M  V30 15839 H 1443.04 6.95749 -2.95753 0
M  V30 15840 H 1444.31 7.55278 -1.92809 0
M  V30 15841 N 1448.54 1.07657 1.15099 0
M  V30 15842 C 1449.45 0.711198 2.2356 0
M  V30 15843 C 1450.46 -0.278932 1.7175 0
M  V30 15844 O 1451.64 -0.124788 2.01013 0
M  V30 15845 C 1448.71 0.117855 3.465 0
M  V30 15846 C 1447.77 1.16162 4.13286 0
M  V30 15847 C 1447 0.596494 5.30356 0
M  V30 15848 O 1447.22 -0.586474 5.67377 0
M  V30 15849 O 1446.16 1.34288 5.86729 0
M  V30 15850 H 1449.98 1.61578 2.5715 0
M  V30 15851 H 1447.57 0.84973 1.22882 0
M  V30 15852 H 1449.45 -0.210613 4.20873 0
M  V30 15853 H 1448.12 -0.760008 3.14652 0
M  V30 15854 H 1447.03 1.54249 3.4082 0
M  V30 15855 H 1448.36 2.01149 4.49221 0
M  V30 15856 N 1450.02 -1.31994 0.861122 0
M  V30 15857 C 1451.43 -1.49756 0.551844 0
M  V30 15858 C 1451.63 -1.79473 -0.916056 0
M  V30 15859 O 1450.69 -1.86813 -1.69874 0
M  V30 15860 C 1452 -2.63737 1.44442 0
M  V30 15861 C 1453.55 -2.77621 1.44552 0
M  V30 15862 C 1454.02 -3.94689 2.32346 0
M  V30 15863 N 1455.52 -4.01961 2.30177 0
M  V30 15864 C 1456.25 -4.91794 2.94833 0
M  V30 15865 N 1455.75 -5.86589 3.68626 0
M  V30 15866 N 1457.54 -4.84968 2.84188 0
M  V30 15867 H 1449.69 -1.10972 1.81105 0
M  V30 15868 H 1451.95 -0.54753 0.773896 0
M  V30 15869 H 1451.66 -2.48526 2.48853 0
M  V30 15870 H 1451.53 -3.59671 1.13651 0
M  V30 15871 H 1453.92 -2.92251 0.409034 0
M  V30 15872 H 1454 -1.8238 1.79363 0
M  V30 15873 H 1453.65 -3.80817 3.36067 0
M  V30 15874 H 1453.58 -4.89219 1.94865 0
M  V30 15875 H 1456.07 -3.34132 1.76533 0
M  V30 15876 H 1456.38 -6.51846 4.15111 0
M  V30 15877 H 1454.72 -5.86596 3.72734 0
M  V30 15878 H 1457.92 -4.09883 2.26084 0
M  V30 15879 H 1458.09 -5.54774 3.34857 0
M  V30 15880 N 1451.49 -0.619688 -1.44906 0
M  V30 15881 C 1452.74 -0.11981 -2.02446 0
M  V30 15882 C 1453.07 1.2509 -1.48546 0
M  V30 15883 O 1452.35 1.82781 -0.664942 0
M  V30 15884 C 1452.63 -0.0940205 -3.59977 0
M  V30 15885 C 1452.48 -1.49626 -4.24184 0
M  V30 15886 C 1453.8 0.58748 -4.36161 0
M  V30 15887 H 1450.92 -0.0450119 -0.735624 0
M  V30 15888 H 1453.56 -0.793975 -1.72615 0
M  V30 15889 H 1451.71 0.480073 -3.85522 0
M  V30 15890 H 1453.39 -2.11836 -4.09784 0
M  V30 15891 H 1451.63 -2.05348 -3.82119 0
M  V30 15892 H 1452.3 -1.43035 -5.33146 0
M  V30 15893 H 1454.78 0.0993863 -4.15981 0
M  V30 15894 H 1453.65 0.574672 -5.45883 0
M  V30 15895 H 1453.91 1.65579 -4.09922 0
M  V30 15896 N 1452.97 1.53444 -0.359552 0
M  V30 15897 C 1454.38 1.86308 0.120955 0
M  V30 15898 C 1454.73 1.28033 1.48667 0
M  V30 15899 O 1453.86 0.600041 2.07915 0
M  V30 15900 C 1454.45 3.38044 0.226255 0
M  V30 15901 C 1453.01 3.70727 0.65101 0
M  V30 15902 C 1452.16 2.76538 -0.205482 0
M  V30 15903 H 1455.11 1.47778 -0.578569 0
M  V30 15904 H 1455.13 3.65699 1.05092 0
M  V30 15905 H 1454.64 3.80428 -0.767874 0
M  V30 15906 H 1452.75 3.33897 1.65359 0
M  V30 15907 H 1452.86 4.77168 0.429802 0
M  V30 15908 H 1451.22 2.52622 0.3247 0
M  V30 15909 H 1452.01 3.21754 -1.19704 0
M  V30 15910 N 1454.45 0.0885642 1.57351 0
M  V30 15911 C 1455.7 -0.576675 1.94115 0
M  V30 15912 C 1456.03 -1.68595 0.969842 0
M  V30 15913 O 1455.28 -1.95697 -0.0116998 0
M  V30 15914 C 1455.58 -1.17764 3.37441 0
M  V30 15915 C 1455.25 -0.192813 4.50488 0
M  V30 15916 C 1453.91 0.0780722 4.81137 0
M  V30 15917 C 1456.26 0.479997 5.18985 0
M  V30 15918 C 1453.59 1.02857 5.77613 0
M  V30 15919 C 1455.94 1.41892 6.16481 0
M  V30 15920 C 1454.6 1.69811 6.45539 0
M  V30 15921 H 1453.87 -0.21102 0.710318 0
M  V30 15922 H 1456.52 0.163009 1.90805 0
M  V30 15923 H 1454.83 -1.99343 3.37298 0
M  V30 15924 H 1456.52 -1.69994 3.63185 0
M  V30 15925 H 1453.11 -0.41413 4.26595 0
M  V30 15926 H 1457.3 0.283854 4.95488 0
M  V30 15927 H 1452.55 1.25194 5.98445 0
M  V30 15928 H 1456.73 1.94612 6.68655 0
M  V30 15929 H 1454.35 2.43621 7.20106 0
M  V30 15930 N 1455.93 -1.56509 -0.185096 0
M  V30 15931 C 1457.17 -1.81474 -0.905263 0
M  V30 15932 C 1457.51 -0.664225 -1.82488 0
M  V30 15933 O 1456.78 0.33466 -1.91599 0
M  V30 15934 C 1457.07 -3.16754 -1.71287 0
M  V30 15935 C 1456.92 -4.42312 -0.817302 0
M  V30 15936 C 1458.24 -3.48828 -2.68342 0
M  V30 15937 H 1455.36 -0.660155 -0.327664 0
M  V30 15938 H 1458 -1.89219 -0.172129 0
M  V30 15939 H 1456.15 -3.10282 -2.33789 0
M  V30 15940 H 1457.82 -4.60839 -0.206218 0
M  V30 15941 H 1456.06 -4.33621 -0.124564 0
M  V30 15942 H 1456.73 -5.33487 -1.41758 0
M  V30 15943 H 1459.21 -3.55663 -2.15969 0
M  V30 15944 H 1458.09 -4.44585 -3.21924 0
M  V30 15945 H 1458.35 -2.72829 -3.47875 0
M  V30 15946 N 1457.41 0.45317 -1.50944 0
M  V30 15947 C 1458.34 1.55655 -1.74051 0
M  V30 15948 C 1459.32 1.59545 -0.58987 0
M  V30 15949 O 1460.5 1.75526 -0.830922 0
M  V30 15950 C 1457.63 2.93857 -1.85109 0
M  V30 15951 C 1456.59 3.04832 -3.00435 0
M  V30 15952 C 1455.91 4.44858 -2.96657 0
M  V30 15953 C 1457.21 2.80381 -4.40663 0
M  V30 15954 H 1458.91 1.36571 -2.66437 0
M  V30 15955 H 1456.45 0.655572 -1.28212 0
M  V30 15956 H 1458.41 3.70992 -1.99857 0
M  V30 15957 H 1457.13 3.14138 -0.893579 0
M  V30 15958 H 1455.79 2.30134 -2.85366 0
M  V30 15959 H 1455.44 4.62083 -1.98716 0
M  V30 15960 H 1455.14 4.53134 -3.7409 0
M  V30 15961 H 1456.66 5.23989 -3.13478 0
M  V30 15962 H 1458.07 3.47255 -4.56165 0
M  V30 15963 H 1456.47 3.00083 -5.19683 0
M  V30 15964 H 1457.54 1.76099 -4.51793 0
M  V30 15965 N 1458.88 1.40823 0.707568 0
M  V30 15966 C 1460.11 1.42866 1.49656 0
M  V30 15967 C 1460.53 0.0305663 1.88775 0
M  V30 15968 O 1459.88 -0.947376 1.55984 0
M  V30 15969 C 1459.94 2.32661 2.76679 0
M  V30 15970 O 1459.66 3.67028 2.39211 0
M  V30 15971 C 1461.16 2.4338 3.70514 0
M  V30 15972 H 1458.38 0.487009 0.461588 0
M  V30 15973 H 1460.92 1.84969 0.872167 0
M  V30 15974 H 1459.08 1.93898 3.35384 0
M  V30 15975 H 1459.49 4.14799 3.21002 0
M  V30 15976 H 1460.96 3.10401 4.56459 0
M  V30 15977 H 1461.44 1.46132 4.14176 0
M  V30 15978 H 1462.05 2.82728 3.17718 0
M  V30 15979 N 1460.36 -0.94061 1.26453 0
M  V30 15980 C 1461.77 -1.50169 1.10934 0
M  V30 15981 C 1462.12 -1.93733 -0.310167 0
M  V30 15982 O 1461.25 -1.79966 -1.20172 0
M  V30 15983 C 1461.84 -2.7291 2.00763 0
M  V30 15984 C 1460.4 -3.25283 1.89388 0
M  V30 15985 C 1459.55 -1.98061 1.9408 0
M  V30 15986 H 1462.5 -0.756038 1.39534 0
M  V30 15987 H 1462.52 -3.47237 1.55586 0
M  V30 15988 H 1462.03 -2.41172 3.04069 0
M  V30 15989 H 1460.14 -3.6181 0.890192 0
M  V30 15990 H 1460.25 -3.92351 2.7495 0
M  V30 15991 H 1458.61 -2.13985 1.3814 0
M  V30 15992 H 1459.4 -1.68654 2.99016 0
M  V30 15993 N 1461.84 -1.08266 -1.14527 0
M  V30 15994 C 1463.12 -0.724254 -1.81697 0
M  V30 15995 C 1463.5 0.792212 -1.95671 0
M  V30 15996 O 1462.85 1.71017 -1.51543 0
M  V30 15997 C 1463.06 -1.44949 -3.17475 0
M  V30 15998 C 1464.4 -1.60761 -3.9299 0
M  V30 15999 O 1465.43 -1.41103 -3.2706 0
M  V30 16000 O 1464.29 -1.93184 -5.11216 0
M  V30 16001 H 1461.38 -0.258814 -0.785458 0
M  V30 16002 H 1463.93 -1.18414 -1.21557 0
M  V30 16003 H 1462.7 -2.48262 -3.02459 0
M  V30 16004 H 1462.32 -0.980993 -3.85308 0
M  V30 16005 N 1463.32 1.31536 -0.86811 0
M  V30 16006 C 1464.57 1.96775 -0.47812 0
M  V30 16007 C 1464.89 1.68632 0.9692 0
M  V30 16008 O 1464.15 0.974357 1.6972 0
M  V30 16009 C 1464.45 3.50876 -0.679752 0
M  V30 16010 C 1464.11 3.99034 -2.09958 0
M  V30 16011 C 1462.78 4.11896 -2.48787 0
M  V30 16012 C 1465.13 4.24387 -3.02564 0
M  V30 16013 C 1462.46 4.47461 -3.79468 0
M  V30 16014 C 1464.81 4.61415 -4.32757 0
M  V30 16015 C 1463.47 4.72484 -4.71503 0
M  V30 16016 H 1462.74 0.720049 -0.174957 0
M  V30 16017 H 1465.39 1.56703 -1.10074 0
M  V30 16018 H 1463.69 3.91791 0.0260174 0
M  V30 16019 H 1465.39 3.994 -0.357855 0
M  V30 16020 H 1461.98 3.89518 -1.78811 0
M  V30 16021 H 1466.17 4.13947 -2.73791 0
M  V30 16022 H 1461.42 4.54227 -4.09252 0
M  V30 16023 H 1465.6 4.79985 -5.04566 0
M  V30 16024 H 1463.22 4.99798 -5.72806 0
M  V30 16025 N 1464.8 0.627364 1.44575 0
M  V30 16026 C 1465.73 -0.066735 2.33405 0
M  V30 16027 C 1466.71 -0.838666 1.47988 0
M  V30 16028 O 1467.89 -0.805296 1.76716 0
M  V30 16029 C 1465.02 -1.05148 3.31 0
M  V30 16030 C 1463.98 -0.391433 4.26206 0
M  V30 16031 C 1463.3 -1.48581 5.13642 0
M  V30 16032 C 1464.6 0.699942 5.17589 0
M  V30 16033 H 1466.3 0.675029 2.91691 0
M  V30 16034 H 1463.84 0.326066 1.4026 0
M  V30 16035 H 1465.8 -1.54576 3.92026 0
M  V30 16036 H 1464.52 -1.82408 2.70915 0
M  V30 16037 H 1463.18 0.0821694 3.66508 0
M  V30 16038 H 1462.83 -2.2492 4.49911 0
M  V30 16039 H 1462.53 -1.04957 5.7815 0
M  V30 16040 H 1464.05 -1.98198 5.77538 0
M  V30 16041 H 1465.47 0.288911 5.72572 0
M  V30 16042 H 1463.86 1.0591 5.9068 0
M  V30 16043 H 1464.93 1.5686 4.58828 0
M  V30 16044 N 1466.28 -1.53251 0.367684 0
M  V30 16045 C 1467.52 -2.01287 -0.221351 0
M  V30 16046 C 1467.85 -1.25489 -1.48603 0
M  V30 16047 O 1467.11 -0.337392 -1.9277 0
M  V30 16048 C 1467.4 -3.53031 -0.557149 0
M  V30 16049 C 1467.07 -4.46708 0.613444 0
M  V30 16050 C 1465.73 -4.72036 0.934633 0
M  V30 16051 C 1468.08 -5.02112 1.3976 0
M  V30 16052 C 1465.41 -5.50021 2.04191 0
M  V30 16053 C 1467.76 -5.81306 2.49531 0
M  V30 16054 C 1466.43 -6.04921 2.82182 0
M  V30 16055 H 1465.7 -0.73656 -0.080998 0
M  V30 16056 H 1468.35 -1.84842 0.500581 0
M  V30 16057 H 1466.65 -3.67434 -1.36012 0
M  V30 16058 H 1468.35 -3.87674 -1.02519 0
M  V30 16059 H 1464.94 -4.27143 0.353075 0
M  V30 16060 H 1469.12 -4.82488 1.1627 0
M  V30 16061 H 1464.38 -5.66536 2.29884 0
M  V30 16062 H 1468.55 -6.23245 3.10707 0
M  V30 16063 H 1466.18 -6.65134 3.68104 0
M  V30 16064 N 1467.75 -0.0969077 -1.57302 0
M  V30 16065 C 1469 0.567212 -1.94706 0
M  V30 16066 C 1469.33 1.67721 -0.978937 0
M  V30 16067 O 1468.61 1.94496 -0.0123016 0
M  V30 16068 C 1468.89 1.12069 -3.42217 0
M  V30 16069 C 1468.74 0.015615 -4.49797 0
M  V30 16070 C 1470.06 2.0185 -3.91081 0
M  V30 16071 H 1467.18 0.204716 -0.707997 0
M  V30 16072 H 1469.82 -0.167984 -1.89256 0
M  V30 16073 H 1467.97 1.74723 -3.46993 0
M  V30 16074 H 1469.65 -0.61871 -4.57132 0
M  V30 16075 H 1467.89 -0.650529 -4.28895 0
M  V30 16076 H 1468.56 0.443724 -5.50214 0
M  V30 16077 H 1471.04 1.49098 -3.8847 0
M  V30 16078 H 1469.91 2.37502 -4.94858 0
M  V30 16079 H 1470.17 2.93659 -3.3048 0
M  V30 16080 N 1469.23 1.56605 0.176793 0
M  V30 16081 C 1470.16 1.91079 1.24756 0
M  V30 16082 C 1471.14 0.772947 1.43053 0
M  V30 16083 O 1472.33 1.02573 1.58149 0
M  V30 16084 C 1469.45 2.15695 2.61139 0
M  V30 16085 C 1468.5 3.38387 2.59609 0
M  V30 16086 S 1469.33 4.92933 2.09231 0
M  V30 16087 C 1470.49 5.20637 3.47402 0
M  V30 16088 H 1470.72 2.81602 0.953291 0
M  V30 16089 H 1468.25 1.49622 0.381117 0
M  V30 16090 H 1470.21 2.30558 3.39637 0
M  V30 16091 H 1468.87 1.25889 2.87769 0
M  V30 16092 H 1468.07 3.52794 3.59934 0
M  V30 16093 H 1467.67 3.22611 1.89203 0
M  V30 16094 H 1469.96 5.12279 4.4337 0
M  V30 16095 H 1470.9 6.22292 3.37874 0
M  V30 16096 H 1471.31 4.4822 3.4316 0
M  V30 16097 N 1470.71 -0.445159 1.51182 0
M  V30 16098 C 1471.96 -1.19288 1.6314 0
M  V30 16099 C 1472.28 -1.91904 0.346109 0
M  V30 16100 O 1471.55 -1.8523 -0.637695 0
M  V30 16101 H 1470.13 -0.443319 0.601229 0
M  V30 16102 H 1472.79 -0.511136 1.88078 0
M  V30 16103 H 1471.89 -1.92672 2.45528 0
M  V30 16104 N 1472.19 -1.41197 -0.700089 0
M  V30 16105 C 1473.42 -1.43658 -1.48896 0
M  V30 16106 C 1473.83 -0.0405771 -1.88756 0
M  V30 16107 O 1473.19 0.93909 -1.56484 0
M  V30 16108 C 1473.24 -2.34125 -2.75441 0
M  V30 16109 O 1472.96 -3.68291 -2.37261 0
M  V30 16110 C 1474.46 -2.45342 -3.69218 0
M  V30 16111 H 1471.68 -0.48945 -0.458999 0
M  V30 16112 H 1474.22 -1.85429 -0.862345 0
M  V30 16113 H 1472.38 -1.95674 -3.34351 0
M  V30 16114 H 1472.79 -4.16495 -3.18798 0
M  V30 16115 H 1474.27 -3.12818 -4.54807 0
M  V30 16116 H 1474.74 -1.48327 -4.13395 0
M  V30 16117 H 1475.35 -2.84409 -3.16214 0
M  V30 16118 N 1473.67 0.933891 -1.2695 0
M  V30 16119 C 1474.89 1.72042 -1.15828 0
M  V30 16120 C 1475.32 1.85975 0.28193 0
M  V30 16121 O 1474.67 1.35528 1.20423 0
M  V30 16122 C 1474.72 3.10112 -1.84019 0
M  V30 16123 O 1473.83 3.96504 -1.13394 0
M  V30 16124 H 1473.17 0.527573 -0.40319 0
M  V30 16125 H 1475.7 1.16914 -1.67905 0
M  V30 16126 H 1475.71 3.60461 -1.91133 0
M  V30 16127 H 1474.38 2.99287 -2.8879 0
M  V30 16128 H 1472.96 3.54948 -1.14307 0
M  V30 16129 N 1475.14 1.08871 1.13951 0
M  V30 16130 C 1476.39 0.819665 1.84732 0
M  V30 16131 C 1476.71 -0.656535 1.83615 0
M  V30 16132 O 1475.98 -1.47614 1.28791 0
M  V30 16133 H 1474.56 0.30023 0.684011 0
M  V30 16134 H 1477.22 1.37568 1.38062 0
M  V30 16135 H 1476.32 1.16809 2.89417 0
M  V30 16136 N 1476.62 -1.31073 0.875073 0
M  V30 16137 C 1477.57 -2.28389 0.332718 0
M  V30 16138 C 1478.54 -1.55954 -0.571639 0
M  V30 16139 O 1479.72 -1.84073 -0.502185 0
M  V30 16140 C 1476.86 -3.42083 -0.455364 0
M  V30 16141 C 1475.98 -4.29358 0.477088 0
M  V30 16142 C 1475.11 -5.30201 -0.325619 0
M  V30 16143 C 1474.15 -6.09123 0.602935 0
M  V30 16144 N 1473.29 -7.01909 -0.163836 0
M  V30 16145 H 1478.13 -2.74166 1.16777 0
M  V30 16146 H 1475.66 -1.3487 0.587248 0
M  V30 16147 H 1477.62 -4.06746 -0.928104 0
M  V30 16148 H 1476.25 -2.97402 -1.25507 0
M  V30 16149 H 1475.3 -3.65091 1.06829 0
M  V30 16150 H 1476.62 -4.84425 1.18887 0
M  V30 16151 H 1475.77 -6.00565 -0.860647 0
M  V30 16152 H 1474.51 -4.75802 -1.07067 0
M  V30 16153 H 1473.51 -5.37645 1.14968 0
M  V30 16154 H 1474.74 -6.65609 1.34692 0
M  V30 16155 H 1472.69 -6.49913 -0.891604 0
M  V30 16156 H 1472.6 -7.5442 0.48851 0
M  V30 16157 H 1473.87 -7.76529 -0.679929 0
M  V30 16158 N 1478.1 -0.635022 -1.4424 0
M  V30 16159 C 1479.05 0.0675707 -2.30701 0
M  V30 16160 C 1480.02 0.832919 -1.43707 0
M  V30 16161 O 1481.2 0.813177 -1.72604 0
M  V30 16162 C 1478.34 1.04053 -3.2904 0
M  V30 16163 C 1477.46 0.273191 -4.31135 0
M  V30 16164 C 1476.59 1.23831 -5.16565 0
M  V30 16165 C 1475.63 0.460359 -6.10366 0
M  V30 16166 N 1474.77 1.37614 -6.88481 0
M  V30 16167 H 1479.61 -0.675656 -2.90239 0
M  V30 16168 H 1477.14 -0.344971 -1.42998 0
M  V30 16169 H 1479.1 1.61805 -3.84545 0
M  V30 16170 H 1477.73 1.75084 -2.71193 0
M  V30 16171 H 1476.78 -0.420315 -3.78071 0
M  V30 16172 H 1478.1 -0.332548 -4.9769 0
M  V30 16173 H 1477.25 1.88704 -5.76607 0
M  V30 16174 H 1475.99 1.87797 -4.50093 0
M  V30 16175 H 1474.99 -0.201836 -5.49429 0
M  V30 16176 H 1476.22 -0.174639 -6.78875 0
M  V30 16177 H 1474.16 2.00294 -6.24675 0
M  V30 16178 H 1474.08 0.82452 -7.5149 0
M  V30 16179 H 1475.35 2.01359 -7.53044 0
M  V30 16180 N 1479.58 1.53054 -0.375806 0
M  V30 16181 C 1480.81 2.0582 0.211135 0
M  V30 16182 C 1481.22 1.24856 1.4162 0
M  V30 16183 O 1480.58 0.291786 1.80152 0
M  V30 16184 C 1480.63 3.56577 0.594573 0
M  V30 16185 O 1480.35 4.34472 -0.562607 0
M  V30 16186 C 1481.85 4.25639 1.23882 0
M  V30 16187 H 1479.07 0.670085 0.0350268 0
M  V30 16188 H 1481.62 1.9732 -0.537135 0
M  V30 16189 H 1479.77 3.65194 1.29275 0
M  V30 16190 H 1480.18 5.23902 -0.250487 0
M  V30 16191 H 1481.66 5.32408 1.45759 0
M  V30 16192 H 1482.14 3.80001 2.20218 0
M  V30 16193 H 1482.74 4.21302 0.581786 0
M  V30 16194 N 1481.06 0.105248 1.57248 0
M  V30 16195 C 1482.28 -0.567515 1.99484 0
M  V30 16196 C 1482.71 -1.60298 0.984182 0
M  V30 16197 O 1482.06 -1.81242 -0.0459944 0
M  V30 16198 C 1482.11 -1.18271 3.40653 0
M  V30 16199 O 1481.22 -2.29843 3.42412 0
M  V30 16200 H 1480.56 -0.143069 0.648404 0
M  V30 16201 H 1483.09 0.189661 2.03719 0
M  V30 16202 H 1483.1 -1.52157 3.78566 0
M  V30 16203 H 1481.77 -0.424179 4.13731 0
M  V30 16204 H 1480.35 -1.975 3.16304 0
M  V30 16205 N 1482.53 -1.56697 -0.168486 0
M  V30 16206 C 1483.95 -1.71808 -0.730674 0
M  V30 16207 C 1484.3 -0.716224 -1.8266 0
M  V30 16208 O 1483.42 0.121803 -2.16057 0
M  V30 16209 C 1484.02 -3.1151 -1.33217 0
M  V30 16210 C 1482.58 -3.28297 -1.84115 0
M  V30 16211 C 1481.72 -2.67757 -0.72122 0
M  V30 16212 H 1484.67 -1.58598 0.0569421 0
M  V30 16213 H 1484.69 -3.10318 -2.20189 0
M  V30 16214 H 1484.21 -3.84404 -0.53431 0
M  V30 16215 H 1482.31 -2.60364 -2.66536 0
M  V30 16216 H 1482.42 -4.3606 -1.98464 0
M  V30 16217 H 1480.78 -2.27644 -1.14239 0
M  V30 16218 H 1481.57 -3.43239 0.0648388 0
M  V30 16219 N 1484.01 0.437135 -1.51416 0
M  V30 16220 C 1484.96 1.52903 -1.69129 0
M  V30 16221 C 1485.95 1.51379 -0.54528 0
M  V30 16222 O 1487.14 1.57828 -0.8012 0
M  V30 16223 C 1484.27 2.91092 -1.8199 0
M  V30 16224 C 1483.35 2.97372 -3.02375 0
M  V30 16225 N 1483.74 2.73395 -4.25545 0
M  V30 16226 C 1482.04 3.28532 -3.01634 0
M  V30 16227 C 1482.74 2.85523 -5.06805 0
M  V30 16228 N 1481.72 3.17201 -4.41457 0
M  V30 16229 H 1485.52 1.33118 -2.62025 0
M  V30 16230 H 1483.04 0.644444 -1.49066 0
M  V30 16231 H 1485.03 3.69645 -1.9279 0
M  V30 16232 H 1483.69 3.11898 -0.902757 0
M  V30 16233 H 1484.7 2.4832 -4.54486 0
M  V30 16234 H 1481.38 3.5511 -2.19552 0
M  V30 16235 H 1482.77 2.70938 -6.14852 0
M  V30 16236 N 1485.49 1.41566 0.692592 0
M  V30 16237 C 1486.74 1.41083 1.45265 0
M  V30 16238 C 1487.07 0.0209998 1.94489 0
M  V30 16239 O 1486.32 -0.96764 1.70104 0
M  V30 16240 C 1486.62 2.36683 2.67799 0
M  V30 16241 C 1486.29 3.83458 2.37215 0
M  V30 16242 C 1484.95 4.23441 2.28585 0
M  V30 16243 C 1487.3 4.76114 2.12048 0
M  V30 16244 C 1484.63 5.54086 1.92888 0
M  V30 16245 C 1486.98 6.07082 1.7786 0
M  V30 16246 C 1485.64 6.46083 1.67727 0
M  V30 16247 H 1484.91 0.51626 0.531561 0
M  V30 16248 H 1487.56 1.74385 0.791337 0
M  V30 16249 H 1485.87 1.96645 3.38877 0
M  V30 16250 H 1487.56 2.33581 3.25946 0
M  V30 16251 H 1484.15 3.51792 2.44828 0
M  V30 16252 H 1488.34 4.46025 2.17659 0
M  V30 16253 H 1483.59 5.83182 1.83599 0
M  V30 16254 H 1487.77 6.78378 1.57407 0
M  V30 16255 H 1485.39 7.47228 1.39836 0
M  V30 16256 N 1486.97 -0.927146 1.27443 0
M  V30 16257 C 1487.9 -2.03209 1.06013 0
M  V30 16258 C 1488.91 -1.62792 0.016041 0
M  V30 16259 O 1490.1 -1.76631 0.25766 0
M  V30 16260 C 1487.2 -3.33791 0.586225 0
M  V30 16261 C 1486.38 -4.02897 1.70273 0
M  V30 16262 C 1485.43 -5.11755 1.22447 0
M  V30 16263 O 1484.46 -5.35688 1.92423 0
M  V30 16264 N 1485.66 -5.80444 0.0804162 0
M  V30 16265 H 1488.43 -2.22155 2.01165 0
M  V30 16266 H 1485.99 -1.09757 1.19017 0
M  V30 16267 H 1487.98 -4.03926 0.250161 0
M  V30 16268 H 1486.55 -3.11414 -0.272076 0
M  V30 16269 H 1485.77 -3.26489 2.20905 0
M  V30 16270 H 1487.06 -4.45816 2.45205 0
M  V30 16271 H 1486.46 -5.63454 -0.503635 0
M  V30 16272 H 1485.01 -6.51504 -0.196466 0
M  V30 16273 N 1488.45 -1.09474 -1.13372 0
M  V30 16274 C 1489.39 -0.73458 -2.18798 0
M  V30 16275 C 1490.36 0.284433 -1.63647 0
M  V30 16276 O 1491.55 0.165958 -1.90077 0
M  V30 16277 C 1488.69 -0.161826 -3.4472 0
M  V30 16278 C 1487.8 -1.23494 -4.13973 0
M  V30 16279 C 1486.94 -0.624886 -5.27512 0
M  V30 16280 C 1485.98 -1.67927 -5.88614 0
M  V30 16281 N 1485.11 -1.09021 -6.93584 0
M  V30 16282 H 1489.95 -1.63787 -2.48954 0
M  V30 16283 H 1487.49 -0.818297 -1.22239 0
M  V30 16284 H 1489.45 0.188053 -4.16776 0
M  V30 16285 H 1488.08 0.70473 -3.15013 0
M  V30 16286 H 1487.13 -1.70209 -3.40196 0
M  V30 16287 H 1488.44 -2.0335 -4.55467 0
M  V30 16288 H 1487.6 -0.22388 -6.06287 0
M  V30 16289 H 1486.33 0.205214 -4.87268 0
M  V30 16290 H 1485.34 -2.08982 -5.08534 0
M  V30 16291 H 1486.56 -2.51204 -6.3093 0
M  V30 16292 H 1484.51 -0.281401 -6.55396 0
M  V30 16293 H 1484.43 -1.82573 -7.33623 0
M  V30 16294 H 1485.7 -0.715428 -7.7621 0
M  V30 16295 N 1489.92 1.30607 -0.882012 0
M  V30 16296 C 1491.17 1.96256 -0.498964 0
M  V30 16297 C 1491.5 1.69651 0.951259 0
M  V30 16298 O 1490.75 0.992303 1.68677 0
M  V30 16299 C 1491.05 3.50136 -0.716929 0
M  V30 16300 C 1490.72 3.96785 -2.14178 0
M  V30 16301 C 1489.38 4.09234 -2.53142 0
M  V30 16302 C 1491.73 4.21154 -3.07048 0
M  V30 16303 C 1489.06 4.43411 -3.84192 0
M  V30 16304 C 1491.41 4.56799 -4.37627 0
M  V30 16305 C 1490.08 4.67456 -4.76488 0
M  V30 16306 H 1489.35 0.718153 -0.182584 0
M  V30 16307 H 1491.99 1.55527 -1.1173 0
M  V30 16308 H 1490.3 3.91797 -0.0155388 0
M  V30 16309 H 1492 3.98998 -0.400196 0
M  V30 16310 H 1488.59 3.876 -1.82932 0
M  V30 16311 H 1492.77 4.1102 -2.78167 0
M  V30 16312 H 1488.03 4.49861 -4.14047 0
M  V30 16313 H 1492.2 4.74607 -5.09629 0
M  V30 16314 H 1489.83 4.93694 -5.78074 0
M  V30 16315 N 1491.4 0.642663 1.43901 0
M  V30 16316 C 1492.33 -0.0938945 2.29008 0
M  V30 16317 C 1493.35 -0.797561 1.41925 0
M  V30 16318 O 1494.54 -0.65708 1.65966 0
M  V30 16319 C 1491.64 -1.15564 3.18588 0
M  V30 16320 C 1490.81 -0.532208 4.3415 0
M  V30 16321 C 1489.87 -1.48943 5.0468 0
M  V30 16322 O 1488.89 -1.00211 5.60309 0
M  V30 16323 N 1490.1 -2.82362 5.072 0
M  V30 16324 H 1492.86 0.636539 2.92862 0
M  V30 16325 H 1490.42 0.484665 1.54475 0
M  V30 16326 H 1492.41 -1.79658 3.62636 0
M  V30 16327 H 1490.98 -1.78816 2.56405 0
M  V30 16328 H 1490.2 0.287598 3.93149 0
M  V30 16329 H 1491.49 -0.0965526 5.08708 0
M  V30 16330 H 1490.89 -3.24524 4.63358 0
M  V30 16331 H 1489.45 -3.41786 5.55001 0
M  V30 16332 N 1492.88 -1.52852 0.383918 0
M  V30 16333 C 1494.16 -1.939 -0.25729 0
M  V30 16334 C 1494.54 -1.31895 -1.64824 0
M  V30 16335 O 1493.89 -0.484987 -2.23294 0
M  V30 16336 C 1494.1 -3.47801 -0.289064 0
M  V30 16337 C 1495.44 -4.21396 -0.520611 0
M  V30 16338 O 1496.47 -3.54278 -0.369502 0
M  V30 16339 O 1495.33 -5.4037 -0.816254 0
M  V30 16340 H 1492.42 -0.811658 -0.158558 0
M  V30 16341 H 1494.97 -1.63949 0.438034 0
M  V30 16342 H 1493.74 -3.8525 0.685441 0
M  V30 16343 H 1493.36 -3.8404 -1.02953 0
M  V30 16344 N 1494.36 -0.113586 -1.5719 0
M  V30 16345 C 1495.61 0.545507 -1.94183 0
M  V30 16346 C 1495.92 1.68176 -0.998816 0
M  V30 16347 O 1497.13 2.40324 -1.26319 0
M  V30 16348 C 1495.58 1.02178 -3.45091 0
M  V30 16349 C 1495.19 -0.0857195 -4.47918 0
M  V30 16350 C 1496.94 1.65255 -3.91013 0
M  V30 16351 C 1494.84 0.406946 -5.89998 0
M  V30 16352 H 1493.77 0.20755 -0.724872 0
M  V30 16353 H 1496.42 -0.192567 -1.82487 0
M  V30 16354 H 1494.81 1.81411 -3.52003 0
M  V30 16355 H 1495.98 -0.861821 -4.52669 0
M  V30 16356 H 1494.29 -0.622816 -4.11716 0
M  V30 16357 H 1496.89 2.0322 -4.94576 0
M  V30 16358 H 1497.23 2.52888 -3.30687 0
M  V30 16359 H 1497.77 0.925727 -3.86879 0
M  V30 16360 H 1494.51 -0.433199 -6.54067 0
M  V30 16361 H 1494.03 1.14965 -5.88679 0
M  V30 16362 H 1495.71 0.869934 -6.41125 0
M  V30 16363 N 1495.84 1.56784 0.160173 0
M  V30 16364 C 1497.08 1.84422 0.881348 0
M  V30 16365 C 1497.44 0.696069 1.78938 0
M  V30 16366 O 1498.64 0.853174 2.54901 0
M  V30 16367 C 1496.91 3.17208 1.64662 0
M  V30 16368 S 1498.47 3.66363 2.41503 0
M  V30 16369 H 1495.29 0.646923 0.294978 0
M  V30 16370 H 1497.89 1.94982 0.142215 0
M  V30 16371 H 1496.6 3.98753 0.970782 0
M  V30 16372 H 1496.13 3.0962 2.42692 0
M  V30 16373 H 1498.14 3.34577 3.66432 0
M  V30 16374 N 1497.32 -0.429099 1.51646 0
M  V30 16375 C 1498.56 -1.17958 1.64966 0
M  V30 16376 C 1498.89 -1.90667 0.368755 0
M  V30 16377 O 1498.17 -1.83945 -0.632023 0
M  V30 16378 C 1498.45 -2.19002 2.8585 0
M  V30 16379 C 1498.31 -1.50321 4.23938 0
M  V30 16380 C 1499.62 -3.19895 3.0225 0
M  V30 16381 H 1496.74 -0.427474 0.600362 0
M  V30 16382 H 1499.39 -0.46777 1.84152 0
M  V30 16383 H 1497.54 -2.79707 2.69623 0
M  V30 16384 H 1499.21 -0.928902 4.51851 0
M  V30 16385 H 1497.45 -0.805431 4.26257 0
M  V30 16386 H 1498.12 -2.2395 5.0453 0
M  V30 16387 H 1500.6 -2.69251 3.17243 0
M  V30 16388 H 1499.47 -3.8788 3.88381 0
M  V30 16389 H 1499.73 -3.86477 2.14682 0
M  V30 16390 N 1498.79 -1.41931 -0.685074 0
M  V30 16391 C 1499.74 -1.44604 -1.79884 0
M  V30 16392 C 1500.71 -0.299166 -1.63384 0
M  V30 16393 O 1501.9 -0.501749 -1.84085 0
M  V30 16394 C 1499.04 -1.3442 -3.17845 0
M  V30 16395 C 1498.15 -2.59061 -3.45704 0
M  V30 16396 C 1497.28 -2.41094 -4.73336 0
M  V30 16397 C 1496.32 -3.61159 -4.94197 0
M  V30 16398 N 1495.46 -3.42198 -6.13062 0
M  V30 16399 H 1500.3 -2.39788 -1.76934 0
M  V30 16400 H 1497.84 -1.1906 -0.863891 0
M  V30 16401 H 1499.79 -1.26515 -3.97555 0
M  V30 16402 H 1498.42 -0.42838 -3.19945 0
M  V30 16403 H 1497.48 -2.77374 -2.60322 0
M  V30 16404 H 1498.79 -3.48341 -3.57016 0
M  V30 16405 H 1497.94 -2.30717 -5.61119 0
M  V30 16406 H 1496.68 -1.49288 -4.64289 0
M  V30 16407 H 1495.69 -3.7198 -4.04859 0
M  V30 16408 H 1496.91 -4.53933 -5.05096 0
M  V30 16409 H 1494.86 -2.531 -6.05208 0
M  V30 16410 H 1494.77 -4.25059 -6.25189 0
M  V30 16411 H 1496.04 -3.35612 -7.03551 0
M  V30 16412 N 1500.27 0.920374 -1.27933 0
M  V30 16413 C 1501.23 2.0035 -1.11321 0
M  V30 16414 C 1502.23 1.60706 -0.0549132 0
M  V30 16415 O 1503.42 1.71595 -0.300134 0
M  V30 16416 C 1500.56 3.33681 -0.69782 0
M  V30 16417 H 1501.75 2.16518 -2.07509 0
M  V30 16418 H 1499.3 1.10216 -1.10825 0
M  V30 16419 H 1500.04 3.23214 0.265122 0
M  V30 16420 H 1499.82 3.63815 -1.46223 0
M  V30 16421 H 1501.31 4.13208 -0.604048 0
M  V30 16422 N 1501.75 1.10074 1.1279 0
M  V30 16423 C 1502.98 0.861655 1.87774 0
M  V30 16424 C 1503.39 -0.591184 1.79727 0
M  V30 16425 O 1502.73 -1.4191 1.1665 0
M  V30 16426 C 1502.79 1.22668 3.37924 0
M  V30 16427 C 1502.46 2.68579 3.69749 0
M  V30 16428 C 1503.45 3.66821 3.68427 0
M  V30 16429 C 1501.14 3.04869 3.99199 0
M  V30 16430 C 1503.13 4.99377 3.96108 0
M  V30 16431 C 1500.82 4.37615 4.2654 0
M  V30 16432 C 1501.82 5.34678 4.24981 0
M  V30 16433 O 1501.51 6.65034 4.51647 0
M  V30 16434 H 1501.24 0.309289 0.601096 0
M  V30 16435 H 1503.79 1.46802 1.43661 0
M  V30 16436 H 1502.02 0.563393 3.82574 0
M  V30 16437 H 1503.71 0.965675 3.94246 0
M  V30 16438 H 1504.48 3.40128 3.45742 0
M  V30 16439 H 1500.36 2.29947 3.99557 0
M  V30 16440 H 1503.9 5.7513 3.94806 0
M  V30 16441 H 1499.8 4.64047 4.48698 0
M  V30 16442 H 1500.56 6.70608 4.69283 0
M  V30 16443 N 1503.23 -1.30138 0.888926 0
M  V30 16444 C 1504.16 -2.3047 0.374934 0
M  V30 16445 C 1505.14 -1.61156 -0.544322 0
M  V30 16446 O 1506.32 -1.88738 -0.457337 0
M  V30 16447 C 1503.45 -3.44896 -0.407935 0
M  V30 16448 C 1502.41 -4.25935 0.419916 0
M  V30 16449 C 1501.73 -5.32452 -0.489797 0
M  V30 16450 C 1503.03 -4.9508 1.66413 0
M  V30 16451 H 1504.73 -2.73711 1.21337 0
M  V30 16452 H 1502.27 -1.31586 0.584899 0
M  V30 16453 H 1504.23 -4.14153 -0.778177 0
M  V30 16454 H 1502.95 -3.0047 -1.28005 0
M  V30 16455 H 1501.61 -3.58372 0.772348 0
M  V30 16456 H 1501.26 -4.84273 -1.35974 0
M  V30 16457 H 1500.96 -5.87569 0.0603412 0
M  V30 16458 H 1502.48 -6.04563 -0.856468 0
M  V30 16459 H 1503.9 -5.56831 1.36425 0
M  V30 16460 H 1502.29 -5.6008 2.15477 0
M  V30 16461 H 1503.36 -4.20981 2.4063 0
M  V30 16462 N 1504.71 -0.650285 -1.43559 0
M  V30 16463 C 1505.67 0.0336325 -2.29175 0
M  V30 16464 C 1506.67 0.753465 -1.42055 0
M  V30 16465 O 1507.86 0.595158 -1.63718 0
M  V30 16466 C 1504.99 1.05835 -3.24055 0
M  V30 16467 H 1506.18 -0.719643 -2.91138 0
M  V30 16468 H 1503.74 -0.411363 -1.5079 0
M  V30 16469 H 1504.47 1.84096 -2.66982 0
M  V30 16470 H 1504.26 0.545884 -3.88281 0
M  V30 16471 H 1505.75 1.53606 -3.88323 0
M  V30 16472 N 1506.18 1.52647 -0.392018 0
M  V30 16473 C 1507.11 2.29446 0.433228 0
M  V30 16474 C 1508.09 1.32945 1.06111 0
M  V30 16475 O 1509.28 1.61841 1.07337 0
M  V30 16476 C 1506.41 3.10328 1.55929 0
M  V30 16477 C 1505.36 4.14735 1.05731 0
M  V30 16478 C 1504.69 4.83858 2.27565 0
M  V30 16479 C 1505.99 5.22154 0.123346 0
M  V30 16480 H 1507.68 2.9868 -0.207563 0
M  V30 16481 H 1505.23 1.43643 -0.101266 0
M  V30 16482 H 1507.18 3.62814 2.14346 0
M  V30 16483 H 1505.91 2.38832 2.22771 0
M  V30 16484 H 1504.57 3.63234 0.495653 0
M  V30 16485 H 1504.21 4.08907 2.92923 0
M  V30 16486 H 1503.91 5.54428 1.94637 0
M  V30 16487 H 1505.44 5.39149 2.86619 0
M  V30 16488 H 1506.85 5.69983 0.615784 0
M  V30 16489 H 1505.25 5.99987 -0.116304 0
M  V30 16490 H 1506.32 4.77796 -0.826969 0
M  V30 16491 N 1507.66 0.121921 1.57128 0
M  V30 16492 C 1509.08 -0.234655 1.57866 0
M  V30 16493 C 1509.28 -1.66506 1.13482 0
M  V30 16494 O 1508.33 -2.38692 0.823544 0
M  V30 16495 C 1509.65 0.00131784 3.007 0
M  V30 16496 C 1511.2 -0.0643537 3.12934 0
M  V30 16497 C 1511.67 0.143964 4.57774 0
M  V30 16498 N 1513.16 0.0900323 4.63112 0
M  V30 16499 C 1513.9 0.22608 5.72954 0
M  V30 16500 N 1513.39 0.418461 6.91535 0
M  V30 16501 N 1515.19 0.165449 5.61856 0
M  V30 16502 H 1507.34 1.05618 1.84279 0
M  V30 16503 H 1509.6 0.416132 0.851785 0
M  V30 16504 H 1509.31 0.99031 3.3747 0
M  V30 16505 H 1509.18 -0.729266 3.70083 0
M  V30 16506 H 1511.57 -1.04387 2.7602 0
M  V30 16507 H 1511.65 0.698157 2.46088 0
M  V30 16508 H 1511.29 1.12047 4.95387 0
M  V30 16509 H 1511.22 -0.638569 5.22714 0
M  V30 16510 H 1513.71 -0.0550269 3.7786 0
M  V30 16511 H 1514.03 0.513057 7.71095 0
M  V30 16512 H 1512.37 0.454471 6.93512 0
M  V30 16513 H 1515.56 0.0160945 4.68097 0
M  V30 16514 H 1515.73 0.274917 6.47417 0
M  V30 16515 N 1509.14 -1.56867 -0.151857 0
M  V30 16516 C 1510.09 -1.94315 -1.19271 0
M  V30 16517 C 1511.07 -0.813807 -1.38802 0
M  V30 16518 O 1512.27 -1.07722 -1.40446 0
M  V30 16519 C 1509.4 -2.32316 -2.52753 0
M  V30 16520 C 1508.48 -3.5181 -2.36835 0
M  V30 16521 N 1508.87 -4.68488 -1.90663 0
M  V30 16522 C 1507.17 -3.56799 -2.67602 0
M  V30 16523 C 1507.87 -5.50594 -1.87673 0
M  V30 16524 N 1506.85 -4.92169 -2.30805 0
M  V30 16525 H 1510.65 -2.82003 -0.827747 0
M  V30 16526 H 1508.16 -1.58361 -0.359958 0
M  V30 16527 H 1510.16 -2.57347 -3.27991 0
M  V30 16528 H 1508.82 -1.45977 -2.90036 0
M  V30 16529 H 1509.83 -4.92336 -1.60703 0
M  V30 16530 H 1506.51 -2.80988 -3.08791 0
M  V30 16531 H 1507.9 -6.54129 -1.53509 0
M  V30 16532 N 1510.62 0.421051 -1.51871 0
M  V30 16533 C 1511.57 1.51101 -1.70741 0
M  V30 16534 C 1512.55 1.50792 -0.561305 0
M  V30 16535 O 1513.74 1.5697 -0.817894 0
M  V30 16536 C 1510.87 2.89145 -1.85067 0
M  V30 16537 C 1509.96 2.94148 -3.05512 0
M  V30 16538 N 1510.35 2.68866 -4.28421 0
M  V30 16539 C 1508.65 3.25314 -3.05101 0
M  V30 16540 C 1509.35 2.80131 -5.09805 0
M  V30 16541 N 1508.33 3.12501 -4.44797 0
M  V30 16542 H 1512.13 1.30331 -2.63422 0
M  V30 16543 H 1509.64 0.628598 -1.49741 0
M  V30 16544 H 1511.64 3.6758 -1.96699 0
M  V30 16545 H 1510.3 3.10923 -0.935788 0
M  V30 16546 H 1511.31 2.43485 -4.57094 0
M  V30 16547 H 1507.99 3.52762 -2.23306 0
M  V30 16548 H 1509.38 2.64401 -6.17691 0
M  V30 16549 N 1512.1 1.42293 0.677538 0
M  V30 16550 C 1513.32 1.46008 1.46592 0
M  V30 16551 C 1513.74 0.0706015 1.88668 0
M  V30 16552 O 1513.1 -0.914076 1.57959 0
M  V30 16553 C 1513.15 2.38477 2.71682 0
M  V30 16554 O 1512.87 3.72019 2.31372 0
M  V30 16555 C 1514.37 2.51185 3.65269 0
M  V30 16556 H 1511.59 0.49669 0.451154 0
M  V30 16557 H 1514.13 1.86777 0.832736 0
M  V30 16558 H 1512.29 2.00969 3.31195 0
M  V30 16559 H 1512.7 4.21514 3.12131 0
M  V30 16560 H 1514.18 3.20014 4.49772 0
M  V30 16561 H 1514.65 1.54885 4.10983 0
M  V30 16562 H 1515.26 2.89404 3.1165 0
M  V30 16563 N 1513.57 -0.913576 1.28419 0
M  V30 16564 C 1514.52 -2.03739 1.1222 0
M  V30 16565 C 1515.52 -1.69349 0.0414309 0
M  V30 16566 O 1516.72 -1.78883 0.200213 0
M  V30 16567 H 1513.1 -0.667554 0.34623 0
M  V30 16568 H 1515.07 -2.14544 2.07397 0
M  V30 16569 C 1513.82 -3.38348 0.801003 0
M  V30 16570 H 1513.14 -3.65304 1.6246 0
M  V30 16571 H 1514.58 -4.1771 0.727611 0
M  V30 16572 C 1513.04 -3.3324 -0.495261 0
M  V30 16573 O 1513.57 -3.71606 -1.52551 0
M  V30 16574 N 1511.78 -2.86335 -0.496054 0
M  V30 16575 H 1511.32 -2.55309 0.342773 0
M  V30 16576 H 1511.28 -2.833 -1.3634 0
M  V30 16577 N 1515.05 -1.1067 -1.12204 0
M  V30 16578 C 1515.98 -0.779829 -2.20093 0
M  V30 16579 C 1516.96 0.248279 -1.68278 0
M  V30 16580 O 1518.15 0.113511 -1.93868 0
M  V30 16581 C 1515.28 -0.213511 -3.46643 0
M  V30 16582 C 1514.23 -1.17258 -4.11624 0
M  V30 16583 C 1513.56 -0.467352 -5.32654 0
M  V30 16584 C 1514.86 -2.52014 -4.57478 0
M  V30 16585 H 1516.55 -1.68192 -2.47693 0
M  V30 16586 H 1514.1 -0.810131 -1.1905 0
M  V30 16587 H 1516.05 0.0273225 -4.21391 0
M  V30 16588 H 1514.78 0.723837 -3.18478 0
M  V30 16589 H 1513.43 -1.39891 -3.3886 0
M  V30 16590 H 1513.08 0.474547 -5.00756 0
M  V30 16591 H 1512.78 -1.10694 -5.77079 0
M  V30 16592 H 1514.31 -0.235122 -6.10147 0
M  V30 16593 H 1515.72 -2.33516 -5.23587 0
M  V30 16594 H 1514.12 -3.1188 -5.1269 0
M  V30 16595 H 1515.19 -3.11831 -3.71335 0
M  V30 16596 N 1516.53 1.29665 -0.895815 0
M  V30 16597 C 1517.46 2.30268 -0.387151 0
M  V30 16598 C 1518.44 1.61442 0.535768 0
M  V30 16599 O 1519.63 1.88978 0.447321 0
M  V30 16600 C 1516.76 3.45107 0.389639 0
M  V30 16601 C 1515.71 4.25706 -0.442498 0
M  V30 16602 C 1515.04 5.32704 0.461552 0
M  V30 16603 C 1516.34 4.9419 -1.69036 0
M  V30 16604 H 1518.03 2.73064 -1.22786 0
M  V30 16605 H 1515.58 1.31274 -0.591869 0
M  V30 16606 H 1517.53 4.14559 0.756203 0
M  V30 16607 H 1516.25 3.01145 1.2641 0
M  V30 16608 H 1514.91 3.57957 -0.791343 0
M  V30 16609 H 1514.56 4.84987 1.33403 0
M  V30 16610 H 1514.26 5.87529 -0.0915006 0
M  V30 16611 H 1515.78 6.05009 0.824395 0
M  V30 16612 H 1517.2 5.561 -1.39376 0
M  V30 16613 H 1515.6 5.5893 -2.18444 0
M  V30 16614 H 1516.67 4.19699 -2.42859 0
M  V30 16615 N 1518.01 0.657889 1.43212 0
M  V30 16616 C 1519.26 0.170493 2.00978 0
M  V30 16617 C 1519.57 -1.22439 1.52539 0
M  V30 16618 O 1520.78 -1.80725 2.02609 0
M  V30 16619 C 1519.23 0.253982 3.59003 0
M  V30 16620 C 1518.84 1.65185 4.16435 0
M  V30 16621 C 1520.58 -0.17557 4.24137 0
M  V30 16622 C 1518.49 1.68902 5.66768 0
M  V30 16623 H 1517.42 0.0599767 0.751611 0
M  V30 16624 H 1520.07 0.820606 1.64129 0
M  V30 16625 H 1518.45 -0.463723 3.93275 0
M  V30 16626 H 1519.63 2.39529 3.93653 0
M  V30 16627 H 1517.94 2.02779 3.63689 0
M  V30 16628 H 1520.54 -0.167714 5.34437 0
M  V30 16629 H 1520.88 -1.20784 3.98393 0
M  V30 16630 H 1521.42 0.490544 3.94764 0
M  V30 16631 H 1518.16 2.70055 5.97286 0
M  V30 16632 H 1517.68 0.988906 5.91592 0
M  V30 16633 H 1519.35 1.43485 6.30889 0
M  V30 16634 N 1519.49 -1.52437 0.400108 0
M  V30 16635 C 1520.74 -2.00896 -0.179909 0
M  V30 16636 C 1521.05 -1.29046 -1.46991 0
M  V30 16637 O 1522.25 -1.68274 -2.13063 0
M  V30 16638 C 1520.71 -3.57981 -0.371169 0
M  V30 16639 C 1520.32 -4.38739 0.906213 0
M  V30 16640 C 1522.06 -4.14698 -0.906965 0
M  V30 16641 C 1519.97 -5.87447 0.682637 0
M  V30 16642 H 1518.9 -0.750649 -0.071008 0
M  V30 16643 H 1521.55 -1.75854 0.524169 0
M  V30 16644 H 1519.93 -3.79315 -1.13736 0
M  V30 16645 H 1521.11 -4.29167 1.67785 0
M  V30 16646 H 1519.42 -3.93296 1.36776 0
M  V30 16647 H 1522.02 -5.2347 -1.09012 0
M  V30 16648 H 1522.36 -3.71477 -1.87911 0
M  V30 16649 H 1522.89 -3.97297 -0.200068 0
M  V30 16650 H 1519.63 -6.35011 1.62608 0
M  V30 16651 H 1519.15 -5.99779 -0.0498716 0
M  V30 16652 H 1520.83 -6.46202 0.321331 0
M  V30 16653 N 1520.96 -0.130252 -1.57061 0
M  V30 16654 C 1521.89 0.812189 -2.18919 0
M  V30 16655 C 1522.88 1.2692 -1.13249 0
M  V30 16656 O 1524.06 1.32978 -1.41529 0
M  V30 16657 C 1521.19 2.05803 -2.79754 0
M  V30 16658 C 1520.14 1.73841 -3.91105 0
M  V30 16659 C 1519.47 3.05549 -4.38799 0
M  V30 16660 C 1520.77 0.997991 -5.12677 0
M  V30 16661 H 1522.46 0.296692 -2.97926 0
M  V30 16662 H 1520.01 0.141265 -1.43305 0
M  V30 16663 H 1521.96 2.72201 -3.21691 0
M  V30 16664 H 1520.69 2.59697 -1.98053 0
M  V30 16665 H 1519.35 1.09828 -3.49762 0
M  V30 16666 H 1518.99 3.57399 -3.53942 0
M  V30 16667 H 1518.69 2.84932 -5.13894 0
M  V30 16668 H 1520.22 3.73045 -4.83394 0
M  V30 16669 H 1521.63 1.56372 -5.51562 0
M  V30 16670 H 1520.03 0.892378 -5.93428 0
M  V30 16671 H 1521.1 -0.0132936 -4.84898 0
M  V30 16672 N 1522.44 1.56945 0.143535 0
M  V30 16673 C 1523.69 1.83538 0.855563 0
M  V30 16674 C 1524.02 0.711666 1.81013 0
M  V30 16675 O 1523.27 -0.299039 1.93402 0
M  V30 16676 C 1523.57 3.16482 1.66054 0
M  V30 16677 C 1523.24 4.42768 0.85246 0
M  V30 16678 C 1521.9 4.77064 0.629535 0
M  V30 16679 C 1524.25 5.20406 0.287567 0
M  V30 16680 C 1521.58 5.86457 -0.168934 0
M  V30 16681 C 1523.93 6.30637 -0.49796 0
M  V30 16682 C 1522.6 6.6348 -0.731429 0
M  V30 16683 H 1521.87 0.671615 0.313073 0
M  V30 16684 H 1524.51 1.9113 0.11904 0
M  V30 16685 H 1522.82 3.04357 2.46727 0
M  V30 16686 H 1524.52 3.34274 2.215 0
M  V30 16687 H 1521.11 4.15884 1.03628 0
M  V30 16688 H 1525.29 4.94282 0.447066 0
M  V30 16689 H 1520.55 6.10343 -0.359283 0
M  V30 16690 H 1524.72 6.89989 -0.942792 0
M  V30 16691 H 1522.35 7.48081 -1.35199 0
M  V30 16692 N 1523.92 -0.412991 1.52093 0
M  V30 16693 C 1525.15 -1.18667 1.70096 0
M  V30 16694 C 1525.57 -1.83622 0.408012 0
M  V30 16695 O 1524.93 -1.69847 -0.634174 0
M  V30 16696 C 1524.98 -2.22837 2.83507 0
M  V30 16697 O 1524.08 -3.2889 2.48807 0
M  V30 16698 H 1523.42 -0.346581 0.566373 0
M  V30 16699 H 1525.95 -0.484642 1.98777 0
M  V30 16700 H 1525.96 -2.67229 3.08306 0
M  V30 16701 H 1524.64 -1.74942 3.77317 0
M  V30 16702 H 1523.21 -2.89804 2.34665 0
M  V30 16703 N 1525.4 -1.4265 -0.669982 0
M  V30 16704 C 1526.33 -1.4094 -1.79475 0
M  V30 16705 C 1527.31 -0.273018 -1.60292 0
M  V30 16706 O 1528.49 -0.463994 -1.827 0
M  V30 16707 C 1525.62 -1.20489 -3.16544 0
M  V30 16708 C 1524.67 -2.37184 -3.54466 0
M  V30 16709 S 1525.5 -3.99722 -3.56346 0
M  V30 16710 C 1526.66 -3.81624 -4.96099 0
M  V30 16711 H 1526.89 -2.36119 -1.80652 0
M  V30 16712 H 1524.42 -1.2948 -0.841092 0
M  V30 16713 H 1526.38 -1.09377 -3.9566 0
M  V30 16714 H 1525.04 -0.268876 -3.12947 0
M  V30 16715 H 1524.23 -2.18636 -4.54108 0
M  V30 16716 H 1523.84 -2.44836 -2.82722 0
M  V30 16717 H 1526.13 -3.42912 -5.8431 0
M  V30 16718 H 1527.07 -4.8096 -5.19696 0
M  V30 16719 H 1527.48 -3.14397 -4.68844 0
M  V30 16720 N 1526.88 0.906753 -1.28902 0
M  V30 16721 C 1527.81 2.01159 -1.07752 0
M  V30 16722 C 1528.79 1.62598 0.00851506 0
M  V30 16723 O 1529.97 1.87973 -0.140797 0
M  V30 16724 C 1527.1 3.3262 -0.638877 0
M  V30 16725 C 1526.15 3.90166 -1.72258 0
M  V30 16726 S 1526.98 4.20147 -3.32019 0
M  V30 16727 C 1528.13 5.5466 -2.90006 0
M  V30 16728 H 1528.37 2.18791 -2.01291 0
M  V30 16729 H 1525.9 1.05249 -1.12969 0
M  V30 16730 H 1527.86 4.08619 -0.392507 0
M  V30 16731 H 1526.52 3.12878 0.276792 0
M  V30 16732 H 1525.71 4.85095 -1.36745 0
M  V30 16733 H 1525.31 3.20829 -1.92211 0
M  V30 16734 H 1527.61 6.34839 -2.36612 0
M  V30 16735 H 1528.55 5.95092 -3.83759 0
M  V30 16736 H 1528.96 5.16181 -2.28511 0
M  V30 16737 N 1528.36 1.11264 1.11616 0
M  V30 16738 C 1529.29 0.79149 2.19676 0
M  V30 16739 C 1530.27 -0.239351 1.68408 0
M  V30 16740 O 1531.45 -0.103228 1.93925 0
M  V30 16741 C 1528.58 0.231891 3.46525 0
M  V30 16742 C 1527.54 1.19439 4.10997 0
M  V30 16743 C 1526.86 0.495593 5.32398 0
M  V30 16744 C 1528.16 2.54437 4.56135 0
M  V30 16745 H 1529.86 1.69503 2.46797 0
M  V30 16746 H 1527.4 0.816433 1.18619 0
M  V30 16747 H 1529.35 -0.00497468 4.214 0
M  V30 16748 H 1528.08 -0.706938 3.18857 0
M  V30 16749 H 1526.74 1.41686 3.38113 0
M  V30 16750 H 1526.39 -0.447984 5.01001 0
M  V30 16751 H 1526.09 1.13753 5.76484 0
M  V30 16752 H 1527.61 0.267476 6.10014 0
M  V30 16753 H 1529.02 2.36289 5.22341 0
M  V30 16754 H 1527.42 3.14595 5.11028 0
M  V30 16755 H 1528.49 3.13795 3.69676 0
M  V30 16756 N 1529.83 -1.29188 0.902679 0
M  V30 16757 C 1530.77 -2.25842 0.327193 0
M  V30 16758 C 1531.74 -1.52567 -0.562321 0
M  V30 16759 O 1532.93 -1.81513 -0.508462 0
M  V30 16760 C 1530.06 -3.34475 -0.533338 0
M  V30 16761 C 1529.1 -4.25518 0.289268 0
M  V30 16762 S 1529.93 -5.08168 1.68896 0
M  V30 16763 C 1531.09 -6.20299 0.835428 0
M  V30 16764 H 1531.32 -2.74307 1.14644 0
M  V30 16765 H 1528.86 -1.37456 0.703212 0
M  V30 16766 H 1530.81 -3.97522 -1.02404 0
M  V30 16767 H 1529.48 -2.84699 -1.32685 0
M  V30 16768 H 1528.67 -5.02653 -0.368218 0
M  V30 16769 H 1528.27 -3.67136 0.71322 0
M  V30 16770 H 1530.56 -6.77473 0.0601329 0
M  V30 16771 H 1531.51 -6.90271 1.57896 0
M  V30 16772 H 1531.91 -5.63162 0.388497 0
M  V30 16773 N 1531.31 -0.665475 -1.42861 0
M  V30 16774 C 1532.54 -0.192 -2.06007 0
M  V30 16775 C 1532.95 1.1472 -1.49949 0
M  V30 16776 O 1532.31 1.71074 -0.635599 0
M  V30 16777 C 1532.36 -0.108189 -3.61338 0
M  V30 16778 O 1532.08 -1.39446 -4.15315 0
M  V30 16779 C 1533.58 0.3899 -4.41582 0
M  V30 16780 H 1530.8 -0.0955812 -0.664158 0
M  V30 16781 H 1533.35 -0.909582 -1.83158 0
M  V30 16782 H 1531.5 0.560024 -3.83331 0
M  V30 16783 H 1531.92 -1.26168 -5.09099 0
M  V30 16784 H 1533.39 0.39747 -5.50567 0
M  V30 16785 H 1533.87 1.42348 -4.15492 0
M  V30 16786 H 1534.47 -0.246248 -4.24587 0
M  V30 16787 N 1532.79 1.52222 -0.408187 0
M  V30 16788 C 1534.04 2.01404 0.167574 0
M  V30 16789 C 1534.36 1.29572 1.45726 0
M  V30 16790 O 1533.63 0.421363 1.91315 0
M  V30 16791 H 1532.21 0.744174 0.0649156 0
M  V30 16792 H 1534.87 1.87148 -0.544212 0
M  V30 16793 H 1533.97 3.09966 0.36436 0
M  V30 16794 N 1534.27 0.138579 1.5699 0
M  V30 16795 C 1535.2 -0.842105 2.12094 0
M  V30 16796 C 1536.18 -1.24798 1.04232 0
M  V30 16797 O 1537.36 -1.34557 1.3201 0
M  V30 16798 C 1534.49 -2.1296 2.63373 0
M  V30 16799 C 1533.54 -1.8703 3.83304 0
M  V30 16800 S 1534.37 -1.06889 5.24724 0
M  V30 16801 C 1535.52 -2.36776 5.79386 0
M  V30 16802 H 1535.76 -0.373475 2.94945 0
M  V30 16803 H 1533.29 -0.0755566 1.54215 0
M  V30 16804 H 1535.25 -2.86927 2.9357 0
M  V30 16805 H 1533.91 -2.56939 1.80668 0
M  V30 16806 H 1533.1 -2.82478 4.17399 0
M  V30 16807 H 1532.7 -1.21176 3.53825 0
M  V30 16808 H 1535 -3.32486 5.90304 0
M  V30 16809 H 1535.94 -2.07197 6.77108 0
M  V30 16810 H 1536.35 -2.47039 5.07575 0
M  V30 16811 N 1535.75 -1.57019 -0.13521 0
M  V30 16812 C 1537.16 -1.73319 -0.694067 0
M  V30 16813 C 1537.51 -0.754808 -1.811 0
M  V30 16814 O 1536.63 0.0759463 -2.16267 0
M  V30 16815 C 1537.23 -3.14266 -1.26579 0
M  V30 16816 C 1535.79 -3.32128 -1.7711 0
M  V30 16817 C 1534.93 -2.69226 -0.664263 0
M  V30 16818 H 1537.88 -1.58441 0.0905702 0
M  V30 16819 H 1537.91 -3.14919 -2.13557 0
M  V30 16820 H 1537.42 -3.85451 -0.452652 0
M  V30 16821 H 1535.52 -2.65959 -2.60953 0
M  V30 16822 H 1535.63 -4.40172 -1.8917 0
M  V30 16823 H 1534 -2.30016 -1.09384 0
M  V30 16824 H 1534.78 -3.43024 0.13763 0
M  V30 16825 N 1537.22 0.404919 -1.52309 0
M  V30 16826 C 1538.16 1.51276 -1.72186 0
M  V30 16827 C 1539.17 1.5125 -0.602276 0
M  V30 16828 O 1540.36 1.55439 -0.877549 0
M  V30 16829 C 1537.46 2.90162 -1.75099 0
M  V30 16830 C 1536.63 3.14333 -3.04161 0
M  V30 16831 C 1535.69 4.33113 -2.9883 0
M  V30 16832 O 1534.72 4.30189 -3.72728 0
M  V30 16833 N 1535.92 5.38451 -2.16911 0
M  V30 16834 H 1538.68 1.34618 -2.67765 0
M  V30 16835 H 1536.24 0.594264 -1.50599 0
M  V30 16836 H 1538.24 3.67697 -1.69058 0
M  V30 16837 H 1536.81 3.00257 -0.869756 0
M  V30 16838 H 1536.03 2.24803 -3.23817 0
M  V30 16839 H 1537.31 3.27327 -3.89531 0
M  V30 16840 H 1536.71 5.43676 -1.56309 0
M  V30 16841 H 1535.27 6.14715 -2.16724 0
M  V30 16842 N 1538.7 1.43003 0.662408 0
M  V30 16843 C 1539.63 1.50248 1.78739 0
M  V30 16844 C 1540.61 0.357934 1.66291 0
M  V30 16845 O 1541.8 0.573919 1.85526 0
M  V30 16846 C 1538.93 1.41618 3.17114 0
M  V30 16847 C 1537.88 2.54228 3.44314 0
M  V30 16848 C 1537.21 2.30653 4.82393 0
M  V30 16849 C 1538.51 3.96505 3.39972 0
M  V30 16850 H 1540.2 2.44406 1.72934 0
M  V30 16851 H 1537.75 1.17633 0.830569 0
M  V30 16852 H 1539.7 1.45293 3.9556 0
M  V30 16853 H 1538.43 0.439605 3.23628 0
M  V30 16854 H 1537.08 2.49891 2.68235 0
M  V30 16855 H 1536.73 1.3126 4.85572 0
M  V30 16856 H 1536.43 3.06134 5.01554 0
M  V30 16857 H 1537.96 2.36096 5.63108 0
M  V30 16858 H 1539.37 4.02378 4.08368 0
M  V30 16859 H 1537.77 4.71937 3.70668 0
M  V30 16860 H 1538.84 4.22295 2.38318 0
M  V30 16861 N 1540.18 -0.899904 1.29381 0
M  V30 16862 C 1541.41 -1.68383 1.20227 0
M  V30 16863 C 1541.82 -1.87305 -0.237135 0
M  V30 16864 O 1541.18 -1.40992 -1.15877 0
M  V30 16865 C 1541.23 -3.06845 1.91124 0
M  V30 16866 O 1540.95 -2.88787 3.29444 0
M  V30 16867 C 1542.45 -4.01253 1.88444 0
M  V30 16868 H 1539.67 -0.525917 0.416717 0
M  V30 16869 H 1542.22 -1.12537 1.7075 0
M  V30 16870 H 1540.37 -3.59467 1.44438 0
M  V30 16871 H 1540.79 -3.7652 3.65148 0
M  V30 16872 H 1542.26 -4.95824 2.42616 0
M  V30 16873 H 1542.74 -4.30699 0.859925 0
M  V30 16874 H 1543.34 -3.54562 2.34874 0
M  V30 16875 N 1541.66 -1.11854 -1.11024 0
M  V30 16876 C 1542.88 -0.892999 -1.8719 0
M  V30 16877 C 1543.31 0.552058 -1.79816 0
M  V30 16878 O 1542.67 1.39025 -1.16369 0
M  V30 16879 C 1542.71 -1.3647 -3.33779 0
M  V30 16880 O 1541.82 -0.539202 -4.0886 0
M  V30 16881 H 1541.16 -0.321319 -0.581076 0
M  V30 16882 H 1543.69 -1.4891 -1.4031 0
M  V30 16883 H 1543.7 -1.3611 -3.84627 0
M  V30 16884 H 1542.37 -2.41694 -3.38462 0
M  V30 16885 H 1540.95 -0.60927 -3.67889 0
M  V30 16886 N 1543.14 1.28707 -0.909517 0
M  V30 16887 C 1544.08 2.27427 -0.393155 0
M  V30 16888 C 1545.05 1.57414 0.53009 0
M  V30 16889 O 1546.24 1.85339 0.453205 0
M  V30 16890 C 1543.38 3.4317 0.364507 0
M  V30 16891 C 1542.49 4.27942 -0.590757 0
M  V30 16892 C 1541.63 5.30878 0.184931 0
M  V30 16893 C 1540.67 6.07311 -0.764222 0
M  V30 16894 N 1539.8 7.02096 -0.0223203 0
M  V30 16895 H 1544.64 2.70974 -1.24005 0
M  V30 16896 H 1542.18 1.33265 -0.6228 0
M  V30 16897 H 1544.14 4.09063 0.819937 0
M  V30 16898 H 1542.77 3.00625 1.17578 0
M  V30 16899 H 1541.82 3.62131 -1.16471 0
M  V30 16900 H 1543.13 4.81102 -1.31689 0
M  V30 16901 H 1542.29 6.02635 0.701116 0
M  V30 16902 H 1541.02 4.78474 0.944143 0
M  V30 16903 H 1540.03 5.34408 -1.29182 0
M  V30 16904 H 1541.25 6.61804 -1.52292 0
M  V30 16905 H 1539.2 6.52048 0.718978 0
M  V30 16906 H 1539.12 7.5286 -0.688359 0
M  V30 16907 H 1540.39 7.78059 0.473807 0
M  V30 16908 N 1544.61 0.673042 1.42506 0
M  V30 16909 C 1545.52 -0.00648572 2.34599 0
M  V30 16910 C 1546.54 -0.790758 1.54994 0
M  V30 16911 O 1547.72 -0.733482 1.87569 0
M  V30 16912 C 1544.78 -0.94734 3.33506 0
M  V30 16913 C 1543.84 -0.157795 4.2901 0
M  V30 16914 C 1543.08 -1.05384 5.23192 0
M  V30 16915 O 1543.3 -2.29334 5.22266 0
M  V30 16916 O 1542.23 -0.515584 5.99688 0
M  V30 16917 H 1546.06 0.752059 2.94241 0
M  V30 16918 H 1543.64 0.433272 1.42979 0
M  V30 16919 H 1545.53 -1.4875 3.94273 0
M  V30 16920 H 1544.2 -1.68577 2.7634 0
M  V30 16921 H 1543.11 0.426426 3.71662 0
M  V30 16922 H 1544.44 0.54148 4.89212 0
M  V30 16923 N 1546.09 -1.52004 0.416254 0
M  V30 16924 C 1547.37 -1.94403 -0.216103 0
M  V30 16925 C 1547.75 -1.35362 -1.61989 0
M  V30 16926 O 1547.1 -0.532242 -2.22215 0
M  V30 16927 C 1547.31 -3.48336 -0.215225 0
M  V30 16928 C 1548.66 -4.22406 -0.431109 0
M  V30 16929 O 1549.68 -3.54982 -0.294271 0
M  V30 16930 O 1548.54 -5.4198 -0.70145 0
M  V30 16931 H 1545.63 -0.814838 -0.141306 0
M  V30 16932 H 1548.18 -1.62983 0.472712 0
M  V30 16933 H 1546.95 -3.83709 0.767004 0
M  V30 16934 H 1546.57 -3.86137 -0.947841 0
M  V30 16935 N 1547.57 -0.146903 -1.56914 0
M  V30 16936 C 1548.82 0.504195 -1.95297 0
M  V30 16937 C 1549.13 1.66019 -1.03426 0
M  V30 16938 O 1550.34 2.37591 -1.31388 0
M  V30 16939 C 1548.79 0.948348 -3.47181 0
M  V30 16940 C 1548.4 -0.18071 -4.47635 0
M  V30 16941 C 1550.15 1.56924 -3.9443 0
M  V30 16942 C 1548.05 0.281707 -5.90729 0
M  V30 16943 H 1546.98 0.192127 -0.729111 0
M  V30 16944 H 1549.63 -0.231232 -1.82037 0
M  V30 16945 H 1548.02 1.73903 -3.55772 0
M  V30 16946 H 1549.19 -0.957645 -4.50739 0
M  V30 16947 H 1547.51 -0.710007 -4.10302 0
M  V30 16948 H 1550.1 1.92684 -4.98776 0
M  V30 16949 H 1550.45 2.45816 -3.35976 0
M  V30 16950 H 1550.98 0.843456 -3.88755 0
M  V30 16951 H 1547.72 -0.571839 -6.53001 0
M  V30 16952 H 1547.24 1.02452 -5.90985 0
M  V30 16953 H 1548.92 0.733746 -6.42826 0
M  V30 16954 N 1549.05 1.57088 0.126881 0
M  V30 16955 C 1549.96 2.03053 1.17502 0
M  V30 16956 C 1550.97 0.949484 1.45811 0
M  V30 16957 O 1552.15 1.26043 1.57083 0
M  V30 16958 C 1549.22 2.41897 2.48368 0
M  V30 16959 C 1548.28 3.64047 2.27527 0
M  V30 16960 C 1547.51 4.01029 3.52153 0
M  V30 16961 O 1547.73 3.38441 4.59145 0
M  V30 16962 O 1546.67 4.94174 3.43622 0
M  V30 16963 H 1550.49 2.92568 0.814733 0
M  V30 16964 H 1548.08 1.45547 0.3371 0
M  V30 16965 H 1549.96 2.67652 3.25485 0
M  V30 16966 H 1548.63 1.55531 2.83887 0
M  V30 16967 H 1547.54 3.43452 1.48294 0
M  V30 16968 H 1548.87 4.51093 1.96916 0
M  V30 16969 N 1550.53 -0.396836 1.52522 0
M  V30 16970 C 1551.76 -1.16235 1.70801 0
M  V30 16971 C 1552.16 -1.8442 0.422591 0
M  V30 16972 O 1551.51 -1.732 -0.612171 0
M  V30 16973 C 1551.57 -2.25922 2.79642 0
M  V30 16974 C 1551.23 -1.7777 4.21007 0
M  V30 16975 C 1552.23 -1.25873 5.04432 0
M  V30 16976 C 1549.92 -1.84231 4.67295 0
M  V30 16977 C 1551.91 -0.810733 6.32223 0
M  V30 16978 C 1549.6 -1.39043 5.95072 0
M  V30 16979 C 1550.59 -0.875508 6.77365 0
M  V30 16980 O 1550.28 -0.430197 8.02748 0
M  V30 16981 H 1550.01 -0.354799 0.575407 0
M  V30 16982 H 1552.57 -0.471344 1.99919 0
M  V30 16983 H 1550.8 -2.98424 2.45927 0
M  V30 16984 H 1552.49 -2.87629 2.86399 0
M  V30 16985 H 1553.25 -1.20244 4.69858 0
M  V30 16986 H 1549.13 -2.23253 4.03335 0
M  V30 16987 H 1552.68 -0.408137 6.96405 0
M  V30 16988 H 1548.57 -1.44354 6.29152 0
M  V30 16989 H 1549.34 -0.552389 8.16634 0
M  V30 16990 N 1552.01 -1.43353 -0.654814 0
M  V30 16991 C 1553.25 -1.44172 -1.41058 0
M  V30 16992 C 1553.57 -0.0690586 -1.95478 0
M  V30 16993 O 1554.77 0.0453021 -2.71462 0
M  V30 16994 C 1553.23 -2.53701 -2.55272 0
M  V30 16995 C 1552.84 -3.97066 -2.07466 0
M  V30 16996 C 1554.58 -2.63713 -3.3265 0
M  V30 16997 C 1552.49 -4.98065 -3.18881 0
M  V30 16998 H 1551.42 -0.536303 -0.529995 0
M  V30 16999 H 1554.07 -1.69336 -0.706941 0
M  V30 17000 H 1552.45 -2.21736 -3.28099 0
M  V30 17001 H 1553.63 -4.38485 -1.4166 0
M  V30 17002 H 1551.94 -3.91086 -1.42972 0
M  V30 17003 H 1554.54 -3.36346 -4.15663 0
M  V30 17004 H 1554.88 -1.68729 -3.80574 0
M  V30 17005 H 1555.41 -2.94971 -2.66902 0
M  V30 17006 H 1552.15 -5.94596 -2.75927 0
M  V30 17007 H 1551.67 -4.61261 -3.83404 0
M  V30 17008 H 1553.35 -5.20696 -3.84037 0
M  V30 17009 N 1553.48 0.89303 -1.29857 0
M  V30 17010 C 1554.9 1.17496 -1.08013 0
M  V30 17011 C 1555.1 2.00829 0.164302 0
M  V30 17012 O 1554.16 2.37396 0.860194 0
M  V30 17013 C 1555.47 1.88944 -2.33924 0
M  V30 17014 C 1557.02 2.01742 -2.3931 0
M  V30 17015 C 1557.49 2.76601 -3.65042 0
M  V30 17016 N 1558.98 2.84152 -3.65803 0
M  V30 17017 C 1559.72 3.42628 -4.59776 0
M  V30 17018 N 1559.21 4.02218 -5.64086 0
M  V30 17019 N 1561.01 3.40366 -4.47334 0
M  V30 17020 H 1553.16 0.33719 -2.09706 0
M  V30 17021 H 1555.42 0.211899 -0.924014 0
M  V30 17022 H 1555.13 1.35151 -3.24695 0
M  V30 17023 H 1555 2.89379 -2.4195 0
M  V30 17024 H 1557.39 2.54708 -1.49022 0
M  V30 17025 H 1557.47 1.0042 -2.35265 0
M  V30 17026 H 1557.11 2.24309 -4.55684 0
M  V30 17027 H 1557.04 3.78283 -3.66346 0
M  V30 17028 H 1559.53 2.41835 -2.90386 0
M  V30 17029 H 1559.85 4.4488 -6.31903 0
M  V30 17030 H 1558.19 4.00661 -5.67887 0
M  V30 17031 H 1561.38 2.93035 -3.65031 0
M  V30 17032 H 1561.56 3.85644 -5.20752 0
M  V30 17033 N 1554.96 1.12442 1.10429 0
M  V30 17034 C 1556.24 0.791191 1.78884 0
M  V30 17035 C 1556.62 -0.719044 1.98477 0
M  V30 17036 O 1555.97 -1.65275 1.57786 0
M  V30 17037 C 1556.18 1.56632 3.11877 0
M  V30 17038 C 1557.52 1.75236 3.86752 0
M  V30 17039 O 1558.55 1.53145 3.21598 0
M  V30 17040 O 1557.41 2.12025 5.03694 0
M  V30 17041 H 1554.5 0.287788 0.775311 0
M  V30 17042 H 1557.05 1.22844 1.17078 0
M  V30 17043 H 1555.82 2.59317 2.93037 0
M  V30 17044 H 1555.44 1.12332 3.81402 0
M  V30 17045 N 1556.44 -1.28223 0.91633 0
M  V30 17046 C 1557.4 -2.25477 0.411423 0
M  V30 17047 C 1558.4 -1.53969 -0.463689 0
M  V30 17048 O 1559.59 -1.72151 -0.266379 0
M  V30 17049 C 1556.72 -3.38427 -0.409851 0
M  V30 17050 H 1557.92 -2.71656 1.27056 0
M  V30 17051 H 1555.47 -1.3995 0.695966 0
M  V30 17052 H 1556.21 -2.97614 -1.28828 0
M  V30 17053 H 1555.99 -3.91497 0.217435 0
M  V30 17054 H 1557.48 -4.10739 -0.753862 0
M  V30 17055 N 1557.92 -0.68059 -1.42147 0
M  V30 17056 C 1558.85 -0.0199376 -2.33491 0
M  V30 17057 C 1559.83 0.783164 -1.50999 0
M  V30 17058 O 1561.01 0.739154 -1.79583 0
M  V30 17059 C 1558.14 0.927902 -3.34675 0
M  V30 17060 C 1557.1 0.232979 -4.27365 0
M  V30 17061 C 1556.42 1.29415 -5.18802 0
M  V30 17062 C 1557.72 -0.891559 -5.14634 0
M  V30 17063 H 1559.42 -0.782823 -2.88985 0
M  V30 17064 H 1556.96 -0.377898 -1.38953 0
M  V30 17065 H 1558.92 1.3992 -3.97493 0
M  V30 17066 H 1557.64 1.72228 -2.77498 0
M  V30 17067 H 1556.3 -0.21814 -3.6595 0
M  V30 17068 H 1555.95 2.08067 -4.57949 0
M  V30 17069 H 1555.65 0.834274 -5.81647 0
M  V30 17070 H 1557.17 1.76627 -5.84496 0
M  V30 17071 H 1558.59 -0.501219 -5.71105 0
M  V30 17072 H 1556.98 -1.27759 -5.86343 0
M  V30 17073 H 1558.05 -1.73781 -4.5269 0
M  V30 17074 N 1559.4 1.51781 -0.424309 0
M  V30 17075 C 1560.62 2.06387 0.145548 0
M  V30 17076 C 1561.04 1.29299 1.37576 0
M  V30 17077 O 1560.4 0.348952 1.79133 0
M  V30 17078 C 1560.45 3.58288 0.48083 0
M  V30 17079 O 1560.17 4.32463 -0.700546 0
M  V30 17080 C 1561.67 4.29364 1.10278 0
M  V30 17081 H 1558.89 0.67086 0.0136908 0
M  V30 17082 H 1561.43 1.95511 -0.599639 0
M  V30 17083 H 1559.59 3.69122 1.17591 0
M  V30 17084 H 1560 5.22839 -0.417035 0
M  V30 17085 H 1561.48 5.36776 1.28747 0
M  V30 17086 H 1561.95 3.86815 2.08017 0
M  V30 17087 H 1562.56 4.2294 0.447458 0
M  V30 17088 N 1560.87 0.155222 1.56834 0
M  V30 17089 C 1562.12 -0.494557 1.96677 0
M  V30 17090 C 1562.45 -1.63973 1.04051 0
M  V30 17091 O 1561.73 -1.94316 0.0844791 0
M  V30 17092 C 1562.01 -0.992902 3.46141 0
M  V30 17093 C 1561.86 0.151335 4.49545 0
M  V30 17094 C 1563.18 -1.87197 3.98303 0
M  V30 17095 H 1560.3 -0.178298 0.715107 0
M  V30 17096 H 1562.94 0.23811 1.88502 0
M  V30 17097 H 1561.09 -1.61724 3.53239 0
M  V30 17098 H 1562.77 0.787945 4.54521 0
M  V30 17099 H 1561.01 0.809262 4.26185 0
M  V30 17100 H 1561.68 -0.23921 5.51481 0
M  V30 17101 H 1564.16 -1.34578 3.93736 0
M  V30 17102 H 1563.03 -2.18972 5.03331 0
M  V30 17103 H 1563.29 -2.81191 3.41151 0
M  V30 17104 N 1562.35 -1.57153 -0.118549 0
M  V30 17105 C 1563.6 -1.84511 -0.824623 0
M  V30 17106 C 1563.92 -0.740473 -1.80394 0
M  V30 17107 O 1563.19 0.235481 -1.9448 0
M  V30 17108 H 1561.77 -0.680764 -0.307522 0
M  V30 17109 H 1564.43 -1.94613 -0.105764 0
M  V30 17110 H 1563.53 -2.80444 -1.36958 0
M  V30 17111 N 1563.83 0.388742 -1.5273 0
M  V30 17112 C 1564.78 1.47488 -1.77527 0
M  V30 17113 C 1565.75 1.54155 -0.618505 0
M  V30 17114 O 1566.93 1.70407 -0.858251 0
M  V30 17115 C 1564.07 2.84714 -1.95018 0
M  V30 17116 C 1563.18 2.87197 -3.2271 0
M  V30 17117 C 1562.32 4.15851 -3.30517 0
M  V30 17118 C 1561.36 4.12386 -4.52332 0
M  V30 17119 N 1560.5 5.32647 -4.57418 0
M  V30 17120 H 1565.34 1.25644 -2.70218 0
M  V30 17121 H 1562.87 0.609519 -1.33878 0
M  V30 17122 H 1564.83 3.64402 -2.03143 0
M  V30 17123 H 1563.46 3.05008 -1.05688 0
M  V30 17124 H 1562.51 1.99879 -3.23655 0
M  V30 17125 H 1563.82 2.80505 -4.12454 0
M  V30 17126 H 1562.98 5.03943 -3.37827 0
M  V30 17127 H 1561.72 4.25265 -2.38748 0
M  V30 17128 H 1560.72 3.22683 -4.45147 0
M  V30 17129 H 1561.95 4.04594 -5.45418 0
M  V30 17130 H 1559.89 5.42691 -3.68541 0
M  V30 17131 H 1559.81 5.28032 -5.41035 0
M  V30 17132 H 1561.08 6.22636 -4.68983 0
M  V30 17133 N 1565.31 1.43698 0.647203 0
M  V30 17134 C 1566.26 1.49599 1.78109 0
M  V30 17135 C 1567.25 0.369047 1.65331 0
M  V30 17136 O 1568.46 0.543303 1.71605 0
M  V30 17137 H 1564.83 0.46911 0.587741 0
M  V30 17138 H 1566.8 2.45064 1.70253 0
M  V30 17139 C 1565.55 1.44192 3.16392 0
M  V30 17140 H 1564.87 2.30216 3.26865 0
M  V30 17141 H 1566.31 1.52382 3.95671 0
M  V30 17142 C 1564.77 0.16036 3.36518 0
M  V30 17143 O 1565.3 -0.77593 3.94135 0
M  V30 17144 N 1563.51 0.0686236 2.90519 0
M  V30 17145 H 1563.06 0.831363 2.43816 0
M  V30 17146 H 1563.01 -0.78814 3.04361 0
M  V30 17147 N 1566.79 -0.886131 1.30328 0
M  V30 17148 C 1567.7 -2.02453 1.18532 0
M  V30 17149 C 1568.71 -1.7368 0.105506 0
M  V30 17150 O 1569.89 -1.98838 0.320217 0
M  V30 17151 C 1566.95 -3.3543 0.876792 0
M  V30 17152 C 1566.01 -3.77633 2.04185 0
M  V30 17153 C 1565.25 -5.04264 1.74795 0
M  V30 17154 O 1565.47 -5.66388 0.675323 0
M  V30 17155 O 1564.4 -5.42847 2.60001 0
M  V30 17156 H 1568.23 -2.15333 2.14162 0
M  V30 17157 H 1565.82 -1.01193 1.09911 0
M  V30 17158 H 1567.7 -4.15206 0.719882 0
M  V30 17159 H 1566.37 -3.23662 -0.0496117 0
M  V30 17160 H 1565.28 -2.98567 2.25408 0
M  V30 17161 H 1566.61 -3.94004 2.94994 0
M  V30 17162 N 1568.26 -1.13026 -1.09832 0
M  V30 17163 C 1569.17 -0.817051 -2.19912 0
M  V30 17164 C 1570.19 0.19667 -1.72885 0
M  V30 17165 O 1571.37 0.0287402 -2.01379 0
M  V30 17166 C 1568.43 -0.28304 -3.45543 0
M  V30 17167 C 1567.49 -1.35748 -4.07273 0
M  V30 17168 C 1566.73 -0.848855 -5.26906 0
M  V30 17169 O 1566.95 0.315104 -5.69529 0
M  V30 17170 O 1565.88 -1.62128 -5.79653 0
M  V30 17171 H 1569.71 -1.73663 -2.49148 0
M  V30 17172 H 1567.29 -0.907391 -1.18688 0
M  V30 17173 H 1569.18 0.00956876 -4.21399 0
M  V30 17174 H 1567.85 0.609018 -3.17919 0
M  V30 17175 H 1566.76 -1.70334 -3.33072 0
M  V30 17176 H 1568.09 -2.22353 -4.39113 0
M  V30 17177 N 1569.74 1.27735 -0.923117 0
M  V30 17178 C 1571.02 1.89626 -0.479724 0
M  V30 17179 C 1571.4 1.83592 1.04197 0
M  V30 17180 O 1570.75 1.27808 1.89413 0
M  V30 17181 C 1570.96 3.33742 -1.02064 0
M  V30 17182 C 1572.31 4.10678 -1.07837 0
M  V30 17183 O 1573.33 3.4274 -0.969943 0
M  V30 17184 O 1572.19 5.32135 -1.24476 0
M  V30 17185 H 1569.28 0.812615 -0.153575 0
M  V30 17186 H 1571.83 1.36036 -1.01451 0
M  V30 17187 H 1570.6 3.32404 -2.06454 0
M  V30 17188 H 1570.22 3.94845 -0.467234 0
M  V30 17189 N 1571.22 0.688118 1.41784 0
M  V30 17190 C 1572.18 0.0271411 2.29184 0
M  V30 17191 C 1573.18 -0.715537 1.44002 0
M  V30 17192 O 1574.37 -0.551542 1.65238 0
M  V30 17193 C 1571.51 -0.97206 3.26747 0
M  V30 17194 H 1572.7 0.79658 2.89127 0
M  V30 17195 H 1570.25 0.451198 1.49646 0
M  V30 17196 H 1570.99 -1.76953 2.71769 0
M  V30 17197 H 1570.77 -0.442746 3.89592 0
M  V30 17198 H 1572.26 -1.43256 3.92259 0
M  V30 17199 N 1572.7 -1.51554 0.432352 0
M  V30 17200 C 1573.65 -2.27623 -0.381602 0
M  V30 17201 C 1574.62 -1.31003 -1.02114 0
M  V30 17202 O 1575.8 -1.59899 -1.041 0
M  V30 17203 C 1572.94 -3.11772 -1.47959 0
M  V30 17204 C 1572.05 -4.2338 -0.858682 0
M  V30 17205 C 1571.19 -4.94847 -1.93131 0
M  V30 17206 C 1570.23 -5.98383 -1.28856 0
M  V30 17207 N 1569.36 -6.63278 -2.30233 0
M  V30 17208 H 1574.2 -2.96743 0.273472 0
M  V30 17209 H 1571.74 -1.46367 0.146706 0
M  V30 17210 H 1573.7 -3.58882 -2.12742 0
M  V30 17211 H 1572.33 -2.44778 -2.10437 0
M  V30 17212 H 1571.38 -3.8027 -0.0992797 0
M  V30 17213 H 1572.69 -4.97575 -0.349381 0
M  V30 17214 H 1571.85 -5.4548 -2.65587 0
M  V30 17215 H 1570.59 -4.20272 -2.47432 0
M  V30 17216 H 1569.59 -5.47048 -0.549441 0
M  V30 17217 H 1570.82 -6.74913 -0.752941 0
M  V30 17218 H 1568.76 -5.91518 -2.83624 0
M  V30 17219 H 1568.68 -7.33221 -1.84181 0
M  V30 17220 H 1569.95 -7.18542 -3.02188 0
M  V30 17221 N 1574.18 -0.163538 -1.56749 0
M  V30 17222 C 1575.12 0.769787 -2.17584 0
M  V30 17223 C 1576.09 1.23246 -1.11354 0
M  V30 17224 O 1577.28 1.30203 -1.3947 0
M  V30 17225 C 1574.42 1.99685 -2.81461 0
M  V30 17226 C 1573.53 1.57846 -4.0213 0
M  V30 17227 C 1572.67 2.75858 -4.53955 0
M  V30 17228 C 1571.71 2.30473 -5.67053 0
M  V30 17229 N 1570.84 3.41551 -6.13423 0
M  V30 17230 H 1575.68 0.244221 -2.96998 0
M  V30 17231 H 1573.22 0.108821 -1.46697 0
M  V30 17232 H 1575.18 2.71643 -3.16648 0
M  V30 17233 H 1573.81 2.49624 -2.04664 0
M  V30 17234 H 1572.86 0.755907 -3.72814 0
M  V30 17235 H 1574.17 1.20525 -4.8402 0
M  V30 17236 H 1573.33 3.55984 -4.91284 0
M  V30 17237 H 1572.06 3.16434 -3.71107 0
M  V30 17238 H 1571.07 1.48791 -5.29284 0
M  V30 17239 H 1572.29 1.90964 -6.51698 0
M  V30 17240 H 1570.24 3.81717 -5.33506 0
M  V30 17241 H 1570.16 3.08298 -6.90281 0
M  V30 17242 H 1571.43 4.21985 -6.554 0
M  V30 17243 N 1575.65 1.57214 0.110213 0
M  V30 17244 C 1576.88 1.8923 0.829187 0
M  V30 17245 C 1577.29 0.753834 1.73534 0
M  V30 17246 O 1576.64 -0.283946 1.81492 0
M  V30 17247 C 1576.7 3.16351 1.7077 0
M  V30 17248 C 1576.36 4.46479 0.974949 0
M  V30 17249 C 1577.36 5.18965 0.311696 0
M  V30 17250 C 1575.04 4.93167 0.953516 0
M  V30 17251 C 1577.04 6.36364 -0.363191 0
M  V30 17252 C 1574.72 6.10482 0.274836 0
M  V30 17253 C 1575.72 6.81929 -0.382355 0
M  V30 17254 O 1575.41 7.97011 -1.05019 0
M  V30 17255 H 1575.14 0.630744 0.243184 0
M  V30 17256 H 1577.7 2.05173 0.09648 0
M  V30 17257 H 1575.93 2.96513 2.48227 0
M  V30 17258 H 1577.62 3.34317 2.30189 0
M  V30 17259 H 1578.38 4.83944 0.319815 0
M  V30 17260 H 1574.26 4.37454 1.45448 0
M  V30 17261 H 1577.8 6.92069 -0.876728 0
M  V30 17262 H 1573.7 6.44958 0.26451 0
M  V30 17263 H 1574.47 8.12903 -0.95555 0
M  V30 17264 N 1577.13 -0.380637 1.52934 0
M  V30 17265 C 1578.38 -1.12483 1.68386 0
M  V30 17266 C 1578.71 -1.89733 0.427993 0
M  V30 17267 O 1577.96 -1.86601 -0.589795 0
M  V30 17268 C 1578.26 -2.1227 2.87535 0
M  V30 17269 C 1577.93 -1.51615 4.24645 0
M  V30 17270 C 1576.59 -1.348 4.61933 0
M  V30 17271 C 1578.94 -1.07595 5.09973 0
M  V30 17272 C 1576.27 -0.725254 5.822 0
M  V30 17273 C 1578.62 -0.467273 6.30872 0
M  V30 17274 C 1577.29 -0.286488 6.66885 0
M  V30 17275 H 1576.56 -0.411606 0.616167 0
M  V30 17276 H 1579.2 -0.408435 1.87094 0
M  V30 17277 H 1577.51 -2.90159 2.63277 0
M  V30 17278 H 1579.2 -2.69777 2.96684 0
M  V30 17279 H 1575.79 -1.65693 3.95277 0
M  V30 17280 H 1579.98 -1.19385 4.81727 0
M  V30 17281 H 1575.23 -0.573461 6.08705 0
M  V30 17282 H 1579.41 -0.117914 6.963 0
M  V30 17283 H 1577.04 0.198141 7.59942 0
M  V30 17284 N 1578.61 -1.44039 -0.639573 0
M  V30 17285 C 1579.54 -1.53073 -1.76327 0
M  V30 17286 C 1580.52 -0.384344 -1.65701 0
M  V30 17287 O 1581.71 -0.603362 -1.84589 0
M  V30 17288 C 1578.84 -1.46646 -3.14821 0
M  V30 17289 C 1577.79 -2.59673 -3.40226 0
M  V30 17290 C 1577.12 -2.38298 -4.78663 0
M  V30 17291 C 1578.42 -4.01864 -3.33621 0
M  V30 17292 H 1580.11 -2.47126 -1.69023 0
M  V30 17293 H 1577.66 -1.1894 -0.811749 0
M  V30 17294 H 1579.61 -1.51567 -3.93199 0
M  V30 17295 H 1578.33 -0.491035 -3.22888 0
M  V30 17296 H 1576.99 -2.54127 -2.64225 0
M  V30 17297 H 1576.64 -1.38968 -4.83422 0
M  V30 17298 H 1576.34 -3.14074 -4.9662 0
M  V30 17299 H 1577.86 -2.45025 -5.59281 0
M  V30 17300 H 1579.28 -4.08824 -4.01915 0
M  V30 17301 H 1577.68 -4.77775 -3.63113 0
M  V30 17302 H 1578.75 -4.26033 -2.31569 0
M  V30 17303 N 1580.09 0.879207 -1.30796 0
M  V30 17304 C 1581.37 1.61328 -1.10602 0
M  V30 17305 C 1581.75 2.08301 0.342621 0
M  V30 17306 O 1581.09 1.85436 1.33514 0
M  V30 17307 C 1581.3 2.77838 -2.11203 0
M  V30 17308 C 1582.65 3.48028 -2.43231 0
M  V30 17309 O 1583.68 2.88034 -2.09559 0
M  V30 17310 O 1582.53 4.56233 -3.00854 0
M  V30 17311 H 1579.63 0.709335 -0.425174 0
M  V30 17312 H 1582.17 0.925478 -1.42243 0
M  V30 17313 H 1580.95 2.40475 -3.08687 0
M  V30 17314 H 1580.57 3.54312 -1.80414 0
M  V30 17315 N 1581.57 1.13606 1.09231 0
M  V30 17316 C 1582.5 0.77306 2.15769 0
M  V30 17317 C 1583.51 -0.206148 1.6149 0
M  V30 17318 O 1584.7 0.014338 1.78494 0
M  V30 17319 C 1581.8 0.125475 3.38668 0
M  V30 17320 C 1580.97 1.13728 4.22356 0
M  V30 17321 C 1580.03 0.515021 5.23674 0
M  V30 17322 O 1579.06 1.1756 5.56928 0
M  V30 17323 N 1580.26 -0.712028 5.76117 0
M  V30 17324 H 1583.03 1.68984 2.47517 0
M  V30 17325 H 1580.59 1.02935 1.24964 0
M  V30 17326 H 1582.58 -0.303109 4.03563 0
M  V30 17327 H 1581.15 -0.694284 3.04792 0
M  V30 17328 H 1580.37 1.74309 3.53568 0
M  V30 17329 H 1581.66 1.82106 4.75094 0
M  V30 17330 H 1581.06 -1.26745 5.51319 0
M  V30 17331 H 1579.61 -1.08324 6.42736 0
M  V30 17332 N 1583.05 -1.27244 0.929878 0
M  V30 17333 C 1584.29 -1.93559 0.567267 0
M  V30 17334 C 1584.61 -1.73864 -0.896138 0
M  V30 17335 O 1585.81 -2.34538 -1.36763 0
M  V30 17336 C 1584.27 -3.46756 0.963743 0
M  V30 17337 C 1583.88 -3.75204 2.44798 0
M  V30 17338 C 1585.62 -4.19139 0.672487 0
M  V30 17339 C 1583.53 -5.21787 2.78375 0
M  V30 17340 H 1582.46 -0.724617 0.208437 0
M  V30 17341 H 1585.11 -1.44502 1.13099 0
M  V30 17342 H 1583.49 -3.94634 0.328654 0
M  V30 17343 H 1584.67 -3.38075 3.13116 0
M  V30 17344 H 1582.98 -3.16029 2.71136 0
M  V30 17345 H 1585.58 -5.27074 0.899816 0
M  V30 17346 H 1585.92 -4.14466 -0.390378 0
M  V30 17347 H 1586.45 -3.77091 1.26678 0
M  V30 17348 H 1583.19 -5.31552 3.83579 0
M  V30 17349 H 1582.71 -5.60054 2.14708 0
M  V30 17350 H 1584.39 -5.89685 2.66234 0
M  V30 17351 N 1584.52 -0.695628 -1.41417 0
M  V30 17352 C 1585.43 -0.0308378 -2.3458 0
M  V30 17353 C 1586.45 0.766 -1.56232 0
M  V30 17354 O 1587.63 0.703548 -1.88712 0
M  V30 17355 C 1584.69 0.894162 -3.34971 0
M  V30 17356 C 1583.75 0.0895231 -4.29207 0
M  V30 17357 C 1582.98 0.970467 -5.24802 0
M  V30 17358 O 1583.21 2.20997 -5.25848 0
M  V30 17359 O 1582.14 0.420114 -6.00432 0
M  V30 17360 H 1585.97 -0.798775 -2.93007 0
M  V30 17361 H 1583.55 -0.455964 -1.42272 0
M  V30 17362 H 1585.43 1.42458 -3.9659 0
M  V30 17363 H 1584.11 1.64159 -2.78987 0
M  V30 17364 H 1583.02 -0.4855 -3.70936 0
M  V30 17365 H 1584.35 -0.619241 -4.88289 0
M  V30 17366 N 1586 1.51322 -0.440383 0
M  V30 17367 C 1587.25 2.02413 0.125248 0
M  V30 17368 C 1587.58 1.32374 1.42094 0
M  V30 17369 O 1586.86 0.439624 1.89467 0
M  V30 17370 C 1587.14 3.58483 0.340858 0
M  V30 17371 C 1586.99 4.39134 -0.973701 0
M  V30 17372 C 1588.31 4.25891 1.10927 0
M  V30 17373 H 1585.43 0.735683 0.0440452 0
M  V30 17374 H 1588.07 1.80932 -0.579976 0
M  V30 17375 H 1586.22 3.76917 0.941572 0
M  V30 17376 H 1587.89 4.32343 -1.60863 0
M  V30 17377 H 1586.14 4.04097 -1.57759 0
M  V30 17378 H 1586.81 5.46506 -0.776845 0
M  V30 17379 H 1589.28 4.11746 0.600403 0
M  V30 17380 H 1588.16 5.34967 1.2289 0
M  V30 17381 H 1588.42 3.86958 2.13813 0
M  V30 17382 N 1587.48 0.171848 1.5666 0
M  V30 17383 C 1588.72 -0.475418 1.98794 0
M  V30 17384 C 1589.08 -1.60384 1.0555 0
M  V30 17385 O 1590.28 -2.3137 1.36827 0
M  V30 17386 C 1588.56 -0.945518 3.44666 0
M  V30 17387 S 1590.11 -1.59389 4.08828 0
M  V30 17388 H 1586.93 -0.1529 0.694365 0
M  V30 17389 H 1589.53 0.269434 1.93634 0
M  V30 17390 H 1588.24 -0.113839 4.10242 0
M  V30 17391 H 1587.77 -1.7244 3.53593 0
M  V30 17392 H 1589.78 -2.88205 4.03921 0
M  V30 17393 N 1588.96 -1.5727 -0.101874 0
M  V30 17394 C 1590.37 -1.5295 -0.455899 0
M  V30 17395 C 1590.57 -0.887526 -1.80901 0
M  V30 17396 O 1589.63 -0.477143 -2.47951 0
M  V30 17397 C 1590.94 -2.97687 -0.424625 0
M  V30 17398 C 1592.49 -3.08867 -0.506963 0
M  V30 17399 C 1592.97 -4.55197 -0.505907 0
M  V30 17400 N 1594.46 -4.59718 -0.566856 0
M  V30 17401 C 1595.19 -5.7038 -0.587766 0
M  V30 17402 N 1594.69 -6.9049 -0.56529 0
M  V30 17403 N 1596.48 -5.58535 -0.632067 0
M  V30 17404 H 1588.63 -1.97381 0.784509 0
M  V30 17405 H 1590.89 -0.902141 0.291284 0
M  V30 17406 H 1590.6 -3.48094 0.502312 0
M  V30 17407 H 1590.47 -3.56022 -1.24612 0
M  V30 17408 H 1592.86 -2.58451 -1.42432 0
M  V30 17409 H 1592.94 -2.53496 0.342544 0
M  V30 17410 H 1592.59 -5.06263 0.407477 0
M  V30 17411 H 1592.52 -5.08399 -1.37253 0
M  V30 17412 H 1595.01 -3.73271 -0.589696 0
M  V30 17413 H 1595.32 -7.70588 -0.584342 0
M  V30 17414 H 1593.67 -6.92957 -0.532444 0
M  V30 17415 H 1596.86 -4.63606 -0.647109 0
M  V30 17416 H 1597.03 -6.44783 -0.644895 0
M  V30 17417 N 1590.44 0.372521 -1.53134 0
M  V30 17418 C 1591.71 1.13113 -1.59577 0
M  V30 17419 C 1592.09 2.07294 -0.399027 0
M  V30 17420 O 1591.44 2.20171 0.611316 0
M  V30 17421 C 1591.65 1.87635 -2.94269 0
M  V30 17422 C 1593 2.42414 -3.48598 0
M  V30 17423 O 1594.02 1.9777 -2.96252 0
M  V30 17424 O 1592.88 3.24008 -4.40092 0
M  V30 17425 H 1589.98 0.518486 -0.644284 0
M  V30 17426 H 1592.52 0.376344 -1.65474 0
M  V30 17427 H 1591.29 1.18859 -3.72811 0
M  V30 17428 H 1590.92 2.70037 -2.91831 0
M  V30 17429 N 1591.91 1.44376 0.631925 0
M  V30 17430 C 1592.86 1.51181 1.74393 0
M  V30 17431 C 1593.83 0.359599 1.62161 0
M  V30 17432 O 1595.02 0.569725 1.82096 0
M  V30 17433 C 1592.16 1.46124 3.12637 0
M  V30 17434 C 1591.27 2.71714 3.35851 0
M  V30 17435 C 1590.4 2.58496 4.64062 0
M  V30 17436 C 1589.44 3.79252 4.80452 0
M  V30 17437 N 1588.58 3.64715 5.99939 0
M  V30 17438 H 1593.42 2.4619 1.67912 0
M  V30 17439 H 1590.96 1.22184 0.819108 0
M  V30 17440 H 1592.91 1.41183 3.92585 0
M  V30 17441 H 1591.54 0.546831 3.18135 0
M  V30 17442 H 1590.6 2.86845 2.49848 0
M  V30 17443 H 1591.91 3.61351 3.43841 0
M  V30 17444 H 1591.06 2.51383 5.5217 0
M  V30 17445 H 1589.8 1.66417 4.58428 0
M  V30 17446 H 1588.81 3.8675 3.90774 0
M  V30 17447 H 1590.03 4.72367 4.879 0
M  V30 17448 H 1587.98 2.75388 5.95397 0
M  V30 17449 H 1587.89 4.47969 6.08982 0
M  V30 17450 H 1589.16 3.61493 6.90611 0
M  V30 17451 N 1593.39 -0.872258 1.31261 0
M  V30 17452 C 1594.64 -1.6219 1.20576 0
M  V30 17453 C 1594.96 -1.93557 -0.236769 0
M  V30 17454 O 1594.23 -1.58094 -1.15686 0
M  V30 17455 H 1592.81 -0.601265 0.443272 0
M  V30 17456 H 1595.47 -1.04438 1.64556 0
M  V30 17457 H 1594.57 -2.56653 1.77582 0
M  V30 17458 N 1594.87 -1.14184 -1.08627 0
M  V30 17459 C 1596.12 -0.919966 -1.81406 0
M  V30 17460 C 1596.47 0.547709 -1.84439 0
M  V30 17461 O 1595.76 1.40044 -1.30761 0
M  V30 17462 C 1595.96 -1.4519 -3.2658 0
M  V30 17463 C 1595.79 -2.96977 -3.37691 0
M  V30 17464 C 1594.56 -3.65402 -3.49012 0
M  V30 17465 C 1596.75 -3.94858 -3.29532 0
M  V30 17466 N 1594.74 -5.05122 -3.48891 0
M  V30 17467 C 1596.11 -5.20818 -3.36376 0
M  V30 17468 C 1598.16 -3.87009 -3.13254 0
M  V30 17469 C 1596.87 -6.39846 -3.28618 0
M  V30 17470 C 1598.89 -5.05581 -3.06825 0
M  V30 17471 C 1598.25 -6.30408 -3.14269 0
M  V30 17472 H 1594.35 -0.390144 -0.677725 0
M  V30 17473 H 1596.94 -1.45155 -1.29761 0
M  V30 17474 H 1595.11 -0.947121 -3.76675 0
M  V30 17475 H 1596.84 -1.17018 -3.87413 0
M  V30 17476 H 1593.59 -3.15948 -3.52809 0
M  V30 17477 H 1594.02 -5.78056 -3.52392 0
M  V30 17478 H 1598.66 -2.91379 -3.06363 0
M  V30 17479 H 1596.38 -7.35723 -3.34271 0
M  V30 17480 H 1599.96 -5.01256 -2.95354 0
M  V30 17481 H 1598.84 -7.20618 -3.09321 0
M  V30 17482 N 1596.35 1.26749 -0.936613 0
M  V30 17483 C 1597.58 1.98059 -0.598357 0
M  V30 17484 C 1597.99 1.6979 0.825646 0
M  V30 17485 O 1597.35 0.963514 1.54992 0
M  V30 17486 C 1597.4 3.51948 -0.825519 0
M  V30 17487 O 1597.12 3.79232 -2.19351 0
M  V30 17488 C 1598.62 4.40503 -0.497186 0
M  V30 17489 H 1595.84 0.631826 -0.225914 0
M  V30 17490 H 1598.39 1.61379 -1.25607 0
M  V30 17491 H 1596.54 3.86806 -0.214479 0
M  V30 17492 H 1596.95 4.73782 -2.25014 0
M  V30 17493 H 1598.43 5.47457 -0.706779 0
M  V30 17494 H 1598.91 4.35516 0.567645 0
M  V30 17495 H 1599.51 4.11181 -1.08675 0
M  V30 17496 N 1597.83 0.703118 1.41046 0
M  V30 17497 C 1599.07 0.237638 2.01403 0
M  V30 17498 C 1599.41 -1.16217 1.55587 0
M  V30 17499 O 1598.68 -1.78593 0.770377 0
M  V30 17500 C 1598.96 0.303738 3.58817 0
M  V30 17501 C 1598.82 1.74103 4.14739 0
M  V30 17502 C 1600.14 -0.332186 4.38845 0
M  V30 17503 H 1597.25 0.0878243 0.731749 0
M  V30 17504 H 1599.9 0.893264 1.67693 0
M  V30 17505 H 1598.05 -0.254485 3.87666 0
M  V30 17506 H 1599.72 2.35368 3.96736 0
M  V30 17507 H 1597.96 2.27277 3.69496 0
M  V30 17508 H 1598.63 1.73876 5.239 0
M  V30 17509 H 1601.11 0.143312 4.15853 0
M  V30 17510 H 1599.98 -0.255429 5.48305 0
M  V30 17511 H 1600.25 -1.41397 4.18878 0
M  V30 17512 N 1599.3 -1.51086 0.448402 0
M  V30 17513 C 1600.24 -2.25799 -0.393401 0
M  V30 17514 C 1601.25 -1.30241 -0.976792 0
M  V30 17515 O 1602.44 -1.55916 -0.869051 0
M  V30 17516 C 1599.54 -3.00682 -1.56345 0
M  V30 17517 C 1598.71 -4.23421 -1.09695 0
M  V30 17518 C 1597.77 -4.8079 -2.1384 0
M  V30 17519 O 1596.8 -5.42329 -1.72823 0
M  V30 17520 N 1598 -4.65792 -3.46437 0
M  V30 17521 H 1600.76 -2.98681 0.246986 0
M  V30 17522 H 1598.32 -1.59497 0.277902 0
M  V30 17523 H 1600.32 -3.35945 -2.25662 0
M  V30 17524 H 1598.89 -2.30741 -2.10897 0
M  V30 17525 H 1598.11 -3.93526 -0.230457 0
M  V30 17526 H 1599.39 -5.03049 -0.762832 0
M  V30 17527 H 1598.79 -4.16799 -3.82486 0
M  V30 17528 H 1597.35 -5.05386 -4.11616 0
M  V30 17529 N 1600.78 -0.180154 -1.56567 0
M  V30 17530 C 1602.03 0.46252 -1.97147 0
M  V30 17531 C 1602.36 1.62654 -1.06649 0
M  V30 17532 O 1601.61 1.95432 -0.102417 0
M  V30 17533 C 1601.91 0.978895 -3.43733 0
M  V30 17534 C 1601.58 -0.0701623 -4.50845 0
M  V30 17535 C 1600.24 -0.358456 -4.79863 0
M  V30 17536 C 1602.59 -0.781763 -5.15304 0
M  V30 17537 C 1599.92 -1.36359 -5.70634 0
M  V30 17538 C 1602.27 -1.77594 -6.0716 0
M  V30 17539 C 1600.94 -2.07159 -6.3454 0
M  V30 17540 H 1600.21 0.169248 -0.721413 0
M  V30 17541 H 1602.85 -0.273976 -1.8953 0
M  V30 17542 H 1601.16 1.79338 -3.48346 0
M  V30 17543 H 1602.85 1.4853 -3.72478 0
M  V30 17544 H 1599.44 0.164708 -4.28283 0
M  V30 17545 H 1603.63 -0.572254 -4.9299 0
M  V30 17546 H 1598.88 -1.59872 -5.90128 0
M  V30 17547 H 1603.06 -2.33265 -6.56171 0
M  V30 17548 H 1600.69 -2.85191 -7.04677 0
M  V30 17549 N 1602.26 1.57322 0.0935319 0
M  V30 17550 C 1603.21 2.03184 1.13222 0
M  V30 17551 C 1604.2 0.933184 1.41379 0
M  V30 17552 O 1605.41 1.11836 1.41042 0
M  V30 17553 H 1601.78 0.647541 0.382354 0
M  V30 17554 H 1603.75 2.89606 0.719105 0
M  V30 17555 C 1602.5 2.47336 2.44378 0
M  V30 17556 H 1601.83 3.31456 2.23556 0
M  V30 17557 H 1603.27 2.83199 3.15554 0
M  V30 17558 C 1601.73 1.34728 3.08788 0
M  V30 17559 O 1602.26 0.677285 3.95949 0
M  V30 17560 N 1600.46 1.09787 2.69063 0
M  V30 17561 H 1600.01 1.64451 1.98277 0
M  V30 17562 H 1599.97 0.346436 3.12485 0
M  V30 17563 N 1603.74 -0.364395 1.53329 0
M  V30 17564 C 1604.98 -1.10501 1.70766 0
M  V30 17565 C 1605.34 -1.86955 0.45448 0
M  V30 17566 O 1604.63 -1.8346 -0.552528 0
M  V30 17567 C 1604.83 -2.09208 2.8977 0
M  V30 17568 C 1604.66 -1.42453 4.26541 0
M  V30 17569 C 1603.43 -1.17816 4.91373 0
M  V30 17570 C 1605.62 -0.861619 5.07031 0
M  V30 17571 N 1603.61 -0.474233 6.12066 0
M  V30 17572 C 1604.98 -0.28712 6.19335 0
M  V30 17573 C 1607.03 -0.760424 4.92059 0
M  V30 17574 C 1605.73 0.378707 7.18302 0
M  V30 17575 C 1607.76 -0.108375 5.91301 0
M  V30 17576 C 1607.12 0.455245 7.02927 0
M  V30 17577 H 1603.22 -0.38946 0.678119 0
M  V30 17578 H 1605.81 -0.391247 1.90728 0
M  V30 17579 H 1603.98 -2.77897 2.71345 0
M  V30 17580 H 1605.71 -2.75956 2.96024 0
M  V30 17581 H 1602.46 -1.45975 4.50542 0
M  V30 17582 H 1602.89 -0.137599 6.7686 0
M  V30 17583 H 1607.53 -1.18194 4.05943 0
M  V30 17584 H 1605.25 0.812171 8.04008 0
M  V30 17585 H 1608.83 -0.0309878 5.81792 0
M  V30 17586 H 1607.71 0.951813 7.78402 0
M  V30 17587 N 1605.22 -1.44709 -0.62426 0
M  V30 17588 C 1606.46 -1.47853 -1.38368 0
M  V30 17589 C 1606.79 -0.113769 -1.94167 0
M  V30 17590 O 1606.05 0.88538 -1.74527 0
M  V30 17591 C 1606.35 -2.4919 -2.56201 0
M  V30 17592 C 1606.01 -3.94339 -2.1865 0
M  V30 17593 C 1604.67 -4.33865 -2.08122 0
M  V30 17594 C 1607.03 -4.85689 -1.89091 0
M  V30 17595 C 1604.35 -5.62658 -1.66233 0
M  V30 17596 C 1606.71 -6.14877 -1.48693 0
M  V30 17597 C 1605.37 -6.5335 -1.36711 0
M  V30 17598 H 1604.64 -0.541034 -0.506324 0
M  V30 17599 H 1607.29 -1.77962 -0.707235 0
M  V30 17600 H 1605.59 -2.1259 -3.29109 0
M  V30 17601 H 1607.29 -2.48867 -3.1443 0
M  V30 17602 H 1603.88 -3.63072 -2.27764 0
M  V30 17603 H 1608.06 -4.55902 -1.96131 0
M  V30 17604 H 1603.32 -5.91278 -1.55565 0
M  V30 17605 H 1607.49 -6.85115 -1.24861 0
M  V30 17606 H 1605.12 -7.53049 -1.04025 0
M  V30 17607 N 1606.69 0.865285 -1.31722 0
M  V30 17608 C 1607.62 1.98871 -1.22362 0
M  V30 17609 C 1608.61 1.69745 -0.109779 0
M  V30 17610 O 1609.79 1.91944 -0.295167 0
M  V30 17611 C 1606.92 3.34477 -0.935 0
M  V30 17612 C 1605.87 3.77924 -2.00892 0
M  V30 17613 C 1605.2 5.11042 -1.57291 0
M  V30 17614 C 1606.5 3.94528 -3.42264 0
M  V30 17615 H 1608.19 2.06959 -2.16352 0
M  V30 17616 H 1605.74 0.994355 -1.04157 0
M  V30 17617 H 1607.69 4.12612 -0.856111 0
M  V30 17618 H 1606.42 3.26575 0.0405536 0
M  V30 17619 H 1605.08 3.02032 -2.07779 0
M  V30 17620 H 1604.72 4.99586 -0.585084 0
M  V30 17621 H 1604.42 5.41082 -2.29138 0
M  V30 17622 H 1605.95 5.91681 -1.50818 0
M  V30 17623 H 1607.36 4.63045 -3.38027 0
M  V30 17624 H 1605.76 4.35972 -4.12369 0
M  V30 17625 H 1606.83 2.97765 -3.82706 0
M  V30 17626 N 1608.17 1.14759 1.0802 0
M  V30 17627 C 1609.12 0.806682 2.13253 0
M  V30 17628 C 1610.11 -0.205966 1.59576 0
M  V30 17629 O 1611.3 -0.00771878 1.76998 0
M  V30 17630 C 1608.43 0.290219 3.42071 0
M  V30 17631 C 1607.51 1.33262 4.02619 0
M  V30 17632 N 1607.9 2.53793 4.37519 0
M  V30 17633 C 1606.2 1.18377 4.30003 0
M  V30 17634 C 1606.9 3.20554 4.85407 0
M  V30 17635 N 1605.88 2.47951 4.83757 0
M  V30 17636 H 1609.68 1.72351 2.3806 0
M  V30 17637 H 1607.2 1.03203 1.25391 0
M  V30 17638 H 1609.19 0.0276782 4.16891 0
M  V30 17639 H 1607.85 -0.620751 3.18711 0
M  V30 17640 H 1608.86 2.9099 4.28422 0
M  V30 17641 H 1605.54 0.332142 4.16177 0
M  V30 17642 H 1606.93 4.23342 5.21758 0
M  V30 17643 N 1609.65 -1.26251 0.943322 0
M  V30 17644 C 1610.58 -2.28673 0.472347 0
M  V30 17645 C 1611.56 -1.63319 -0.475481 0
M  V30 17646 O 1612.75 -1.90508 -0.376875 0
M  V30 17647 C 1609.88 -3.46316 -0.261286 0
M  V30 17648 C 1608.83 -4.23771 0.600192 0
M  V30 17649 C 1608.16 -5.3405 -0.263525 0
M  V30 17650 C 1609.46 -4.87576 1.87262 0
M  V30 17651 H 1611.15 -2.68319 1.32836 0
M  V30 17652 H 1608.7 -1.28987 0.640182 0
M  V30 17653 H 1610.65 -4.1708 -0.601821 0
M  V30 17654 H 1609.37 -3.05629 -1.15146 0
M  V30 17655 H 1608.03 -3.54774 0.923651 0
M  V30 17656 H 1607.68 -4.89604 -1.15312 0
M  V30 17657 H 1607.38 -5.86784 0.309495 0
M  V30 17658 H 1608.9 -6.07652 -0.599281 0
M  V30 17659 H 1610.32 -5.50544 1.59919 0
M  V30 17660 H 1608.72 -5.50437 2.39038 0
M  V30 17661 H 1609.79 -4.10397 2.58268 0
M  V30 17662 N 1611.13 -0.710588 -1.40671 0
M  V30 17663 C 1612.38 -0.248316 -2.01274 0
M  V30 17664 C 1612.71 1.1539 -1.56201 0
M  V30 17665 O 1611.98 1.78182 -0.779838 0
M  V30 17666 C 1612.27 -0.322762 -3.58651 0
M  V30 17667 C 1612.12 -1.763 -4.1381 0
M  V30 17668 C 1613.44 0.308908 -4.39015 0
M  V30 17669 H 1610.56 -0.0917037 -0.731272 0
M  V30 17670 H 1613.2 -0.902145 -1.67216 0
M  V30 17671 H 1611.35 0.233923 -3.87795 0
M  V30 17672 H 1613.02 -2.37468 -3.95483 0
M  V30 17673 H 1611.26 -2.29233 -3.68286 0
M  V30 17674 H 1611.94 -1.76652 -5.22971 0
M  V30 17675 H 1614.41 -0.165363 -4.15771 0
M  V30 17676 H 1613.29 0.226347 -5.48433 0
M  V30 17677 H 1613.55 1.39174 -4.19622 0
M  V30 17678 N 1612.61 1.50847 -0.456408 0
M  V30 17679 C 1613.54 2.31077 0.335523 0
M  V30 17680 C 1614.52 1.37326 1.00377 0
M  V30 17681 O 1615.7 1.66247 1.00376 0
M  V30 17682 C 1612.83 3.16662 1.42627 0
M  V30 17683 C 1611.79 4.18846 0.88045 0
M  V30 17684 C 1611.11 4.93074 2.06838 0
M  V30 17685 C 1612.41 5.22208 -0.0982288 0
M  V30 17686 H 1614.11 2.97531 -0.334056 0
M  V30 17687 H 1611.65 1.43085 -0.162099 0
M  V30 17688 H 1613.61 3.71578 1.98765 0
M  V30 17689 H 1612.33 2.48066 2.12441 0
M  V30 17690 H 1610.99 3.65009 0.341147 0
M  V30 17691 H 1610.64 4.20963 2.75316 0
M  V30 17692 H 1610.34 5.62184 1.70947 0
M  V30 17693 H 1611.86 5.5082 2.63494 0
M  V30 17694 H 1613.28 5.72082 0.373481 0
M  V30 17695 H 1611.67 5.98954 -0.370674 0
M  V30 17696 H 1612.74 4.73859 -1.02887 0
M  V30 17697 N 1614.09 0.188454 1.56469 0
M  V30 17698 C 1615.33 -0.451165 1.97 0
M  V30 17699 C 1615.65 -1.6261 1.07624 0
M  V30 17700 O 1614.92 -1.95354 0.146125 0
M  V30 17701 H 1613.5 -0.16967 0.727476 0
M  V30 17702 H 1616.17 0.273638 1.9297 0
M  V30 17703 H 1615.26 -0.799741 3.0168 0
M  V30 17704 N 1615.56 -1.5737 -0.0851874 0
M  V30 17705 C 1616.81 -1.85772 -0.785604 0
M  V30 17706 C 1617.13 -0.779172 -1.79411 0
M  V30 17707 O 1618.33 -0.950621 -2.54314 0
M  V30 17708 C 1616.79 -3.29484 -1.44805 0
M  V30 17709 C 1616.4 -4.45434 -0.478799 0
M  V30 17710 C 1618.14 -3.671 -2.13161 0
M  V30 17711 C 1616.05 -5.80183 -1.1464 0
M  V30 17712 H 1614.98 -0.69298 -0.297145 0
M  V30 17713 H 1617.63 -1.83459 -0.0386776 0
M  V30 17714 H 1616.01 -3.26367 -2.24278 0
M  V30 17715 H 1617.18 -4.59917 0.285148 0
M  V30 17716 H 1615.5 -4.16281 0.0995964 0
M  V30 17717 H 1618.1 -4.65061 -2.6386 0
M  V30 17718 H 1618.44 -2.96223 -2.92503 0
M  V30 17719 H 1618.97 -3.72148 -1.40536 0
M  V30 17720 H 1615.71 -6.54317 -0.393583 0
M  V30 17721 H 1615.23 -5.69525 -1.88153 0
M  V30 17722 H 1616.91 -6.25074 -1.67006 0
M  V30 17723 N 1617.04 0.356258 -1.53521 0
M  V30 17724 C 1617.99 1.43689 -1.80616 0
M  V30 17725 C 1618.96 1.52808 -0.651064 0
M  V30 17726 O 1620.14 1.68549 -0.894203 0
M  V30 17727 C 1617.28 2.80513 -2.01013 0
M  V30 17728 C 1616.4 2.80287 -3.2873 0
M  V30 17729 C 1615.53 4.08747 -3.39263 0
M  V30 17730 C 1614.57 4.02699 -4.60977 0
M  V30 17731 N 1613.71 5.22825 -4.68614 0
M  V30 17732 H 1618.55 1.19884 -2.72822 0
M  V30 17733 H 1616.08 0.580984 -1.35141 0
M  V30 17734 H 1618.04 3.60011 -2.10827 0
M  V30 17735 H 1616.67 3.02698 -1.12134 0
M  V30 17736 H 1615.72 1.92968 -3.27822 0
M  V30 17737 H 1617.04 2.71693 -4.18311 0
M  V30 17738 H 1616.19 4.96663 -3.4844 0
M  V30 17739 H 1614.93 4.20106 -2.47715 0
M  V30 17740 H 1613.93 3.13168 -4.51892 0
M  V30 17741 H 1615.16 3.92934 -5.53877 0
M  V30 17742 H 1613.11 5.34752 -3.79969 0
M  V30 17743 H 1613.02 5.16437 -5.52113 0
M  V30 17744 H 1614.29 6.12548 -4.82085 0
M  V30 17745 N 1618.52 1.45038 0.616577 0
M  V30 17746 C 1619.45 1.49023 1.7414 0
M  V30 17747 C 1620.46 0.381965 1.58256 0
M  V30 17748 O 1621.65 0.648527 1.66302 0
M  V30 17749 C 1618.75 1.32233 3.12038 0
M  V30 17750 C 1617.93 2.5657 3.54246 0
M  V30 17751 C 1616.99 2.34468 4.71075 0
M  V30 17752 O 1616.01 3.08035 4.78647 0
M  V30 17753 N 1617.21 1.38454 5.63747 0
M  V30 17754 H 1619.98 2.45997 1.71189 0
M  V30 17755 H 1617.54 1.40663 0.80159 0
M  V30 17756 H 1619.53 1.15271 3.87936 0
M  V30 17757 H 1618.1 0.435685 3.09549 0
M  V30 17758 H 1617.32 2.88709 2.68404 0
M  V30 17759 H 1618.61 3.39239 3.79203 0
M  V30 17760 H 1618.01 0.777236 5.60335 0
M  V30 17761 H 1616.56 1.27467 6.39215 0
M  V30 17762 N 1620 -0.858287 1.32179 0
M  V30 17763 C 1621.25 -1.60902 1.2229 0
M  V30 17764 C 1621.57 -1.93797 -0.216227 0
M  V30 17765 O 1620.84 -1.59312 -1.14002 0
M  V30 17766 H 1619.42 -0.596529 0.449624 0
M  V30 17767 H 1622.08 -1.02686 1.65655 0
M  V30 17768 H 1621.17 -2.54755 1.80295 0
M  V30 17769 N 1621.48 -1.1533 -1.07409 0
M  V30 17770 C 1622.39 -0.863514 -2.1813 0
M  V30 17771 C 1623.4 0.159954 -1.73263 0
M  V30 17772 O 1624.58 -0.0139818 -2.01395 0
M  V30 17773 C 1621.64 -0.356271 -3.44865 0
M  V30 17774 C 1620.7 -1.44356 -4.04302 0
M  V30 17775 C 1619.94 -0.960429 -5.24987 0
M  V30 17776 O 1620.16 0.194227 -5.70069 0
M  V30 17777 O 1619.09 -1.74387 -5.76084 0
M  V30 17778 H 1622.92 -1.78909 -2.45408 0
M  V30 17779 H 1620.5 -0.932362 -1.16736 0
M  V30 17780 H 1622.39 -0.0798183 -4.21324 0
M  V30 17781 H 1621.06 0.541445 -3.1914 0
M  V30 17782 H 1619.97 -1.77361 -3.29384 0
M  V30 17783 H 1621.3 -2.31617 -4.34298 0
M  V30 17784 N 1622.95 1.25748 -0.950004 0
M  V30 17785 C 1623.9 2.26061 -0.46531 0
M  V30 17786 C 1624.87 1.59021 0.479742 0
M  V30 17787 O 1626.06 1.86687 0.394011 0
M  V30 17788 C 1623.2 3.44156 0.255146 0
M  V30 17789 C 1622.31 4.25846 -0.726604 0
M  V30 17790 C 1621.44 5.31198 0.0159429 0
M  V30 17791 C 1620.48 6.04572 -0.957046 0
M  V30 17792 N 1619.62 7.0167 -0.245676 0
M  V30 17793 H 1624.46 2.66891 -1.32563 0
M  V30 17794 H 1622 1.31216 -0.664882 0
M  V30 17795 H 1623.95 4.11465 0.689381 0
M  V30 17796 H 1622.58 3.04213 1.07954 0
M  V30 17797 H 1621.64 3.58242 -1.27933 0
M  V30 17798 H 1622.95 4.76669 -1.46928 0
M  V30 17799 H 1622.1 6.04561 0.509037 0
M  V30 17800 H 1620.84 4.81235 0.791442 0
M  V30 17801 H 1619.85 5.30028 -1.46118 0
M  V30 17802 H 1621.07 6.56624 -1.7327 0
M  V30 17803 H 1619.02 6.54005 0.51117 0
M  V30 17804 H 1618.93 7.50289 -0.927527 0
M  V30 17805 H 1620.2 7.79172 0.226034 0
M  V30 17806 N 1624.43 0.718038 1.40292 0
M  V30 17807 C 1625.38 0.0434428 2.27959 0
M  V30 17808 C 1626.37 -0.730049 1.43384 0
M  V30 17809 O 1627.56 -0.601847 1.66454 0
M  V30 17810 C 1624.69 -0.875738 3.31942 0
M  V30 17811 C 1623.77 -0.0973011 4.23988 0
M  V30 17812 N 1624.16 0.92073 4.97349 0
M  V30 17813 C 1622.46 -0.329494 4.44781 0
M  V30 17814 C 1623.16 1.38868 5.64881 0
M  V30 17815 N 1622.14 0.710377 5.38938 0
M  V30 17816 H 1625.94 0.823656 2.82123 0
M  V30 17817 H 1623.45 0.550843 1.52773 0
M  V30 17818 H 1625.45 -1.37436 3.93595 0
M  V30 17819 H 1624.11 -1.6553 2.79338 0
M  V30 17820 H 1625.12 1.30164 5.01276 0
M  V30 17821 H 1621.8 -1.08519 4.0315 0
M  V30 17822 H 1623.19 2.23471 6.33648 0
M  V30 17823 N 1625.91 -1.50602 0.464402 0
M  V30 17824 C 1627.14 -2.07191 -0.0930678 0
M  V30 17825 C 1627.56 -1.32675 -1.33338 0
M  V30 17826 O 1626.92 -0.372453 -1.77433 0
M  V30 17827 C 1626.97 -3.5873 -0.366775 0
M  V30 17828 O 1626.07 -3.86125 -1.44849 0
M  V30 17829 H 1625.41 -0.663924 0.0100336 0
M  V30 17830 H 1627.94 -1.93882 0.653522 0
M  V30 17831 H 1627.95 -4.03425 -0.609258 0
M  V30 17832 H 1626.63 -4.12385 0.539608 0
M  V30 17833 H 1625.2 -3.53273 -1.19384 0
M  V30 17834 N 1627.39 -0.19675 -1.56367 0
M  V30 17835 C 1628.35 0.709734 -2.17934 0
M  V30 17836 C 1629.35 1.13979 -1.13426 0
M  V30 17837 O 1630.54 1.05261 -1.38801 0
M  V30 17838 C 1627.67 1.96917 -2.78274 0
M  V30 17839 H 1628.87 0.173342 -2.99399 0
M  V30 17840 H 1626.42 0.0528698 -1.56211 0
M  V30 17841 H 1627.15 2.54804 -2.00613 0
M  V30 17842 H 1626.94 1.66951 -3.54781 0
M  V30 17843 H 1628.43 2.61554 -3.25545 0
M  V30 17844 O 1628.91 1.6139 -0.0596833 0
M  V30 17845 H 1629.6 1.85775 0.548386 0
M  V30 END ATOM
M  V30 BEGIN BOND
M  V30 END BOND
M  V30 END CTAB
M  END
$$$$
