drugbank_target|Q8KT33 Urease (DB09510; DB09513)
 OpenBabel12092121043D

  0  0  0     0  0            999 V3000
M  V30 BEGIN CTAB
M  V30 COUNTS 5574 5623 0 0 0
M  V30 BEGIN ATOM
M  V30 1 H -0.908 1.98254 -0.117106 0
M  V30 2 N 0 1.576 0 0
M  V30 3 C 0.933 2.03868 1.02534 0
M  V30 4 C 1.911 0.928543 1.3348 0
M  V30 5 O 3.095 1.19667 1.45644 0
M  V30 6 C 0.222 2.43627 2.35294 0
M  V30 7 C -0.732 3.65373 2.2001 0
M  V30 8 S 0.101 5.13292 1.52614 0
M  V30 9 C 1.257 5.56322 2.86805 0
M  V30 10 H 1.49 2.90518 0.631377 0
M  V30 11 H -0.977 1.52953 0.210867 0
M  V30 12 H 0.981 2.67203 3.11629 0
M  V30 13 H -0.358 1.57376 2.7183 0
M  V30 14 H -1.165 3.90944 3.18086 0
M  V30 15 H -1.563 3.418 1.51819 0
M  V30 16 H 0.729 5.58782 3.83104 0
M  V30 17 H 1.672 6.56266 2.65933 0
M  V30 18 H 2.08 4.83886 2.90714 0
M  V30 19 N 1.4781 -0.272755 1.55222 0
M  V30 20 C 2.4251 -1.33716 1.88119 0
M  V30 21 C 3.3951 -1.49066 0.73271 0
M  V30 22 O 4.5801 -1.63469 0.984002 0
M  V30 23 C 1.7201 -2.69238 2.15882 0
M  V30 24 C 0.8331 -2.62108 3.43399 0
M  V30 25 C -0.0319 -3.89811 3.60861 0
M  V30 26 C -0.9929 -3.77193 4.8207 0
M  V30 27 N -1.8559 -4.9673 4.96189 0
M  V30 28 H 2.9841 -1.04962 2.78903 0
M  V30 29 H 0.5211 -0.507088 1.38083 0
M  V30 30 H 2.4791 -3.48089 2.29978 0
M  V30 31 H 1.1091 -2.96194 1.28331 0
M  V30 32 H 0.1611 -1.74967 3.37773 0
M  V30 33 H 1.4731 -2.48685 4.32386 0
M  V30 34 H 0.6271 -4.77103 3.74777 0
M  V30 35 H -0.6339 -4.06102 2.7006 0
M  V30 36 H -1.6289 -2.88284 4.68159 0
M  V30 37 H -0.4039 -3.62421 5.74307 0
M  V30 38 H -2.4579 -5.13431 4.08319 0
M  V30 39 H -2.5409 -4.85839 5.79221 0
M  V30 40 H -1.2729 -5.85594 5.1449 0
M  V30 41 N 2.9562 -1.48159 -0.537278 0
M  V30 42 C 3.9032 -1.62138 -1.64256 0
M  V30 43 C 4.8732 -0.463668 -1.59497 0
M  V30 44 O 6.0582 -0.686241 -1.78032 0
M  V30 45 C 3.1982 -1.66028 -3.02537 0
M  V30 46 C 2.3112 -2.92855 -3.17585 0
M  V30 47 C 1.4462 -2.87952 -4.46382 0
M  V30 48 C 0.4852 -4.09516 -4.54932 0
M  V30 49 N -0.3778 -4.02733 -5.75109 0
M  V30 50 H 4.4622 -2.56529 -1.51647 0
M  V30 51 H 1.9992 -1.27224 -0.738414 0
M  V30 52 H 3.9572 -1.66265 -3.82638 0
M  V30 53 H 2.5872 -0.751331 -3.13934 0
M  V30 54 H 1.6392 -3.02395 -2.30784 0
M  V30 55 H 2.9512 -3.82822 -3.19764 0
M  V30 56 H 2.1052 -2.8655 -5.34765 0
M  V30 57 H 0.8442 -1.95702 -4.46712 0
M  V30 58 H -0.1508 -4.11201 -3.64957 0
M  V30 59 H 1.0742 -5.02917 -4.56346 0
M  V30 60 H -0.9798 -3.13299 -5.76351 0
M  V30 61 H -1.0628 -4.86397 -5.78752 0
M  V30 62 H 0.2052 -4.05379 -6.65799 0
M  V30 63 N 4.4343 0.785586 -1.36625 0
M  V30 64 C 5.6833 1.53883 -1.30396 0
M  V30 65 C 5.9963 1.95271 0.113452 0
M  V30 66 O 7.2023 2.69858 0.298142 0
M  V30 67 C 5.6583 2.77808 -2.28802 0
M  V30 68 C 5.2663 2.43574 -3.75999 0
M  V30 69 C 7.0103 3.55783 -2.31558 0
M  V30 70 C 4.9173 3.63919 -4.66173 0
M  V30 71 H 3.8473 0.577678 -0.484566 0
M  V30 72 H 6.4983 0.861705 -1.62009 0
M  V30 73 H 4.8803 3.47339 -1.90188 0
M  V30 74 H 6.0543 1.81916 -4.23371 0
M  V30 75 H 4.3693 1.78803 -3.76056 0
M  V30 76 H 6.9663 4.45205 -2.96137 0
M  V30 77 H 7.3093 3.94644 -1.3252 0
M  V30 78 H 7.8423 2.93235 -2.68809 0
M  V30 79 H 4.5813 3.3015 -5.66287 0
M  V30 80 H 4.1013 4.2473 -4.23515 0
M  V30 81 H 5.7803 4.30901 -4.82632 0
M  V30 82 N 5.9124 1.20967 1.01018 0
M  V30 83 C 7.1374 1.0503 1.78839 0
M  V30 84 C 7.5624 -0.395752 1.8389 0
M  V30 85 O 6.9204 -1.28529 1.27867 0
M  V30 86 C 6.9684 1.64602 3.2084 0
M  V30 87 O 6.0724 0.887988 4.02726 0
M  V30 88 H 5.4134 0.369987 0.551367 0
M  V30 89 H 7.9434 1.60399 1.27018 0
M  V30 90 H 7.9534 1.68607 3.71532 0
M  V30 91 H 6.6284 2.69841 3.16479 0
M  V30 92 H 5.2054 0.922648 3.61305 0
M  V30 93 N 7.3905 -1.2043 1.01659 0
M  V30 94 C 8.8065 -1.41852 0.731442 0
M  V30 95 C 9.0065 -1.89358 -0.688898 0
M  V30 96 O 8.0625 -2.06247 -1.45666 0
M  V30 97 C 9.3755 -2.44019 1.75714 0
M  V30 98 C 10.9235 -2.57785 1.77527 0
M  V30 99 C 11.3985 -3.63194 2.79023 0
M  V30 100 N 12.8895 -3.70678 2.77763 0
M  V30 101 C 13.6245 -4.51897 3.52954 0
M  V30 102 N 13.1205 -5.36921 4.37821 0
M  V30 103 N 14.9135 -4.4643 3.41551 0
M  V30 104 H 7.0645 -0.879093 1.93354 0
M  V30 105 H 9.3275 -0.448425 0.835236 0
M  V30 106 H 9.0335 -2.1611 2.77469 0
M  V30 107 H 8.9075 -3.43007 1.56927 0
M  V30 108 H 11.2945 -2.85023 0.764569 0
M  V30 109 H 11.3755 -1.58992 2.00387 0
M  V30 110 H 11.0195 -3.36699 3.80258 0
M  V30 111 H 10.9495 -4.61609 2.53425 0
M  V30 112 H 13.4405 -3.09944 2.16201 0
M  V30 113 H 13.7535 -5.95981 4.91962 0
M  V30 114 H 12.0985 -5.36424 4.41899 0
M  V30 115 H 15.2895 -3.79042 2.74672 0
M  V30 116 H 15.4625 -5.09491 4.00404 0
M  V30 117 N 8.8686 -0.792821 -1.36206 0
M  V30 118 C 9.8156 -0.191653 -2.30003 0
M  V30 119 C 10.7856 0.666453 -1.52143 0
M  V30 120 O 11.9706 0.61442 -1.80636 0
M  V30 121 C 9.1106 0.664848 -3.38635 0
M  V30 122 C 8.2236 -0.212175 -4.31479 0
M  V30 123 C 7.3586 0.651022 -5.27196 0
M  V30 124 C 6.3976 -0.227247 -6.11678 0
M  V30 125 N 5.5346 0.595127 -6.99573 0
M  V30 126 H 10.3746 -0.996978 -2.80828 0
M  V30 127 H 7.9116 -0.503206 -1.38225 0
M  V30 128 H 9.8696 1.17645 -4.00269 0
M  V30 129 H 8.4996 1.43557 -2.89122 0
M  V30 130 H 7.5516 -0.841777 -3.70969 0
M  V30 131 H 8.8636 -0.888751 -4.90818 0
M  V30 132 H 8.0176 1.2283 -5.94136 0
M  V30 133 H 6.7566 1.36121 -4.68319 0
M  V30 134 H 5.7616 -0.816904 -5.43697 0
M  V30 135 H 6.9866 -0.93509 -6.72631 0
M  V30 136 H 4.9326 1.28955 -6.432 0
M  V30 137 H 4.8496 -0.0236952 -7.55996 0
M  V30 138 H 6.1176 1.15613 -7.70879 0
M  V30 139 N 10.3467 1.47872 -0.545128 0
M  V30 140 C 11.2567 2.33633 0.212746 0
M  V30 141 C 12.2727 1.4744 0.923983 0
M  V30 142 O 13.4487 1.80393 0.895572 0
M  V30 143 C 10.5137 3.23884 1.23693 0
M  V30 144 C 9.5747 4.25961 0.534417 0
M  V30 145 C 8.8077 5.11899 1.5098 0
M  V30 146 O 9.0307 5.00077 2.7437 0
M  V30 147 O 7.9647 5.92831 1.0409 0
M  V30 148 H 11.7907 2.99714 -0.490416 0
M  V30 149 H 9.3757 1.46235 -0.305871 0
M  V30 150 H 11.2577 3.79666 1.82843 0
M  V30 151 H 9.9327 2.60446 1.92222 0
M  V30 152 H 8.8397 3.73972 -0.0979679 0
M  V30 153 H 10.1727 4.92079 -0.109213 0
M  V30 154 N 11.8248 0.280983 1.55075 0
M  V30 155 C 13.0548 -0.336804 2.03836 0
M  V30 156 C 13.4628 -1.49577 1.15859 0
M  V30 157 O 12.8058 -1.82888 0.172503 0
M  V30 158 C 12.8678 -0.874616 3.48699 0
M  V30 159 C 12.5318 0.156478 4.56732 0
M  V30 160 C 13.5288 0.978032 5.10618 0
M  V30 161 C 11.2138 0.292409 5.01448 0
M  V30 162 C 13.2078 1.92165 6.07743 0
M  V30 163 C 10.8948 1.23949 5.98398 0
M  V30 164 C 11.8928 2.05261 6.51427 0
M  V30 165 O 11.5808 2.98367 7.4648 0
M  V30 166 H 11.3128 -0.0800885 0.671239 0
M  V30 167 H 13.8668 0.412589 2.01213 0
M  V30 168 H 12.0968 -1.67418 3.4858 0
M  V30 169 H 13.7858 -1.40612 3.80766 0
M  V30 170 H 14.5518 0.883782 4.7688 0
M  V30 171 H 10.4308 -0.330498 4.59814 0
M  V30 172 H 13.9748 2.55672 6.49059 0
M  V30 173 H 9.8718 1.33454 6.31554 0
M  V30 174 H 10.6398 2.93116 7.64215 0
M  V30 175 N 13.3029 -1.57598 0.00835791 0
M  V30 176 C 14.5489 -1.91211 -0.675732 0
M  V30 177 C 14.8819 -0.883139 -1.72958 0
M  V30 178 O 14.1569 0.097016 -1.94258 0
M  V30 179 C 14.4399 -3.35379 -1.31123 0
M  V30 180 C 14.2929 -4.48999 -0.268356 0
M  V30 181 C 15.6119 -3.7912 -2.23508 0
M  V30 182 H 12.7309 -0.695374 -0.244179 0
M  V30 183 H 15.3729 -1.89901 0.0613655 0
M  V30 184 H 13.5229 -3.36626 -1.93946 0
M  V30 185 H 15.1949 -4.59887 0.360844 0
M  V30 186 H 13.4379 -4.31873 0.408482 0
M  V30 187 H 14.1089 -5.46851 -0.752218 0
M  V30 188 H 16.5849 -3.79477 -1.70693 0
M  V30 189 H 15.4609 -4.80729 -2.64936 0
M  V30 190 H 15.7219 -3.13455 -3.11766 0
M  V30 191 N 14.781 0.264519 -1.55364 0
M  V30 192 C 16.006 1.01726 -1.80739 0
M  V30 193 C 16.431 1.78836 -0.583044 0
M  V30 194 O 15.789 1.75167 0.467566 0
M  V30 195 C 15.837 1.94482 -3.03659 0
M  V30 196 O 14.941 3.03386 -2.7934 0
M  V30 197 H 14.282 0.290395 -0.597132 0
M  V30 198 H 16.812 0.290854 -2.02522 0
M  V30 199 H 16.822 2.36278 -3.32621 0
M  V30 200 H 15.497 1.37772 -3.92418 0
M  V30 201 H 14.074 2.65844 -2.61498 0
M  V30 202 N 16.2591 1.48442 0.529413 0
M  V30 203 C 17.1921 1.57577 1.65059 0
M  V30 204 C 18.1701 0.426198 1.56915 0
M  V30 205 O 19.3541 0.637877 1.77379 0
M  V30 206 C 16.4811 1.5043 3.03461 0
M  V30 207 C 15.5271 2.70235 3.29962 0
M  V30 208 S 16.3601 4.32198 3.16172 0
M  V30 209 C 17.5161 4.2765 4.57019 0
M  V30 210 H 17.7491 2.52427 1.5706 0
M  V30 211 H 15.2821 1.36982 0.712417 0
M  V30 212 H 17.2401 1.46992 3.8328 0
M  V30 213 H 15.9011 0.569167 3.089 0
M  V30 214 H 15.0941 2.61374 4.30929 0
M  V30 215 H 14.6961 2.70938 2.57815 0
M  V30 216 H 16.9881 3.97618 5.48549 0
M  V30 217 H 17.9311 5.28797 4.70934 0
M  V30 218 H 18.3391 3.5811 4.36368 0
M  V30 219 N 17.7372 -0.778329 1.37039 0
M  V30 220 C 18.9672 -1.56507 1.34868 0
M  V30 221 C 19.3752 -1.89072 -0.0694802 0
M  V30 222 O 18.7182 -1.51434 -1.03987 0
M  V30 223 C 18.7802 -2.90641 2.11585 0
M  V30 224 C 18.4442 -2.80746 3.60598 0
M  V30 225 C 19.4412 -2.52226 4.54618 0
M  V30 226 C 17.1262 -2.98974 4.03633 0
M  V30 227 C 19.1202 -2.42054 5.89651 0
M  V30 228 C 16.8072 -2.88423 5.38754 0
M  V30 229 C 17.8052 -2.60002 6.31576 0
M  V30 230 O 17.4932 -2.49465 7.64214 0
M  V30 231 H 17.2252 -0.491723 0.463879 0
M  V30 232 H 19.7792 -0.973053 1.80889 0
M  V30 233 H 18.0092 -3.51936 1.60243 0
M  V30 234 H 19.6982 -3.51992 2.0213 0
M  V30 235 H 20.4642 -2.37835 4.22681 0
M  V30 236 H 16.3432 -3.20099 3.31749 0
M  V30 237 H 19.8872 -2.19791 6.62071 0
M  V30 238 H 15.7842 -3.0238 5.70295 0
M  V30 239 H 16.5522 -2.64864 7.74461 0
M  V30 240 N 19.2153 -1.21501 -1.00376 0
M  V30 241 C 20.4633 -1.03095 -1.73827 0
M  V30 242 C 20.7843 0.436341 -1.90055 0
M  V30 243 O 20.0543 1.31466 -1.45236 0
M  V30 244 H 18.6343 -0.378487 -0.644016 0
M  V30 245 H 21.2963 -1.52831 -1.20949 0
M  V30 246 H 20.3923 -1.49991 -2.73695 0
M  V30 247 N 20.6934 1.19889 -1.02296 0
M  V30 248 C 22.1044 1.71124 -0.746568 0
M  V30 249 C 22.4554 1.81939 0.734335 0
M  V30 250 O 21.5804 1.48639 1.57275 0
M  V30 251 C 22.1754 3.10804 -1.34857 0
M  V30 252 C 20.7344 3.59323 -1.1209 0
M  V30 253 C 19.8814 2.3635 -1.45031 0
M  V30 254 H 22.8324 1.04813 -1.19163 0
M  V30 255 H 22.8534 3.73186 -0.742437 0
M  V30 256 H 22.3654 3.029 -2.42638 0
M  V30 257 H 20.4664 3.7255 -0.0610337 0
M  V30 258 H 20.5794 4.4378 -1.80544 0
M  V30 259 H 18.9434 2.39399 -0.869487 0
M  V30 260 H 19.7264 2.31081 -2.53883 0
M  V30 261 N 22.1715 0.800033 1.35784 0
M  V30 262 C 23.3995 0.389606 2.03199 0
M  V30 263 C 23.8145 -0.997375 1.60306 0
M  V30 264 O 23.1715 -1.64154 0.797481 0
M  V30 265 C 23.2225 0.455855 3.58614 0
M  V30 266 O 22.9435 1.78815 3.99946 0
M  V30 267 C 24.4445 0.0374032 4.43284 0
M  V30 268 H 21.6645 0.159132 0.651857 0
M  V30 269 H 24.2085 1.08183 1.73541 0
M  V30 270 H 22.3635 -0.188057 3.86943 0
M  V30 271 H 22.7775 1.74636 4.94573 0
M  V30 272 H 24.2515 0.134882 5.51835 0
M  V30 273 H 24.7285 -1.01651 4.27275 0
M  V30 274 H 25.3345 0.654215 4.20238 0
M  V30 275 N 23.6496 -1.47581 0.552962 0
M  V30 276 C 24.8776 -2.06875 0.0320556 0
M  V30 277 C 25.2926 -1.40625 -1.25976 0
M  V30 278 O 24.6496 -0.501349 -1.75479 0
M  V30 279 C 24.7006 -3.61092 -0.17167 0
M  V30 280 O 24.4216 -4.24858 1.06899 0
M  V30 281 C 25.9226 -4.37242 -0.730344 0
M  V30 282 H 23.1426 -0.669561 0.043915 0
M  V30 283 H 25.6866 -1.89646 0.765163 0
M  V30 284 H 23.8416 -3.7785 -0.854894 0
M  V30 285 H 24.2556 -5.17334 0.864059 0
M  V30 286 H 25.7296 -5.45842 -0.822203 0
M  V30 287 H 26.2066 -4.03235 -1.74064 0
M  V30 288 H 26.8126 -4.25219 -0.0829543 0
M  V30 289 N 25.1277 -0.289203 -1.54924 0
M  V30 290 C 26.3757 0.322879 -1.99504 0
M  V30 291 C 26.6967 1.55313 -1.1791 0
M  V30 292 O 25.9667 1.94001 -0.272097 0
M  V30 293 H 24.5467 0.122291 -0.736922 0
M  V30 294 H 27.2087 -0.397802 -1.90797 0
M  V30 295 H 26.3047 0.603061 -3.06218 0
M  V30 296 N 26.6058 1.57591 -0.0167156 0
M  V30 297 C 27.8828 1.82547 0.702564 0
M  V30 298 C 28.2628 0.898018 1.91047 0
M  V30 299 O 27.6108 -0.0493456 2.28447 0
M  V30 300 C 27.8208 3.31459 1.09251 0
M  V30 301 C 29.1688 3.97622 1.48937 0
M  V30 302 O 30.1928 3.35881 1.18584 0
M  V30 303 O 29.0518 5.06415 2.05442 0
M  V30 304 H 26.1458 0.752268 0.343544 0
M  V30 305 H 28.6918 1.69644 -0.0434495 0
M  V30 306 H 27.4638 3.9061 0.23227 0
M  V30 307 H 27.0868 3.49422 1.89709 0
M  V30 308 N 28.0839 -0.256276 1.55502 0
M  V30 309 C 29.0309 -1.31714 1.89526 0
M  V30 310 C 30.0009 -1.4828 0.748479 0
M  V30 311 O 31.1859 -1.62416 1.00128 0
M  V30 312 C 28.3259 -2.66933 2.18725 0
M  V30 313 C 27.4389 -2.58452 3.4616 0
M  V30 314 C 26.5739 -3.85961 3.64976 0
M  V30 315 C 25.6129 -3.72059 4.86044 0
M  V30 316 N 24.7499 -4.9144 5.01429 0
M  V30 317 H 29.5899 -1.01998 2.80001 0
M  V30 318 H 27.1269 -0.492413 1.38613 0
M  V30 319 H 29.0849 -3.4563 2.33657 0
M  V30 320 H 27.7149 -2.94816 1.31466 0
M  V30 321 H 26.7669 -1.71374 3.3961 0
M  V30 322 H 28.0789 -2.44085 4.34999 0
M  V30 323 H 27.2329 -4.73101 3.79816 0
M  V30 324 H 25.9719 -4.03215 2.74353 0
M  V30 325 H 24.9769 -2.83302 4.7119 0
M  V30 326 H 26.2019 -3.56309 5.78118 0
M  V30 327 H 24.1479 -5.09072 4.13741 0
M  V30 328 H 24.0649 -4.79668 5.84341 0
M  V30 329 H 25.3329 -5.80104 5.20672 0
M  V30 330 N 29.562 -1.4872 -0.521534 0
M  V30 331 C 30.808 -1.574 -1.27879 0
M  V30 332 C 31.141 -0.250817 -1.92573 0
M  V30 333 O 30.416 0.743934 -1.79711 0
M  V30 334 C 30.699 -2.71843 -2.36164 0
M  V30 335 C 30.552 -4.13893 -1.76105 0
M  V30 336 C 31.871 -2.82008 -3.37875 0
M  V30 337 H 28.99 -0.572941 -0.463581 0
M  V30 338 H 31.632 -1.80927 -0.580119 0
M  V30 339 H 29.782 -2.51914 -2.95756 0
M  V30 340 H 31.454 -4.45284 -1.20499 0
M  V30 341 H 29.697 -4.20498 -1.06601 0
M  V30 342 H 30.368 -4.89804 -2.5455 0
M  V30 343 H 32.844 -3.00086 -2.88249 0
M  V30 344 H 31.72 -3.63796 -4.11028 0
M  V30 345 H 31.981 -1.90511 -3.98946 0
M  V30 346 N 31.0401 0.771051 -1.3745 0
M  V30 347 C 32.4561 1.07171 -1.18265 0
M  V30 348 C 32.6561 2.01491 -0.019287 0
M  V30 349 O 31.7121 2.44244 0.640408 0
M  V30 350 C 33.0251 1.66854 -2.50161 0
M  V30 351 C 34.5731 1.79109 -2.56689 0
M  V30 352 C 35.0481 2.42205 -3.88717 0
M  V30 353 N 36.5391 2.49655 -3.90162 0
M  V30 354 C 37.2741 2.9933 -4.8907 0
M  V30 355 N 36.7701 3.49172 -5.98374 0
M  V30 356 N 38.5631 2.9821 -4.76474 0
M  V30 357 H 30.7141 0.144796 -2.11906 0
M  V30 358 H 32.9771 0.126863 -0.939473 0
M  V30 359 H 32.6831 1.05017 -3.35655 0
M  V30 360 H 32.5571 2.6614 -2.673 0
M  V30 361 H 34.9441 2.40077 -1.71601 0
M  V30 362 H 35.0251 0.785757 -2.43433 0
M  V30 363 H 34.6691 1.81875 -4.74219 0
M  V30 364 H 34.5991 3.43345 -3.99276 0
M  V30 365 H 37.0901 2.14383 -3.11205 0
M  V30 366 H 37.4031 3.8548 -6.69795 0
M  V30 367 H 35.7481 3.47275 -6.02018 0
M  V30 368 H 38.9391 2.58572 -3.90203 0
M  V30 369 H 39.1121 3.36613 -5.53711 0
M  V30 370 N 32.5182 1.22032 0.997298 0
M  V30 371 C 33.4482 1.01065 2.10495 0
M  V30 372 C 34.4292 -0.0669542 1.69968 0
M  V30 373 O 35.6142 0.0943987 1.9397 0
M  V30 374 C 32.7442 0.582874 3.42374 0
M  V30 375 C 31.6982 1.60592 3.96729 0
M  V30 376 C 31.0242 1.03412 5.24605 0
M  V30 377 C 32.3242 2.99478 4.27914 0
M  V30 378 H 34.0182 1.93708 2.28292 0
M  V30 379 H 31.5642 0.932761 1.09707 0
M  V30 380 H 33.5172 0.423332 4.19268 0
M  V30 381 H 32.2412 -0.379213 3.24391 0
M  V30 382 H 30.9002 1.75316 3.21963 0
M  V30 383 H 30.5482 0.063518 5.0296 0
M  V30 384 H 30.2482 1.71754 5.61938 0
M  V30 385 H 31.7722 0.886066 6.04137 0
M  V30 386 H 33.1862 2.88153 4.95622 0
M  V30 387 H 31.5832 3.64903 4.76409 0
M  V30 388 H 32.6532 3.49742 3.3587 0
M  V30 389 N 33.9963 -1.19345 1.0293 0
M  V30 390 C 35.2443 -1.88665 0.724574 0
M  V30 391 C 35.5653 -1.80036 -0.749144 0
M  V30 392 O 34.8353 -1.2111 -1.53978 0
M  V30 393 H 33.4153 -0.698406 0.265025 0
M  V30 394 H 36.0773 -1.44885 1.30362 0
M  V30 395 H 35.1733 -2.94987 1.01926 0
M  V30 396 N 35.4744 -0.807222 -1.35358 0
M  V30 397 C 36.7514 -0.311126 -1.9311 0
M  V30 398 C 37.1314 1.19937 -1.73719 0
M  V30 399 O 36.4794 1.99918 -1.10657 0
M  V30 400 C 36.6894 -0.723226 -3.41424 0
M  V30 401 C 38.0374 -0.713078 -4.18569 0
M  V30 402 O 39.0614 -0.664811 -3.49941 0
M  V30 403 O 37.9204 -0.772022 -5.41019 0
M  V30 404 H 35.0144 -0.081526 -0.822972 0
M  V30 405 H 37.5604 -0.890962 -1.4443 0
M  V30 406 H 36.3324 -1.76426 -3.4927 0
M  V30 407 H 35.9554 -0.118232 -3.97424 0
M  V30 408 N 36.9525 1.47285 -0.560781 0
M  V30 409 C 38.1805 2.06855 -0.0430262 0
M  V30 410 C 38.5955 1.41291 1.25229 0
M  V30 411 O 37.9525 0.510648 1.7521 0
M  V30 412 C 38.0035 3.61178 0.152518 0
M  V30 413 O 37.7245 4.24285 -1.0915 0
M  V30 414 C 39.2255 4.37624 0.707145 0
M  V30 415 H 36.4455 0.669319 -0.0474652 0
M  V30 416 H 38.9895 1.89237 -0.77521 0
M  V30 417 H 37.1445 3.78298 0.834843 0
M  V30 418 H 37.5585 5.16868 -0.891482 0
M  V30 419 H 39.0325 5.46271 0.793244 0
M  V30 420 H 39.5095 4.04152 1.71923 0
M  V30 421 H 40.1155 4.25257 0.0604027 0
M  V30 422 N 38.4306 0.297415 1.54768 0
M  V30 423 C 39.7076 -0.365847 1.92148 0
M  V30 424 C 40.0876 -1.71975 1.22424 0
M  V30 425 O 39.4356 -2.25666 0.358739 0
M  V30 426 C 39.6456 -0.484056 3.45627 0
M  V30 427 C 40.9936 -0.756594 4.17805 0
M  V30 428 O 42.0176 -0.568007 3.51642 0
M  V30 429 O 40.8766 -1.11863 5.34929 0
M  V30 430 H 37.9706 -0.203919 0.801465 0
M  V30 431 H 40.5166 0.34521 1.66152 0
M  V30 432 H 39.2886 0.467865 3.88493 0
M  V30 433 H 38.9116 -1.24372 3.77647 0
M  V30 434 N 39.9087 -1.5758 0.0250728 0
M  V30 435 C 40.8387 -2.13007 -0.956575 0
M  V30 436 C 41.8197 -1.0452 -1.342 0
M  V30 437 O 43.0047 -1.32332 -1.42133 0
M  V30 438 C 40.1347 -2.65386 -2.24026 0
M  V30 439 C 39.0887 -3.78623 -1.99571 0
M  V30 440 C 38.4147 -4.17414 -3.3417 0
M  V30 441 C 39.7147 -5.04867 -1.33814 0
M  V30 442 H 41.4087 -2.9528 -0.494991 0
M  V30 443 H 38.9547 -1.42042 -0.236651 0
M  V30 444 H 40.9077 -3.02794 -2.93076 0
M  V30 445 H 39.6317 -1.80268 -2.72343 0
M  V30 446 H 38.2907 -3.41646 -1.32941 0
M  V30 447 H 37.9387 -3.29284 -3.80238 0
M  V30 448 H 37.6387 -4.93719 -3.18615 0
M  V30 449 H 39.1627 -4.57402 -4.04495 0
M  V30 450 H 40.5767 -5.39888 -1.92857 0
M  V30 451 H 38.9737 -5.86144 -1.28669 0
M  V30 452 H 40.0437 -4.83904 -0.310561 0
M  V30 453 N 41.3868 0.248026 -1.55636 0
M  V30 454 C 42.6358 0.974134 -1.76617 0
M  V30 455 C 42.9488 1.86528 -0.588796 0
M  V30 456 O 44.1548 2.62805 -0.681594 0
M  V30 457 C 42.6108 1.78213 -3.12679 0
M  V30 458 C 42.2188 0.93843 -4.38061 0
M  V30 459 C 43.9628 2.50104 -3.42999 0
M  V30 460 C 41.8698 1.74225 -5.65155 0
M  V30 461 H 40.7998 0.36745 -0.658405 0
M  V30 462 H 43.4508 0.22884 -1.82067 0
M  V30 463 H 41.8328 2.56933 -3.01333 0
M  V30 464 H 43.0068 0.193635 -4.60393 0
M  V30 465 H 41.3218 0.332905 -4.15067 0
M  V30 466 H 43.9188 3.10694 -4.3517 0
M  V30 467 H 44.2618 3.21662 -2.64271 0
M  V30 468 H 44.7948 1.78395 -3.55556 0
M  V30 469 H 41.5338 1.07043 -6.46701 0
M  V30 470 H 41.0538 2.46235 -5.46926 0
M  V30 471 H 42.7328 2.30967 -6.0437 0
M  V30 472 N 42.8649 1.48995 0.513639 0
M  V30 473 C 43.8279 1.64229 1.59879 0
M  V30 474 C 44.8279 0.514696 1.5234 0
M  V30 475 O 46.0179 0.78087 1.55718 0
M  V30 476 C 43.1499 1.62783 2.99524 0
M  V30 477 H 44.3429 2.61004 1.47705 0
M  V30 478 H 41.8959 1.37837 0.736936 0
M  V30 479 H 42.6309 0.675461 3.17188 0
M  V30 480 H 42.4159 2.4466 3.06404 0
M  V30 481 H 43.9059 1.76669 3.78388 0
M  V30 482 N 44.343 -0.763751 1.37857 0
M  V30 483 C 45.253 -1.90817 1.36478 0
M  V30 484 C 46.269 -1.71997 0.263248 0
M  V30 485 O 47.445 -1.95095 0.499979 0
M  V30 486 C 44.51 -3.2605 1.17864 0
M  V30 487 C 43.571 -3.57467 2.3773 0
M  V30 488 C 42.804 -4.86249 2.19995 0
M  V30 489 O 43.027 -5.57884 1.18836 0
M  V30 490 O 41.961 -5.16911 3.08361 0
M  V30 491 H 45.787 -1.94933 2.32884 0
M  V30 492 H 43.372 -0.907619 1.1867 0
M  V30 493 H 45.254 -4.06924 1.09504 0
M  V30 494 H 43.929 -3.22769 0.245372 0
M  V30 495 H 42.836 -2.76796 2.51664 0
M  V30 496 H 44.169 -3.655 3.29652 0
M  V30 497 N 45.8211 -1.22559 -0.990812 0
M  V30 498 C 47.0671 -1.05297 -1.73322 0
M  V30 499 C 47.4001 0.410655 -1.89808 0
M  V30 500 O 46.6751 1.30439 -1.44277 0
M  V30 501 C 46.9581 -1.76713 -3.13759 0
M  V30 502 C 46.8111 -3.30684 -3.04907 0
M  V30 503 C 48.1301 -1.52121 -4.12974 0
M  V30 504 H 45.2491 -0.38392 -0.629106 0
M  V30 505 H 47.8911 -1.50926 -1.15418 0
M  V30 506 H 46.0411 -1.37924 -3.63193 0
M  V30 507 H 47.7131 -3.7893 -2.63077 0
M  V30 508 H 45.9561 -3.60253 -2.41661 0
M  V30 509 H 46.6271 -3.75833 -4.04294 0
M  V30 510 H 49.1031 -1.85819 -3.72304 0
M  V30 511 H 47.9791 -2.04582 -5.0935 0
M  V30 512 H 48.2401 -0.454257 -4.3976 0
M  V30 513 N 47.2992 1.18797 -1.03562 0
M  V30 514 C 48.2092 2.25913 -0.632505 0
M  V30 515 C 49.2252 1.70668 0.338882 0
M  V30 516 O 50.4012 2.00453 0.195076 0
M  V30 517 C 47.4662 3.467 0.00350942 0
M  V30 518 C 46.5272 4.17098 -1.01624 0
M  V30 519 C 45.7602 5.32119 -0.410478 0
M  V30 520 O 45.9832 5.64976 0.784725 0
M  V30 521 O 44.9172 5.9107 -1.13667 0
M  V30 522 H 48.7432 2.62648 -1.52478 0
M  V30 523 H 46.3282 1.25781 -0.806195 0
M  V30 524 H 48.2102 4.19878 0.35781 0
M  V30 525 H 46.8852 3.11798 0.869686 0
M  V30 526 H 45.7922 3.4601 -1.42224 0
M  V30 527 H 47.1252 4.55987 -1.85301 0
M  V30 528 N 48.7773 0.814389 1.34928 0
M  V30 529 C 49.7273 0.202752 2.27097 0
M  V30 530 C 50.7113 -0.62799 1.48139 0
M  V30 531 O 51.9033 -0.483969 1.70255 0
M  V30 532 C 49.0323 -0.64146 3.37254 0
M  V30 533 C 48.1183 0.19944 4.23631 0
M  V30 534 N 48.5093 1.26628 4.89693 0
M  V30 535 C 46.8073 -0.0176433 4.45997 0
M  V30 536 C 47.5083 1.78031 5.53787 0
M  V30 537 N 46.4843 1.08553 5.32651 0
M  V30 538 H 50.2863 1.01893 2.75672 0
M  V30 539 H 47.8003 0.656332 1.48546 0
M  V30 540 H 49.7973 -1.09575 4.02243 0
M  V30 541 H 48.4573 -1.4559 2.9023 0
M  V30 542 H 49.4683 1.64901 4.90946 0
M  V30 543 H 46.1453 -0.800601 4.09752 0
M  V30 544 H 47.5353 2.67236 6.16469 0
M  V30 545 N 50.2554 -1.46986 0.568584 0
M  V30 546 C 51.5324 -1.95592 -0.0174074 0
M  V30 547 C 51.9124 -1.51124 -1.47393 0
M  V30 548 O 51.2604 -0.755329 -2.15655 0
M  V30 549 C 51.4704 -3.48719 0.139913 0
M  V30 550 C 52.8184 -4.246 0.000426376 0
M  V30 551 O 53.8424 -3.56135 0.0680316 0
M  V30 552 O 52.7014 -5.46302 -0.146988 0
M  V30 553 H 49.7954 -0.82498 -0.0577599 0
M  V30 554 H 52.3414 -1.57335 0.635909 0
M  V30 555 H 51.1134 -3.73927 1.15301 0
M  V30 556 H 50.7364 -3.93771 -0.550491 0
M  V30 557 N 51.7335 -0.305618 -1.54608 0
M  V30 558 C 52.9635 0.304333 -2.04346 0
M  V30 559 C 53.3715 1.47715 -1.18224 0
M  V30 560 O 52.7145 1.82591 -0.201577 0
M  V30 561 C 52.7765 0.819031 -3.50046 0
M  V30 562 C 52.4405 -0.22912 -4.56425 0
M  V30 563 C 53.4375 -1.05914 -5.08997 0
M  V30 564 C 51.1225 -0.372148 -5.0092 0
M  V30 565 C 53.1165 -2.01809 -6.04609 0
M  V30 566 C 50.8035 -1.33454 -5.9635 0
M  V30 567 C 51.8015 -2.15599 -6.48079 0
M  V30 568 O 51.4895 -3.10205 -7.41639 0
M  V30 569 H 51.2215 0.0693996 -0.672428 0
M  V30 570 H 53.7755 -0.444548 -2.00532 0
M  V30 571 H 52.0055 1.61852 -3.51199 0
M  V30 572 H 53.6945 1.34537 -3.82955 0
M  V30 573 H 54.4605 -0.959538 -4.75413 0
M  V30 574 H 50.3395 0.257304 -4.60281 0
M  V30 575 H 53.8835 -2.65966 -6.44909 0
M  V30 576 H 49.7805 -1.43485 -6.29351 0
M  V30 577 H 50.5485 -3.05237 -7.59455 0
M  V30 578 N 53.2116 1.57565 -0.0334293 0
M  V30 579 C 54.4396 1.9628 0.654347 0
M  V30 580 C 54.8546 0.910138 1.65414 0
M  V30 581 O 54.2116 -0.107595 1.82183 0
M  V30 582 C 54.2626 3.35067 1.35693 0
M  V30 583 O 53.9836 4.36296 0.397191 0
M  V30 584 C 55.4846 3.88439 2.13613 0
M  V30 585 H 52.7046 0.646369 0.180132 0
M  V30 586 H 55.2486 2.04282 -0.0944721 0
M  V30 587 H 53.4036 3.2827 2.05712 0
M  V30 588 H 53.8176 5.1678 0.896597 0
M  V30 589 H 55.2916 4.8788 2.58219 0
M  V30 590 H 55.7686 3.22914 2.97696 0
M  V30 591 H 56.3746 3.98516 1.48543 0
M  V30 592 N 54.6897 -0.239769 1.55765 0
M  V30 593 C 55.9387 -0.964754 1.77131 0
M  V30 594 C 56.2517 -1.86213 0.59868 0
M  V30 595 O 57.4577 -2.6244 0.695522 0
M  V30 596 C 55.9137 -1.76552 3.1362 0
M  V30 597 C 55.5217 -0.915185 4.38553 0
M  V30 598 C 57.2657 -2.48281 3.44321 0
M  V30 599 C 55.1727 -1.71225 5.66071 0
M  V30 600 H 54.1027 -0.363953 0.660344 0
M  V30 601 H 56.7537 -0.219181 1.82186 0
M  V30 602 H 55.1357 -2.55331 3.02691 0
M  V30 603 H 56.3097 -0.169217 4.60489 0
M  V30 604 H 54.6247 -0.310889 4.15238 0
M  V30 605 H 57.2217 -3.08382 4.36812 0
M  V30 606 H 57.5647 -3.20256 2.65973 0
M  V30 607 H 58.0977 -1.76507 3.56497 0
M  V30 608 H 54.8367 -1.03612 6.4726 0
M  V30 609 H 54.3567 -2.43331 5.48224 0
M  V30 610 H 56.0357 -2.27758 6.05587 0
M  V30 611 N 56.1678 -1.49265 -0.50573 0
M  V30 612 C 57.3978 -1.61979 -1.28243 0
M  V30 613 C 57.8058 -0.288576 -1.86986 0
M  V30 614 O 57.1488 0.735408 -1.68337 0
M  V30 615 C 57.2108 -2.62632 -2.45489 0
M  V30 616 C 56.8748 -4.071 -2.07651 0
M  V30 617 C 57.8718 -4.94049 -1.61901 0
M  V30 618 C 55.5568 -4.52801 -2.17431 0
M  V30 619 C 57.5508 -6.24736 -1.26428 0
M  V30 620 C 55.2378 -5.83503 -1.8157 0
M  V30 621 C 56.2358 -6.69294 -1.36142 0
M  V30 622 O 55.9238 -7.9756 -1.00764 0
M  V30 623 H 55.6558 -0.54834 -0.395347 0
M  V30 624 H 58.2098 -1.96002 -0.614204 0
M  V30 625 H 56.4398 -2.2378 -3.15372 0
M  V30 626 H 58.1288 -2.64925 -3.07522 0
M  V30 627 H 58.8948 -4.5997 -1.53795 0
M  V30 628 H 54.7738 -3.86196 -2.51742 0
M  V30 629 H 58.3178 -6.91652 -0.908992 0
M  V30 630 H 54.2148 -6.17112 -1.89324 0
M  V30 631 H 54.9828 -8.10529 -1.13952 0
M  V30 632 N 57.6459 0.756429 -1.3826 0
M  V30 633 C 58.8939 1.51248 -1.34047 0
M  V30 634 C 59.2149 1.94875 0.0698372 0
M  V30 635 O 58.4849 1.67436 1.01696 0
M  V30 636 H 57.0649 0.561018 -0.493222 0
M  V30 637 H 59.7269 0.899347 -1.7291 0
M  V30 638 H 58.8229 2.40472 -1.98947 0
M  V30 639 N 59.124 1.23083 0.984299 0
M  V30 640 C 60.034 1.02515 2.11016 0
M  V30 641 C 61.05 -0.0291702 1.73976 0
M  V30 642 O 62.226 0.165434 2.00719 0
M  V30 643 C 59.291 0.614673 3.41208 0
M  V30 644 C 58.352 1.74359 3.92297 0
M  V30 645 C 57.585 1.35261 5.16275 0
M  V30 646 O 57.808 0.235136 5.69915 0
M  V30 647 O 56.742 2.17227 5.61334 0
M  V30 648 H 60.568 1.96862 2.31255 0
M  V30 649 H 58.153 1.01753 1.09392 0
M  V30 650 H 60.035 0.396518 4.1953 0
M  V30 651 H 58.71 -0.299851 3.22308 0
M  V30 652 H 57.617 2.01635 3.1511 0
M  V30 653 H 58.95 2.63629 4.15645 0
M  V30 654 N 60.6021 -1.18246 1.0419 0
M  V30 655 C 61.5121 -2.25574 0.644476 0
M  V30 656 C 62.5281 -1.70845 -0.329826 0
M  V30 657 O 63.7041 -2.00554 -0.184443 0
M  V30 658 C 60.7691 -3.46697 0.014877 0
M  V30 659 C 59.8301 -4.16554 1.03834 0
M  V30 660 C 59.0631 -5.31894 0.438692 0
M  V30 661 O 59.2861 -5.65385 -0.754752 0
M  V30 662 O 58.2201 -5.90459 1.168 0
M  V30 663 H 62.0461 -2.61836 1.53869 0
M  V30 664 H 59.6311 -1.25352 0.812854 0
M  V30 665 H 61.5131 -4.20062 -0.335538 0
M  V30 666 H 60.1881 -3.12255 -0.853138 0
M  V30 667 H 59.0951 -3.45251 1.44057 0
M  V30 668 H 60.4281 -4.54998 1.87716 0
M  V30 669 N 62.0802 -0.821533 -1.34494 0
M  V30 670 C 63.0102 -0.257138 -2.3208 0
M  V30 671 C 63.9912 0.625645 -1.58176 0
M  V30 672 O 65.1762 0.552811 -1.86166 0
M  V30 673 C 62.3062 0.582958 -3.42372 0
M  V30 674 C 61.2602 -0.202571 -4.2752 0
M  V30 675 C 60.5862 0.760179 -5.29269 0
M  V30 676 C 61.8862 -1.40998 -5.02908 0
M  V30 677 H 63.5802 -1.07247 -2.79532 0
M  V30 678 H 61.1262 -0.517163 -1.34393 0
M  V30 679 H 63.0792 0.987972 -4.09655 0
M  V30 680 H 61.8032 1.43133 -2.93565 0
M  V30 681 H 60.4622 -0.588936 -3.61838 0
M  V30 682 H 60.1102 1.60447 -4.76724 0
M  V30 683 H 59.8102 0.238809 -5.87115 0
M  V30 684 H 61.3342 1.16308 -5.9942 0
M  V30 685 H 62.7482 -1.07905 -5.63054 0
M  V30 686 H 61.1452 -1.86689 -5.70322 0
M  V30 687 H 62.2152 -2.1889 -4.32684 0
M  V30 688 N 63.5583 1.46682 -0.576371 0
M  V30 689 C 64.5053 2.30241 0.160499 0
M  V30 690 C 65.4753 1.40233 0.890162 0
M  V30 691 O 66.6603 1.69186 0.882084 0
M  V30 692 C 63.8003 3.24578 1.1723 0
M  V30 693 C 62.9133 4.29684 0.446736 0
M  V30 694 C 62.0483 5.11154 1.44551 0
M  V30 695 C 61.0873 6.08015 0.70599 0
M  V30 696 N 60.2243 6.82376 1.65251 0
M  V30 697 H 65.0643 2.92727 -0.558127 0
M  V30 698 H 62.6013 1.44272 -0.287056 0
M  V30 699 H 64.5593 3.77711 1.77172 0
M  V30 700 H 63.1893 2.63916 1.85872 0
M  V30 701 H 62.2413 3.79458 -0.267594 0
M  V30 702 H 63.5533 4.98626 -0.131686 0
M  V30 703 H 62.7073 5.68533 2.11791 0
M  V30 704 H 61.4463 4.42158 2.05786 0
M  V30 705 H 60.4513 5.49796 0.0197725 0
M  V30 706 H 61.6763 6.79028 0.09912 0
M  V30 707 H 59.6223 6.16094 2.25308 0
M  V30 708 H 59.5393 7.47556 1.12673 0
M  V30 709 H 60.8073 7.44316 2.31546 0
M  V30 710 N 65.0364 0.313813 1.54444 0
M  V30 711 C 66.2834 -0.291675 2.00388 0
M  V30 712 C 66.6114 -1.52904 1.2021 0
M  V30 713 O 65.8664 -1.93833 0.269707 0
M  V30 714 C 66.1654 -0.680386 3.50864 0
M  V30 715 C 65.8314 0.456699 4.48581 0
M  V30 716 C 64.4934 0.768824 4.75018 0
M  V30 717 C 66.8454 1.22098 5.06697 0
M  V30 718 C 64.1734 1.84812 5.56831 0
M  V30 719 C 66.5254 2.29029 5.89685 0
M  V30 720 C 65.1894 2.60834 6.14428 0
M  V30 721 H 64.4594 -0.106732 0.733273 0
M  V30 722 H 67.1064 0.43557 1.86481 0
M  V30 723 H 65.4114 -1.48791 3.62448 0
M  V30 724 H 67.1084 -1.16026 3.83847 0
M  V30 725 H 63.6984 0.203337 4.28117 0
M  V30 726 H 67.8824 0.993096 4.86263 0
M  V30 727 H 63.1384 2.09912 5.74236 0
M  V30 728 H 67.3124 2.887 6.33739 0
M  V30 729 H 64.9394 3.44596 6.77612 0
M  V30 730 N 66.5145 -1.57545 0.0417849 0
M  V30 731 C 67.7625 -1.91937 -0.632829 0
M  V30 732 C 68.0835 -0.919978 -1.71934 0
M  V30 733 O 67.3535 0.0366064 -1.95866 0
M  V30 734 H 65.9335 -0.708493 -0.236742 0
M  V30 735 H 68.5955 -1.9468 0.0925745 0
M  V30 736 H 67.6915 -2.92912 -1.07746 0
M  V30 737 N 67.9926 0.231505 -1.5589 0
M  V30 738 C 69.2406 0.955461 -1.78088 0
M  V30 739 C 69.5616 1.85262 -0.608533 0
M  V30 740 O 68.8316 1.92277 0.375035 0
M  V30 741 H 67.4116 0.355787 -0.656829 0
M  V30 742 H 70.0736 0.245751 -1.93344 0
M  V30 743 H 69.1696 1.56814 -2.69844 0
M  V30 744 N 69.4707 1.49531 0.497807 0
M  V30 745 C 70.7187 1.58865 1.24926 0
M  V30 746 C 71.0397 0.278721 1.92998 0
M  V30 747 O 70.3097 -0.702144 1.82885 0
M  V30 748 H 68.8897 0.585343 0.464094 0
M  V30 749 H 71.5517 1.86174 0.57666 0
M  V30 750 H 70.6477 2.38633 2.01149 0
M  V30 751 N 70.9488 -0.749086 1.3866 0
M  V30 752 C 71.8958 -1.86291 1.36251 0
M  V30 753 C 72.8658 -1.64578 0.224347 0
M  V30 754 O 74.0508 -1.86181 0.417279 0
M  V30 755 C 71.1908 -3.23644 1.19786 0
M  V30 756 C 70.3038 -3.57158 2.43027 0
M  V30 757 C 69.4388 -4.83838 2.19258 0
M  V30 758 C 68.4778 -5.10152 3.38247 0
M  V30 759 N 67.6148 -6.28029 3.13884 0
M  V30 760 H 72.4548 -1.87685 2.3147 0
M  V30 761 H 69.9918 -0.917287 1.14997 0
M  V30 762 H 71.9498 -4.0291 1.08254 0
M  V30 763 H 70.5798 -3.21566 0.282031 0
M  V30 764 H 69.6318 -2.72701 2.65214 0
M  V30 765 H 70.9438 -3.7253 3.31697 0
M  V30 766 H 70.0978 -5.71057 2.04888 0
M  V30 767 H 68.8368 -4.70614 1.2796 0
M  V30 768 H 67.8418 -4.21401 3.53131 0
M  V30 769 H 69.0668 -5.25271 4.30427 0
M  V30 770 H 67.0128 -6.1612 2.25238 0
M  V30 771 H 66.9298 -6.43922 3.96106 0
M  V30 772 H 68.1978 -7.18124 3.03179 0
M  V30 773 N 72.4269 -1.23603 -0.977757 0
M  V30 774 C 73.6549 -1.09646 -1.75458 0
M  V30 775 C 74.0699 0.351859 -1.85492 0
M  V30 776 O 73.4269 1.24327 -1.336 0
M  V30 777 C 73.4779 -1.71895 -3.18016 0
M  V30 778 O 73.1989 -3.11063 -3.08498 0
M  V30 779 C 74.6999 -1.63415 -4.12081 0
M  V30 780 H 71.9199 -0.38359 -0.550545 0
M  V30 781 H 74.4639 -1.63507 -1.22824 0
M  V30 782 H 72.6189 -1.22061 -3.67668 0
M  V30 783 H 73.0329 -3.41305 -3.9826 0
M  V30 784 H 74.5069 -2.11669 -5.09804 0
M  V30 785 H 74.9839 -0.593462 -4.35172 0
M  V30 786 H 75.5899 -2.12628 -3.68334 0
M  V30 787 N 73.905 1.17692 -1.04816 0
M  V30 788 C 74.835 2.23777 -0.666791 0
M  V30 789 C 75.816 1.66796 0.33361 0
M  V30 790 O 77.001 1.93039 0.212042 0
M  V30 791 C 74.131 3.47281 -0.0367933 0
M  V30 792 C 73.085 4.17059 -0.961546 0
M  V30 793 C 72.411 5.34342 -0.195626 0
M  V30 794 C 73.711 4.69713 -2.28402 0
M  V30 795 H 75.405 2.55933 -1.55367 0
M  V30 796 H 72.951 1.23019 -0.748484 0
M  V30 797 H 74.904 4.20706 0.241775 0
M  V30 798 H 73.628 3.14381 0.885004 0
M  V30 799 H 72.287 3.45541 -1.22462 0
M  V30 800 H 71.935 4.97692 0.728816 0
M  V30 801 H 71.635 5.81966 -0.811775 0
M  V30 802 H 73.159 6.10553 0.0757473 0
M  V30 803 H 74.573 5.34794 -2.06563 0
M  V30 804 H 72.97 5.279 -2.8538 0
M  V30 805 H 74.04 3.86726 -2.92525 0
M  V30 806 N 75.3831 0.828654 1.34056 0
M  V30 807 C 76.7991 0.515135 1.51058 0
M  V30 808 C 76.9991 -0.959581 1.77184 0
M  V30 809 O 76.0551 -1.74382 1.82612 0
M  V30 810 C 77.3681 1.37963 2.67183 0
M  V30 811 C 78.9161 1.37735 2.81066 0
M  V30 812 C 79.3911 2.22645 4.00241 0
M  V30 813 N 80.8821 2.203 4.07458 0
M  V30 814 C 81.6171 2.82744 4.98842 0
M  V30 815 N 81.1131 3.54201 5.9541 0
M  V30 816 N 82.9061 2.72268 4.91759 0
M  V30 817 H 75.0571 1.78343 1.15358 0
M  V30 818 H 77.3201 0.760304 0.566252 0
M  V30 819 H 77.0261 2.42714 2.54525 0
M  V30 820 H 76.9001 1.0484 3.62338 0
M  V30 821 H 79.2871 0.337593 2.93163 0
M  V30 822 H 79.3681 1.74859 1.86703 0
M  V30 823 H 79.0121 3.26674 3.88905 0
M  V30 824 H 78.9421 1.82869 4.93829 0
M  V30 825 H 81.4331 1.68327 3.38341 0
M  V30 826 H 81.7461 3.9908 6.61782 0
M  V30 827 H 80.0911 3.58308 5.95517 0
M  V30 828 H 83.2821 2.16014 4.15278 0
M  V30 829 H 83.4551 3.21219 5.62781 0
M  V30 830 N 76.8612 -1.46375 0.584142 0
M  V30 831 C 77.7712 -2.34115 -0.150728 0
M  V30 832 C 78.7872 -1.49838 -0.884567 0
M  V30 833 O 79.9632 -1.82704 -0.847429 0
M  V30 834 C 77.0282 -3.2705 -1.15062 0
M  V30 835 C 76.0892 -4.27228 -0.421293 0
M  V30 836 C 75.3222 -5.15722 -1.37355 0
M  V30 837 O 75.5452 -5.07176 -2.61014 0
M  V30 838 O 74.4792 -5.95383 -0.883355 0
M  V30 839 H 78.3052 -2.98309 0.569708 0
M  V30 840 H 75.8902 -1.45373 0.344535 0
M  V30 841 H 77.7722 -3.84381 -1.72712 0
M  V30 842 H 76.4472 -2.65451 -1.8525 0
M  V30 843 H 75.3542 -3.7358 0.197085 0
M  V30 844 H 76.6872 -4.91616 0.239641 0
M  V30 845 N 78.3393 -0.321999 -1.54275 0
M  V30 846 C 79.5873 0.280489 -2.00144 0
M  V30 847 C 79.9083 1.52777 -1.21178 0
M  V30 848 O 79.1783 1.9338 -0.313187 0
M  V30 849 H 77.7583 0.106632 -0.73935 0
M  V30 850 H 80.4203 -0.438184 -1.8991 0
M  V30 851 H 79.5163 0.537972 -3.07428 0
M  V30 852 N 79.8174 1.5752 -0.0501392 0
M  V30 853 C 80.7504 2.07026 0.959962 0
M  V30 854 C 81.7284 0.970539 1.30458 0
M  V30 855 O 82.9124 1.2424 1.41763 0
M  V30 856 C 80.0394 2.5099 2.27424 0
M  V30 857 C 79.0854 3.72188 2.08275 0
M  V30 858 S 79.9184 5.17888 1.36207 0
M  V30 859 C 81.0744 5.65165 2.6896 0
M  V30 860 H 81.3074 2.9238 0.538631 0
M  V30 861 H 78.8404 1.53547 0.162099 0
M  V30 862 H 80.7984 2.76982 3.02971 0
M  V30 863 H 79.4594 1.65944 2.66686 0
M  V30 864 H 78.6524 4.00866 3.05487 0
M  V30 865 H 78.2544 3.46457 1.40868 0
M  V30 866 H 80.5464 5.70687 3.65133 0
M  V30 867 H 81.4894 6.64394 2.4492 0
M  V30 868 H 81.8974 4.9289 2.75172 0
M  V30 869 N 81.2955 -0.223234 1.56011 0
M  V30 870 C 82.5205 -0.968978 1.83373 0
M  V30 871 C 82.9455 -1.77227 0.630254 0
M  V30 872 O 82.3035 -1.76345 -0.420959 0
M  V30 873 C 82.3515 -1.86363 3.08709 0
M  V30 874 O 81.4555 -2.95873 2.87285 0
M  V30 875 H 80.7965 -0.274461 0.604622 0
M  V30 876 H 83.3265 -0.237056 2.03222 0
M  V30 877 H 83.3365 -2.27376 3.38768 0
M  V30 878 H 82.0115 -1.27319 3.95933 0
M  V30 879 H 80.5885 -2.58818 2.68454 0
M  V30 880 N 82.7736 -1.49793 -0.48987 0
M  V30 881 C 83.7056 -1.63413 -1.60713 0
M  V30 882 C 84.7186 -0.516329 -1.54395 0
M  V30 883 O 85.9076 -0.788812 -1.60125 0
M  V30 884 C 83.0076 -1.58516 -2.99543 0
M  V30 885 C 82.1806 -2.86016 -3.30928 0
M  V30 886 C 81.2396 -2.74018 -4.49222 0
M  V30 887 O 80.2656 -3.47964 -4.50455 0
M  V30 888 N 81.4676 -1.86309 -5.4979 0
M  V30 889 H 84.2326 -2.59777 -1.49452 0
M  V30 890 H 81.7936 -1.47022 -0.677955 0
M  V30 891 H 83.7856 -1.48128 -3.76617 0
M  V30 892 H 82.3556 -0.69965 -3.0467 0
M  V30 893 H 81.5756 -3.10672 -2.42645 0
M  V30 894 H 82.8636 -3.70521 -3.487 0
M  V30 895 H 82.2616 -1.2551 -5.51601 0
M  V30 896 H 80.8186 -1.81837 -6.25922 0
M  V30 897 N 84.2517 0.741722 -1.39055 0
M  V30 898 C 85.4767 1.53607 -1.39354 0
M  V30 899 C 85.9017 1.88096 0.0116905 0
M  V30 900 O 85.2597 1.5143 0.996924 0
M  V30 901 C 85.3077 2.80441 -2.26682 0
M  V30 902 O 84.4117 3.76088 -1.69208 0
M  V30 903 H 83.7527 0.464142 -0.474835 0
M  V30 904 H 86.2827 0.915665 -1.82967 0
M  V30 905 H 86.2927 3.29246 -2.40959 0
M  V30 906 H 84.9677 2.5467 -3.2881 0
M  V30 907 H 83.5447 3.34833 -1.64138 0
M  V30 908 N 85.7298 1.2412 0.971189 0
M  V30 909 C 86.6778 1.02812 2.08644 0
M  V30 910 C 87.6718 -0.0358403 1.69362 0
M  V30 911 O 88.8778 0.118429 1.7961 0
M  V30 912 H 85.2528 0.315428 0.682649 0
M  V30 913 H 87.2238 1.97397 2.23779 0
M  V30 914 C 85.9728 0.645874 3.41649 0
M  V30 915 H 85.2958 1.45632 3.72332 0
M  V30 916 H 86.7358 0.536366 4.20594 0
M  V30 917 C 85.1948 -0.646713 3.30635 0
M  V30 918 O 85.7248 -1.69338 3.64263 0
M  V30 919 N 83.9308 -0.626115 2.83775 0
M  V30 920 H 83.4778 0.225988 2.56607 0
M  V30 921 H 83.4358 -1.49117 2.76788 0
M  V30 922 N 87.2079 -1.17134 1.05439 0
M  V30 923 C 88.1559 -2.23289 0.651511 0
M  V30 924 C 89.1499 -1.66186 -0.328411 0
M  V30 925 O 90.3559 -1.78949 -0.194206 0
M  V30 926 H 86.7309 -0.726938 0.192523 0
M  V30 927 H 88.7019 -2.54565 1.55689 0
M  V30 928 C 87.4509 -3.47671 0.0448436 0
M  V30 929 H 86.7739 -3.91918 0.78996 0
M  V30 930 H 88.2139 -4.2353 -0.19964 0
M  V30 931 C 86.6729 -3.14453 -1.20918 0
M  V30 932 O 87.2029 -3.29459 -2.29825 0
M  V30 933 N 85.4089 -2.68657 -1.10779 0
M  V30 934 H 84.9559 -2.56646 -0.221526 0
M  V30 935 H 84.9139 -2.46804 -1.9477 0
M  V30 936 N 88.686 -0.835752 -1.33615 0
M  V30 937 C 90.097 -0.487099 -1.80234 0
M  V30 938 C 90.448 0.993627 -1.69179 0
M  V30 939 O 89.573 1.77403 -1.23924 0
M  V30 940 C 90.168 -0.877385 -3.27242 0
M  V30 941 C 88.727 -0.580915 -3.7189 0
M  V30 942 C 87.874 -1.0874 -2.5509 0
M  V30 943 H 90.825 -1.02474 -1.2118 0
M  V30 944 H 90.846 -0.186195 -3.80044 0
M  V30 945 H 90.358 -1.95512 -3.35256 0
M  V30 946 H 88.459 0.486881 -3.69405 0
M  V30 947 H 88.572 -1.13396 -4.65487 0
M  V30 948 H 86.936 -0.508392 -2.49575 0
M  V30 949 H 87.719 -2.17184 -2.65868 0
M  V30 950 N 90.1641 1.46063 -0.591896 0
M  V30 951 C 91.3891 2.07226 -0.0850314 0
M  V30 952 C 91.8141 1.43625 1.21463 0
M  V30 953 O 91.1721 0.523305 1.73583 0
M  V30 954 C 91.2201 3.60554 0.0576567 0
M  V30 955 O 90.3241 3.97128 1.11188 0
M  V30 956 H 89.6651 0.660615 -0.0669568 0
M  V30 957 H 92.1951 1.8756 -0.81745 0
M  V30 958 H 92.2051 4.07165 0.2609 0
M  V30 959 H 90.8801 4.06235 -0.891416 0
M  V30 960 H 89.4571 3.62213 0.886356 0
M  V30 961 N 91.6422 0.330177 1.54103 0
M  V30 962 C 92.5892 -0.532762 2.24567 0
M  V30 963 C 93.5592 -1.10635 1.23892 0
M  V30 964 O 94.7442 -1.14546 1.5259 0
M  V30 965 C 91.8842 -1.6845 3.01195 0
M  V30 966 C 90.9972 -1.13951 4.167 0
M  V30 967 C 90.1322 -2.25746 4.80845 0
M  V30 968 C 89.1712 -1.6853 5.88442 0
M  V30 969 N 88.3082 -2.74014 6.46421 0
M  V30 970 H 93.1482 0.0746905 2.97906 0
M  V30 971 H 90.6852 0.048632 1.4702 0
M  V30 972 H 92.6432 -2.36234 3.43874 0
M  V30 973 H 91.2732 -2.26314 2.30178 0
M  V30 974 H 90.3252 -0.35301 3.78758 0
M  V30 975 H 91.6372 -0.680892 4.94131 0
M  V30 976 H 90.7912 -3.01422 5.26526 0
M  V30 977 H 89.5302 -2.74947 4.0281 0
M  V30 978 H 88.5352 -0.913543 5.42157 0
M  V30 979 H 89.7602 -1.20198 6.68378 0
M  V30 980 H 87.7062 -3.22494 5.71256 0
M  V30 981 H 87.6232 -2.32735 7.19285 0
M  V30 982 H 88.8912 -3.49499 6.96757 0
M  V30 983 N 93.1203 -1.57491 0.0584922 0
M  V30 984 C 94.0303 -2.15448 -0.928414 0
M  V30 985 C 95.0463 -1.11416 -1.3365 0
M  V30 986 O 96.2223 -1.4362 -1.41193 0
M  V30 987 C 93.2873 -2.69393 -2.18239 0
M  V30 988 C 92.3483 -3.88249 -1.83196 0
M  V30 989 C 91.5813 -4.39613 -3.02616 0
M  V30 990 O 91.8043 -3.90023 -4.16219 0
M  V30 991 O 90.7383 -5.31111 -2.83204 0
M  V30 992 H 94.5643 -3.00112 -0.465483 0
M  V30 993 H 92.1493 -1.48499 -0.163826 0
M  V30 994 H 94.0313 -3.04026 -2.91798 0
M  V30 995 H 92.7063 -1.87796 -2.63656 0
M  V30 996 H 91.6133 -3.58492 -1.06931 0
M  V30 997 H 92.9463 -4.71098 -1.42573 0
M  V30 998 N 94.5984 0.214957 -1.56127 0
M  V30 999 C 95.5084 1.28727 -1.96129 0
M  V30 1000 C 96.5244 1.50916 -0.866044 0
M  V30 1001 O 97.7004 1.63918 -1.17016 0
M  V30 1002 C 94.7654 2.61569 -2.27558 0
M  V30 1003 C 93.8264 2.47625 -3.50685 0
M  V30 1004 C 93.0594 3.74132 -3.80606 0
M  V30 1005 O 93.2824 4.77438 -3.12104 0
M  V30 1006 O 92.2164 3.70849 -4.74083 0
M  V30 1007 H 96.0424 0.977855 -2.87527 0
M  V30 1008 H 93.6274 0.418358 -1.43423 0
M  V30 1009 H 95.5094 3.40012 -2.48938 0
M  V30 1010 H 94.1844 2.92178 -1.39332 0
M  V30 1011 H 93.0914 1.67361 -3.34576 0
M  V30 1012 H 94.4244 2.21954 -4.39315 0
M  V30 1013 N 96.0765 1.50051 0.48192 0
M  V30 1014 C 97.0065 1.71046 1.58951 0
M  V30 1015 C 97.9875 0.559288 1.60642 0
M  V30 1016 O 99.1725 0.797243 1.77081 0
M  V30 1017 C 96.3025 1.79462 2.97339 0
M  V30 1018 C 95.2565 2.94558 3.10515 0
M  V30 1019 C 94.5825 2.88105 4.50444 0
M  V30 1020 C 95.8825 4.35227 2.88747 0
M  V30 1021 H 97.5765 2.6378 1.41635 0
M  V30 1022 H 95.1225 1.26936 0.679942 0
M  V30 1023 H 97.0755 1.92734 3.74742 0
M  V30 1024 H 95.7995 0.833412 3.15788 0
M  V30 1025 H 94.4585 2.80918 2.35543 0
M  V30 1026 H 94.1065 1.89853 4.65795 0
M  V30 1027 H 93.8065 3.65366 4.60197 0
M  V30 1028 H 95.3305 3.03412 5.29881 0
M  V30 1029 H 96.7445 4.49449 3.55905 0
M  V30 1030 H 95.1415 5.13856 3.09955 0
M  V30 1031 H 96.2115 4.48347 1.84696 0
M  V30 1032 N 97.5546 -0.734337 1.39446 0
M  V30 1033 C 98.8316 -1.48579 1.27215 0
M  V30 1034 C 99.2116 -2.1077 -0.117968 0
M  V30 1035 O 98.5596 -1.98646 -1.12924 0
M  V30 1036 C 98.7696 -2.53667 2.39696 0
M  V30 1037 C 100.118 -3.20031 2.79044 0
M  V30 1038 O 101.142 -2.6398 2.39151 0
M  V30 1039 O 100.001 -4.21455 3.47905 0
M  V30 1040 H 97.0946 -0.659816 0.49857 0
M  V30 1041 H 99.6406 -0.768106 1.51322 0
M  V30 1042 H 98.4126 -2.06096 3.32626 0
M  V30 1043 H 98.0356 -3.32994 2.17258 0
M  V30 1044 N 99.0327 -1.24633 -0.964593 0
M  V30 1045 C 99.9627 -1.06611 -2.07741 0
M  V30 1046 C 100.944 0.0218666 -1.70086 0
M  V30 1047 O 102.129 -0.145793 -1.93652 0
M  V30 1048 C 99.2587 -0.673444 -3.40708 0
M  V30 1049 C 98.2127 -1.71054 -3.92332 0
M  V30 1050 C 97.5387 -1.17285 -5.21678 0
M  V30 1051 C 98.8387 -3.10718 -4.19824 0
M  V30 1052 H 100.533 -1.99693 -2.23076 0
M  V30 1053 H 98.0787 -0.96152 -1.07195 0
M  V30 1054 H 100.032 -0.534345 -4.17998 0
M  V30 1055 H 98.7557 0.293073 -3.25282 0
M  V30 1056 H 97.4147 -1.83791 -3.17201 0
M  V30 1057 H 97.0627 -0.196847 -5.02615 0
M  V30 1058 H 96.7627 -1.86592 -5.57187 0
M  V30 1059 H 98.2867 -1.04593 -6.01575 0
M  V30 1060 H 99.7007 -3.01192 -4.87808 0
M  V30 1061 H 98.0977 -3.77406 -4.66567 0
M  V30 1062 H 99.1677 -3.58524 -3.26479 0
M  V30 1063 N 100.511 1.16574 -1.06058 0
M  V30 1064 C 101.76 1.86385 -0.770944 0
M  V30 1065 C 102.073 1.82448 0.705129 0
M  V30 1066 O 103.279 2.47815 1.10905 0
M  V30 1067 C 101.735 3.34466 -1.32893 0
M  V30 1068 C 101.343 3.46883 -2.83507 0
M  V30 1069 C 103.087 4.09548 -1.11672 0
M  V30 1070 C 100.994 4.89036 -3.32562 0
M  V30 1071 H 99.9238 0.698181 -0.284709 0
M  V30 1072 H 102.575 1.31583 -1.27899 0
M  V30 1073 H 100.957 3.88859 -0.748662 0
M  V30 1074 H 102.131 3.02663 -3.47465 0
M  V30 1075 H 100.446 2.85232 -3.03368 0
M  V30 1076 H 103.043 5.14434 -1.45814 0
M  V30 1077 H 103.386 4.16264 -0.0549535 0
M  V30 1078 H 103.919 3.61387 -1.66265 0
M  V30 1079 H 100.658 4.87499 -4.38207 0
M  V30 1080 H 100.178 5.3389 -2.73351 0
M  V30 1081 H 101.857 5.57843 -3.2775 0
M  V30 1082 N 101.989 0.842826 1.3317 0
M  V30 1083 C 103.238 0.436738 1.96915 0
M  V30 1084 C 103.551 -1.01025 1.67491 0
M  V30 1085 O 104.757 -1.5212 2.24881 0
M  V30 1086 C 103.213 0.730021 3.52418 0
M  V30 1087 C 102.821 2.19195 3.90714 0
M  V30 1088 C 104.565 0.391076 4.22695 0
M  V30 1089 C 102.472 2.42907 5.39212 0
M  V30 1090 H 101.402 0.15958 0.736919 0
M  V30 1091 H 104.053 1.03196 1.51733 0
M  V30 1092 H 102.435 0.0643755 3.95948 0
M  V30 1093 H 103.609 2.8984 3.58231 0
M  V30 1094 H 101.924 2.49425 3.33431 0
M  V30 1095 H 104.521 0.545817 5.31907 0
M  V30 1096 H 104.864 -0.666294 4.10933 0
M  V30 1097 H 105.397 1.01212 3.84709 0
M  V30 1098 H 102.136 3.47224 5.55982 0
M  V30 1099 H 101.656 1.76827 5.73142 0
M  V30 1100 H 103.335 2.2626 6.06148 0
M  V30 1101 N 103.467 -1.45747 0.599634 0
M  V30 1102 C 104.695 -2.06668 0.0978551 0
M  V30 1103 C 105.11 -1.44562 -1.21439 0
M  V30 1104 O 104.467 -0.556923 -1.73795 0
M  V30 1105 C 104.518 -3.61456 -0.0567044 0
M  V30 1106 O 104.239 -4.21242 1.20361 0
M  V30 1107 C 105.74 -4.39345 -0.590869 0
M  V30 1108 H 102.96 -0.667825 0.0651943 0
M  V30 1109 H 105.504 -1.87115 0.82511 0
M  V30 1110 H 103.659 -3.80378 -0.734251 0
M  V30 1111 H 104.073 -5.14323 1.02821 0
M  V30 1112 H 105.547 -5.48182 -0.648131 0
M  V30 1113 H 106.024 -4.08568 -1.61147 0
M  V30 1114 H 106.63 -4.25268 0.0523679 0
M  V30 1115 N 104.945 -0.338344 -1.53925 0
M  V30 1116 C 105.893 0.536231 -2.26335 0
M  V30 1117 C 106.887 1.1063 -1.28286 0
M  V30 1118 O 108.093 1.05264 -1.46012 0
M  V30 1119 H 104.468 0.191602 -0.727181 0
M  V30 1120 H 106.439 -0.0965747 -2.98244 0
M  V30 1121 C 105.188 1.67803 -3.04528 0
M  V30 1122 H 104.511 1.24864 -3.79801 0
M  V30 1123 H 105.951 2.26526 -3.58416 0
M  V30 1124 C 104.41 2.60439 -2.13712 0
M  V30 1125 O 104.94 3.6255 -1.72975 0
M  V30 1126 N 103.146 2.29006 -1.78898 0
M  V30 1127 H 102.693 1.46011 -2.12223 0
M  V30 1128 H 102.651 2.91248 -1.18416 0
M  V30 1129 N 106.423 1.57458 -0.0668435 0
M  V30 1130 C 107.386 2.11323 0.887422 0
M  V30 1131 C 108.386 1.03618 1.22964 0
M  V30 1132 O 109.576 1.29626 1.16373 0
M  V30 1133 C 106.708 2.61048 2.19242 0
M  V30 1134 H 107.901 2.96942 0.420194 0
M  V30 1135 H 105.454 1.55239 0.181793 0
M  V30 1136 H 106.189 1.78868 2.70512 0
M  V30 1137 H 105.974 3.39769 1.95702 0
M  V30 1138 H 107.464 3.02814 2.87565 0
M  V30 1139 N 107.901 -0.206675 1.56239 0
M  V30 1140 C 108.831 -1.25909 1.96645 0
M  V30 1141 C 109.812 -1.48097 0.836734 0
M  V30 1142 O 110.997 -1.6003 1.10019 0
M  V30 1143 C 108.127 -2.6058 2.29599 0
M  V30 1144 C 107.081 -2.53024 3.452 0
M  V30 1145 C 106.407 -3.91861 3.63798 0
M  V30 1146 C 107.707 -2.06524 4.79734 0
M  V30 1147 H 109.401 -0.923369 2.84806 0
M  V30 1148 H 106.947 -0.442735 1.37025 0
M  V30 1149 H 108.9 -3.34375 2.56459 0
M  V30 1150 H 107.624 -2.95869 1.38307 0
M  V30 1151 H 106.283 -1.81684 3.18412 0
M  V30 1152 H 105.931 -4.24483 2.69857 0
M  V30 1153 H 105.631 -3.87683 4.4156 0
M  V30 1154 H 107.155 -4.67296 3.93022 0
M  V30 1155 H 108.569 -2.70072 5.05702 0
M  V30 1156 H 106.966 -2.13374 5.60885 0
M  V30 1157 H 108.036 -1.01802 4.74093 0
M  V30 1158 N 109.379 -1.50304 -0.473955 0
M  V30 1159 C 110.628 -1.60392 -1.22301 0
M  V30 1160 C 110.941 -0.308411 -1.93153 0
M  V30 1161 O 112.147 -0.288156 -2.69966 0
M  V30 1162 C 110.603 -2.83109 -2.2221 0
M  V30 1163 C 110.211 -4.19524 -1.57173 0
M  V30 1164 C 111.955 -3.0254 -2.97775 0
M  V30 1165 C 109.862 -5.33431 -2.55353 0
M  V30 1166 H 108.792 -0.597286 -0.460179 0
M  V30 1167 H 111.443 -1.76731 -0.493803 0
M  V30 1168 H 109.825 -2.60322 -2.9841 0
M  V30 1169 H 110.999 -4.52554 -0.867824 0
M  V30 1170 H 109.314 -4.05674 -0.939002 0
M  V30 1171 H 111.911 -3.84811 -3.71248 0
M  V30 1172 H 112.254 -2.14154 -3.56992 0
M  V30 1173 H 112.787 -3.25494 -2.28688 0
M  V30 1174 H 109.526 -6.23962 -2.00878 0
M  V30 1175 H 109.046 -5.04823 -3.23904 0
M  V30 1176 H 110.725 -5.63887 -3.17239 0
M  V30 1177 N 110.857 0.726932 -1.39834 0
M  V30 1178 C 112.103 1.48884 -1.377 0
M  V30 1179 C 112.436 1.94185 0.0244852 0
M  V30 1180 O 111.711 1.67361 0.990986 0
M  V30 1181 C 111.994 2.72288 -2.3565 0
M  V30 1182 C 111.847 2.32956 -3.84775 0
M  V30 1183 C 113.166 3.74414 -2.31306 0
M  V30 1184 H 110.285 0.540062 -0.5015 0
M  V30 1185 H 112.927 0.830547 -1.70886 0
M  V30 1186 H 111.077 3.28457 -2.07481 0
M  V30 1187 H 112.749 1.82356 -4.23726 0
M  V30 1188 H 110.992 1.65088 -4.01159 0
M  V30 1189 H 111.663 3.21362 -4.4881 0
M  V30 1190 H 114.139 3.27849 -2.56231 0
M  V30 1191 H 113.015 4.58414 -3.01907 0
M  V30 1192 H 113.276 4.21909 -1.32081 0
M  V30 1193 N 112.336 1.25143 0.95797 0
M  V30 1194 C 113.613 1.00472 1.67823 0
M  V30 1195 C 113.993 -0.470056 2.058 0
M  V30 1196 O 113.341 -1.44663 1.76875 0
M  V30 1197 C 113.551 1.9372 2.90299 0
M  V30 1198 C 114.899 2.21371 3.62326 0
M  V30 1199 O 115.923 1.91451 3.00375 0
M  V30 1200 O 114.782 2.72231 4.7387 0
M  V30 1201 H 111.876 0.380752 0.734137 0
M  V30 1202 H 114.422 1.36283 1.01119 0
M  V30 1203 H 113.194 2.93316 2.59001 0
M  V30 1204 H 112.817 1.58286 3.64735 0
M  V30 1205 N 113.814 -1.1601 1.06675 0
M  V30 1206 C 115.044 -1.90251 0.805497 0
M  V30 1207 C 115.452 -1.77891 -0.64431 0
M  V30 1208 O 114.795 -1.12383 -1.45313 0
M  V30 1209 C 114.857 -3.41419 1.12576 0
M  V30 1210 C 114.521 -3.77564 2.57477 0
M  V30 1211 C 115.518 -3.79161 3.55715 0
M  V30 1212 C 113.203 -4.08079 2.92877 0
M  V30 1213 C 115.197 -4.10767 4.8739 0
M  V30 1214 C 112.884 -4.39351 4.24751 0
M  V30 1215 C 113.882 -4.40675 5.21818 0
M  V30 1216 O 113.57 -4.71202 6.51325 0
M  V30 1217 H 113.302 -0.610018 0.291297 0
M  V30 1218 H 115.856 -1.47958 1.4247 0
M  V30 1219 H 114.086 -3.84079 0.449503 0
M  V30 1220 H 115.775 -3.9694 0.84814 0
M  V30 1221 H 116.541 -3.55693 3.29708 0
M  V30 1222 H 112.42 -4.06211 2.17976 0
M  V30 1223 H 115.964 -4.11715 5.63148 0
M  V30 1224 H 111.861 -4.62285 4.50514 0
M  V30 1225 H 112.629 -4.88996 6.56373 0
M  V30 1226 N 115.292 -0.849877 -1.32721 0
M  V30 1227 C 116.52 -0.464754 -2.01613 0
M  V30 1228 C 116.935 0.937191 -1.63897 0
M  V30 1229 O 116.292 1.61081 -0.857856 0
M  V30 1230 C 116.343 -0.588638 -3.56675 0
M  V30 1231 O 116.064 -1.93535 -3.93034 0
M  V30 1232 C 117.565 -0.2019 -4.4284 0
M  V30 1233 H 114.785 -0.183215 -0.645502 0
M  V30 1234 H 117.329 -1.1455 -1.69407 0
M  V30 1235 H 115.484 0.0443159 -3.87375 0
M  V30 1236 H 115.898 -1.92871 -4.87751 0
M  V30 1237 H 117.372 -0.339599 -5.50954 0
M  V30 1238 H 117.849 0.857224 -4.30753 0
M  V30 1239 H 118.455 -0.809733 -4.17521 0
M  V30 1240 N 116.77 1.45427 -0.607355 0
M  V30 1241 C 118.018 2.01841 -0.102253 0
M  V30 1242 C 118.339 1.47832 1.27164 0
M  V30 1243 O 117.609 0.672497 1.83995 0
M  V30 1244 H 116.189 0.746188 -0.0348101 0
M  V30 1245 H 118.851 1.78229 -0.7887 0
M  V30 1246 H 117.947 3.12057 -0.0518585 0
M  V30 1247 N 118.248 0.346503 1.53744 0
M  V30 1248 C 119.497 -0.250122 2.00143 0
M  V30 1249 C 119.81 -1.51418 1.23822 0
M  V30 1250 O 121.016 -2.18823 1.60713 0
M  V30 1251 C 119.472 -0.496252 3.56462 0
M  V30 1252 C 119.08 0.752077 4.41642 0
M  V30 1253 C 120.824 -1.05157 4.11269 0
M  V30 1254 C 118.731 0.476583 5.89477 0
M  V30 1255 H 117.661 -0.0972409 0.747703 0
M  V30 1256 H 120.312 0.46229 1.77581 0
M  V30 1257 H 118.694 -1.26944 3.75102 0
M  V30 1258 H 119.868 1.5266 4.34778 0
M  V30 1259 H 118.183 1.22925 3.97842 0
M  V30 1260 H 120.78 -1.27269 5.19333 0
M  V30 1261 H 121.123 -2.00799 3.64672 0
M  V30 1262 H 121.656 -0.339019 3.96353 0
M  V30 1263 H 118.395 1.4028 6.40314 0
M  V30 1264 H 117.915 -0.259794 5.99237 0
M  V30 1265 H 119.594 0.0949315 6.4693 0
M  V30 1266 N 119.726 -1.57421 0.075193 0
M  V30 1267 C 120.956 -1.97659 -0.601203 0
M  V30 1268 C 121.364 -0.952427 -1.63479 0
M  V30 1269 O 120.707 0.0688241 -1.83571 0
M  V30 1270 C 120.769 -3.34218 -1.32434 0
M  V30 1271 C 120.433 -4.5484 -0.443826 0
M  V30 1272 C 121.43 -5.19034 0.299969 0
M  V30 1273 C 119.115 -5.00952 -0.367709 0
M  V30 1274 C 121.109 -6.27695 1.10807 0
M  V30 1275 C 118.796 -6.09484 0.444058 0
M  V30 1276 C 119.794 -6.72719 1.18061 0
M  V30 1277 O 119.482 -7.79161 1.97898 0
M  V30 1278 H 119.214 -0.65494 -0.167422 0
M  V30 1279 H 121.768 -2.04886 0.145157 0
M  V30 1280 H 119.998 -3.23615 -2.11685 0
M  V30 1281 H 121.687 -3.59038 -1.89331 0
M  V30 1282 H 122.453 -4.84351 0.250776 0
M  V30 1283 H 118.332 -4.51509 -0.930638 0
M  V30 1284 H 121.876 -6.76982 1.68347 0
M  V30 1285 H 117.773 -6.43601 0.494803 0
M  V30 1286 H 118.541 -7.96055 1.90367 0
M  V30 1287 N 121.204 0.198386 -1.56346 0
M  V30 1288 C 122.151 1.24589 -1.94284 0
M  V30 1289 C 123.121 1.454 -0.802997 0
M  V30 1290 O 124.306 1.58588 -1.06087 0
M  V30 1291 C 121.446 2.58631 -2.28482 0
M  V30 1292 C 120.559 2.45426 -3.55514 0
M  V30 1293 C 119.694 3.7215 -3.79049 0
M  V30 1294 C 118.733 3.53763 -4.99518 0
M  V30 1295 N 117.87 4.72491 -5.19323 0
M  V30 1296 H 122.71 0.915356 -2.83593 0
M  V30 1297 H 120.247 0.440629 -1.40346 0
M  V30 1298 H 122.205 3.3672 -2.46324 0
M  V30 1299 H 120.835 2.89734 -1.42317 0
M  V30 1300 H 119.887 1.58652 -3.45737 0
M  V30 1301 H 121.199 2.27772 -4.43758 0
M  V30 1302 H 120.353 4.58679 -3.97113 0
M  V30 1303 H 119.092 3.92754 -2.89129 0
M  V30 1304 H 118.097 2.65619 -4.8138 0
M  V30 1305 H 119.322 3.34607 -5.90944 0
M  V30 1306 H 117.268 4.93365 -4.3235 0
M  V30 1307 H 117.185 4.5765 -6.01741 0
M  V30 1308 H 118.453 5.6038 -5.41843 0
M  V30 1309 N 122.682 1.50554 0.465978 0
M  V30 1310 C 123.645 1.69233 1.54574 0
M  V30 1311 C 124.645 0.562901 1.50626 0
M  V30 1312 O 125.835 0.830016 1.53155 0
M  V30 1313 C 122.967 1.7223 2.94193 0
M  V30 1314 H 124.16 2.65571 1.39327 0
M  V30 1315 H 121.713 1.40111 0.692711 0
M  V30 1316 H 122.448 0.77603 3.14878 0
M  V30 1317 H 122.233 2.54285 2.98466 0
M  V30 1318 H 123.723 1.88618 3.72576 0
M  V30 1319 N 124.16 -0.719506 1.40217 0
M  V30 1320 C 125.437 -1.47221 1.28784 0
M  V30 1321 C 125.817 -2.10883 -0.0956067 0
M  V30 1322 O 125.165 -1.99833 -1.10811 0
M  V30 1323 C 125.375 -2.5111 2.42373 0
M  V30 1324 C 126.723 -3.17053 2.82423 0
M  V30 1325 O 127.747 -2.61429 2.41937 0
M  V30 1326 O 126.606 -4.17742 3.52355 0
M  V30 1327 H 123.7 -0.654491 0.50554 0
M  V30 1328 H 126.246 -0.752014 1.52128 0
M  V30 1329 H 125.018 -2.02556 3.34793 0
M  V30 1330 H 124.641 -3.3067 2.20778 0
M  V30 1331 N 125.638 -1.25649 -0.95132 0
M  V30 1332 C 126.887 -1.09988 -1.69073 0
M  V30 1333 C 127.2 0.358355 -1.92289 0
M  V30 1334 O 128.406 0.635466 -2.63958 0
M  V30 1335 C 126.862 -1.92012 -3.044 0
M  V30 1336 C 126.47 -3.42347 -2.88968 0
M  V30 1337 C 128.214 -1.8493 -3.82101 0
M  V30 1338 C 126.121 -4.16655 -4.19705 0
M  V30 1339 H 125.051 -0.407993 -0.63408 0
M  V30 1340 H 127.702 -1.49873 -1.05879 0
M  V30 1341 H 126.084 -1.44952 -3.68517 0
M  V30 1342 H 127.258 -3.97104 -2.33762 0
M  V30 1343 H 125.573 -3.50557 -2.24719 0
M  V30 1344 H 128.17 -2.37739 -4.78941 0
M  V30 1345 H 128.513 -0.817883 -4.08187 0
M  V30 1346 H 129.046 -2.29758 -3.2474 0
M  V30 1347 H 125.785 -5.20224 -3.98807 0
M  V30 1348 H 125.305 -3.66681 -4.74663 0
M  V30 1349 H 126.984 -4.24551 -4.88227 0
M  V30 1350 N 127.117 1.15442 -1.07289 0
M  V30 1351 C 128.365 1.85845 -0.794096 0
M  V30 1352 C 128.686 1.82692 0.681809 0
M  V30 1353 O 127.956 1.26741 1.49377 0
M  V30 1354 H 126.536 0.688089 -0.290763 0
M  V30 1355 H 129.198 1.39947 -1.3565 0
M  V30 1356 H 128.294 2.91001 -1.12804 0
M  V30 1357 N 128.595 0.856903 1.32268 0
M  V30 1358 C 129.844 0.457599 1.96441 0
M  V30 1359 C 130.157 -0.992426 1.68553 0
M  V30 1360 O 131.363 -1.49727 2.26482 0
M  V30 1361 C 129.819 0.767358 3.51624 0
M  V30 1362 C 129.427 2.23326 3.88367 0
M  V30 1363 C 131.171 0.435887 4.22256 0
M  V30 1364 C 129.078 2.48613 5.36606 0
M  V30 1365 H 128.008 0.167387 0.735185 0
M  V30 1366 H 130.659 1.048 1.5063 0
M  V30 1367 H 129.041 0.106367 3.95857 0
M  V30 1368 H 130.215 2.93623 3.55137 0
M  V30 1369 H 128.53 2.52948 3.30766 0
M  V30 1370 H 131.127 0.602202 5.31298 0
M  V30 1371 H 131.47 -0.622672 4.11617 0
M  V30 1372 H 132.003 1.05286 3.83614 0
M  V30 1373 H 128.742 3.53101 5.52268 0
M  V30 1374 H 128.262 1.82896 5.71235 0
M  V30 1375 H 129.941 2.32676 6.03714 0
M  V30 1376 N 130.073 -1.45103 0.615059 0
M  V30 1377 C 131.02 -2.30586 -0.0993978 0
M  V30 1378 C 131.99 -1.42544 -0.852669 0
M  V30 1379 O 133.175 -1.71465 -0.836917 0
M  V30 1380 C 130.315 -3.27572 -1.08583 0
M  V30 1381 C 129.428 -4.30717 -0.332656 0
M  V30 1382 C 128.563 -5.14807 -1.30947 0
M  V30 1383 C 127.602 -6.09673 -0.544538 0
M  V30 1384 N 126.739 -6.86517 -1.47101 0
M  V30 1385 H 131.579 -2.91144 0.635542 0
M  V30 1386 H 129.116 -1.4346 0.325206 0
M  V30 1387 H 131.074 -3.82276 -1.67095 0
M  V30 1388 H 129.704 -2.68751 -1.78809 0
M  V30 1389 H 128.756 -3.78615 0.368107 0
M  V30 1390 H 130.068 -4.98102 0.263842 0
M  V30 1391 H 129.222 -5.73948 -1.96643 0
M  V30 1392 H 127.961 -4.47458 -1.9399 0
M  V30 1393 H 126.966 -5.49656 0.126003 0
M  V30 1394 H 128.191 -6.79052 0.080947 0
M  V30 1395 H 126.137 -6.21851 -2.08895 0
M  V30 1396 H 126.054 -7.50281 -0.928137 0
M  V30 1397 H 127.322 -7.50194 -2.11731 0
M  V30 1398 N 131.551 -0.354651 -1.53558 0
M  V30 1399 C 132.828 0.294281 -1.93374 0
M  V30 1400 C 133.208 1.67313 -1.28723 0
M  V30 1401 O 132.556 2.24179 -0.442247 0
M  V30 1402 C 132.766 0.355445 -3.47185 0
M  V30 1403 C 134.114 0.601007 -4.20325 0
M  V30 1404 O 135.138 0.437106 -3.53508 0
M  V30 1405 O 133.997 0.919322 -5.38712 0
M  V30 1406 H 131.091 0.174033 -0.808481 0
M  V30 1407 H 133.637 -0.406638 -1.64756 0
M  V30 1408 H 132.409 -0.611729 -3.86489 0
M  V30 1409 H 132.032 1.1027 -3.82003 0
M  V30 1410 N 133.029 1.57378 -0.0835403 0
M  V30 1411 C 134.277 1.93547 0.581718 0
M  V30 1412 C 134.598 0.96524 1.69435 0
M  V30 1413 O 133.868 0.0153369 1.95894 0
M  V30 1414 H 132.448 0.714521 0.217874 0
M  V30 1415 H 135.11 1.94366 -0.144158 0
M  V30 1416 H 134.206 2.95665 0.999423 0
M  V30 1417 N 134.507 -0.190092 1.56449 0
M  V30 1418 C 135.454 -1.23557 1.94942 0
M  V30 1419 C 136.424 -1.44972 0.810696 0
M  V30 1420 O 137.609 -1.58023 1.06927 0
M  V30 1421 C 134.749 -2.57416 2.2985 0
M  V30 1422 C 133.862 -2.43537 3.5681 0
M  V30 1423 C 132.997 -3.70134 3.81017 0
M  V30 1424 C 132.036 -3.51109 5.01387 0
M  V30 1425 N 131.173 -4.6973 5.21822 0
M  V30 1426 H 136.013 -0.900304 2.84075 0
M  V30 1427 H 133.55 -0.43318 1.40577 0
M  V30 1428 H 135.508 -3.35409 2.48106 0
M  V30 1429 H 134.138 -2.88975 1.43852 0
M  V30 1430 H 133.19 -1.56816 3.46573 0
M  V30 1431 H 134.502 -2.25415 4.4496 0
M  V30 1432 H 133.656 -4.56566 3.9954 0
M  V30 1433 H 132.395 -3.91215 2.91207 0
M  V30 1434 H 131.4 -2.63063 4.82782 0
M  V30 1435 H 132.625 -3.31468 5.9271 0
M  V30 1436 H 130.571 -4.91065 4.34961 0
M  V30 1437 H 130.488 -4.54452 6.0416 0
M  V30 1438 H 131.756 -5.57499 5.44808 0
M  V30 1439 N 135.985 -1.50799 -0.457987 0
M  V30 1440 C 137.234 -1.6168 -1.20593 0
M  V30 1441 C 137.547 -0.32888 -1.92815 0
M  V30 1442 O 138.753 -0.316773 -2.69646 0
M  V30 1443 C 137.209 -2.8545 -2.19195 0
M  V30 1444 C 136.817 -4.21168 -1.52715 0
M  V30 1445 C 138.561 -3.05681 -2.94549 0
M  V30 1446 C 136.468 -5.3611 -2.4968 0
M  V30 1447 H 135.398 -0.602134 -0.453818 0
M  V30 1448 H 138.049 -1.77245 -0.475031 0
M  V30 1449 H 136.431 -2.63472 -2.95632 0
M  V30 1450 H 137.605 -4.53449 -0.819775 0
M  V30 1451 H 135.92 -4.06648 -0.895922 0
M  V30 1452 H 138.517 -3.88727 -3.67145 0
M  V30 1453 H 138.86 -2.17929 -3.54701 0
M  V30 1454 H 139.393 -3.27901 -2.25223 0
M  V30 1455 H 136.132 -6.26057 -1.94249 0
M  V30 1456 H 135.652 -5.0823 -3.18532 0
M  V30 1457 H 137.331 -5.6722 -3.11241 0
M  V30 1458 N 137.463 0.71206 -1.40597 0
M  V30 1459 C 138.426 1.80785 -1.40888 0
M  V30 1460 C 139.426 1.57937 -0.302103 0
M  V30 1461 O 140.616 1.64913 -0.561182 0
M  V30 1462 C 137.748 3.18927 -1.20409 0
M  V30 1463 H 138.941 1.81924 -2.38419 0
M  V30 1464 H 136.494 0.91805 -1.26497 0
M  V30 1465 H 137.229 3.23436 -0.236522 0
M  V30 1466 H 137.014 3.36911 -2.00582 0
M  V30 1467 H 138.504 3.98949 -1.23408 0
M  V30 1468 N 138.941 1.26152 0.944643 0
M  V30 1469 C 140.189 1.11271 1.6871 0
M  V30 1470 C 140.51 -0.345166 1.91921 0
M  V30 1471 O 139.78 -1.24387 1.51343 0
M  V30 1472 H 138.36 0.408783 0.625224 0
M  V30 1473 H 141.022 1.58427 1.1352 0
M  V30 1474 H 140.118 1.62879 2.66227 0
M  V30 1475 N 140.419 -1.14872 1.07899 0
M  V30 1476 C 141.668 -1.85135 0.800499 0
M  V30 1477 C 141.981 -1.83547 -0.676014 0
M  V30 1478 O 143.187 -2.49548 -1.06948 0
M  V30 1479 C 141.643 -3.3231 1.38197 0
M  V30 1480 C 141.251 -3.42329 2.8899 0
M  V30 1481 C 142.995 -4.0772 1.18174 0
M  V30 1482 C 140.902 -4.83684 3.403 0
M  V30 1483 H 139.832 -0.693563 0.29578 0
M  V30 1484 H 142.483 -1.29532 1.29976 0
M  V30 1485 H 140.865 -3.87618 0.810431 0
M  V30 1486 H 142.039 -2.97097 3.52236 0
M  V30 1487 H 140.354 -2.80369 3.07867 0
M  V30 1488 H 142.951 -5.12049 1.5398 0
M  V30 1489 H 143.294 -4.16124 0.12117 0
M  V30 1490 H 143.827 -3.58696 1.71994 0
M  V30 1491 H 140.566 -4.80465 4.45907 0
M  V30 1492 H 140.086 -5.29474 2.81811 0
M  V30 1493 H 141.765 -5.52558 3.36584 0
M  V30 1494 N 141.898 -0.863906 -1.31812 0
M  V30 1495 C 143.146 -0.470904 -1.96537 0
M  V30 1496 C 143.467 0.978771 -1.68657 0
M  V30 1497 O 142.737 1.6853 -0.998717 0
M  V30 1498 H 141.317 -0.171148 -0.72713 0
M  V30 1499 H 143.979 -1.10236 -1.60729 0
M  V30 1500 H 143.075 -0.623616 -3.05806 0
M  V30 1501 N 143.376 1.44774 -0.622745 0
M  V30 1502 C 144.323 2.30635 0.0871679 0
M  V30 1503 C 145.293 1.42994 0.845097 0
M  V30 1504 O 146.478 1.71907 0.827812 0
M  V30 1505 C 143.618 3.28144 1.06844 0
M  V30 1506 C 142.731 4.30888 0.309809 0
M  V30 1507 C 141.866 5.15494 1.28215 0
M  V30 1508 C 140.905 6.09953 0.512198 0
M  V30 1509 N 140.042 6.87287 1.43458 0
M  V30 1510 H 144.882 2.90803 -0.650974 0
M  V30 1511 H 142.419 1.43286 -0.33281 0
M  V30 1512 H 144.377 3.83157 1.65066 0
M  V30 1513 H 143.007 2.69695 1.77382 0
M  V30 1514 H 142.059 3.78414 -0.388181 0
M  V30 1515 H 143.371 4.97955 -0.290254 0
M  V30 1516 H 142.525 5.74983 1.93596 0
M  V30 1517 H 141.264 4.48481 1.91614 0
M  V30 1518 H 140.269 5.49581 -0.155151 0
M  V30 1519 H 141.494 6.78999 -0.116958 0
M  V30 1520 H 139.44 6.2295 2.05594 0
M  V30 1521 H 139.357 7.50763 0.888335 0
M  V30 1522 H 140.625 7.51306 2.07749 0
M  V30 1523 N 144.854 0.36279 1.53368 0
M  V30 1524 C 146.102 -0.227326 2.00817 0
M  V30 1525 C 146.423 -1.49511 1.25186 0
M  V30 1526 O 145.693 -1.92482 0.364348 0
M  V30 1527 H 144.273 -0.0869923 0.741917 0
M  V30 1528 H 146.935 0.488381 1.88682 0
M  V30 1529 H 146.031 -0.456273 3.08747 0
M  V30 1530 N 146.332 -1.57332 0.0918853 0
M  V30 1531 C 147.58 -1.93853 -0.571446 0
M  V30 1532 C 147.901 -0.974212 -1.6892 0
M  V30 1533 O 147.171 -0.0257254 -1.95883 0
M  V30 1534 H 145.751 -0.715666 -0.214082 0
M  V30 1535 H 148.413 -1.94287 0.154464 0
M  V30 1536 H 147.509 -2.96191 -0.983729 0
M  V30 1537 N 147.81 0.181792 -1.56548 0
M  V30 1538 C 148.758 1.24461 -1.965 0
M  V30 1539 C 149.752 1.464 -0.852261 0
M  V30 1540 O 150.958 1.47103 -1.03733 0
M  V30 1541 H 147.333 0.418138 -0.625031 0
M  V30 1542 H 149.304 0.880714 -2.85107 0
M  V30 1543 C 148.053 2.57891 -2.33212 0
M  V30 1544 H 147.376 2.41829 -3.18369 0
M  V30 1545 H 148.816 3.3097 -2.65019 0
M  V30 1546 C 147.275 3.15871 -1.17163 0
M  V30 1547 O 147.805 3.9913 -0.453708 0
M  V30 1548 N 146.011 2.74808 -0.944936 0
M  V30 1549 H 145.558 2.07205 -1.53049 0
M  V30 1550 H 145.516 3.13939 -0.170286 0
M  V30 1551 N 149.288 1.51039 0.449983 0
M  V30 1552 C 150.235 1.71439 1.54523 0
M  V30 1553 C 151.205 0.555871 1.56522 0
M  V30 1554 O 152.39 0.788871 1.73728 0
M  V30 1555 C 149.53 1.83384 2.92343 0
M  V30 1556 C 148.643 3.10873 2.9997 0
M  V30 1557 C 147.778 3.13488 4.28834 0
M  V30 1558 C 146.817 4.35343 4.30282 0
M  V30 1559 N 145.954 4.35579 5.5065 0
M  V30 1560 H 150.794 2.64934 1.36433 0
M  V30 1561 H 148.331 1.31312 0.662982 0
M  V30 1562 H 150.289 1.88291 3.72293 0
M  V30 1563 H 148.919 0.933086 3.0902 0
M  V30 1564 H 147.971 3.15336 2.12761 0
M  V30 1565 H 149.283 4.00814 2.96901 0
M  V30 1566 H 148.437 3.17241 5.17149 0
M  V30 1567 H 147.176 2.21414 4.34543 0
M  V30 1568 H 146.181 4.3178 3.40362 0
M  V30 1569 H 147.406 5.28668 4.26248 0
M  V30 1570 H 145.352 3.46369 5.57104 0
M  V30 1571 H 145.269 5.19313 5.49409 0
M  V30 1572 H 146.537 4.43507 6.41032 0
M  V30 1573 N 150.766 -0.704594 1.40972 0
M  V30 1574 C 152.043 -1.45847 1.30338 0
M  V30 1575 C 152.423 -2.10973 -0.0732344 0
M  V30 1576 O 151.771 -2.00997 -1.08685 0
M  V30 1577 C 151.981 -2.48525 2.45023 0
M  V30 1578 C 153.329 -3.1404 2.8577 0
M  V30 1579 O 154.353 -2.58848 2.44696 0
M  V30 1580 O 153.212 -4.13981 3.56766 0
M  V30 1581 H 150.306 -0.649092 0.512454 0
M  V30 1582 H 152.852 -0.735836 1.52917 0
M  V30 1583 H 151.624 -1.98994 3.36923 0
M  V30 1584 H 151.247 -3.2831 2.24272 0
M  V30 1585 N 152.244 -1.26651 -0.937939 0
M  V30 1586 C 153.177 -1.02811 -2.03728 0
M  V30 1587 C 154.155 0.0481915 -1.62529 0
M  V30 1588 O 155.339 -0.0948839 -1.88261 0
M  V30 1589 C 152.466 -0.557517 -3.3408 0
M  V30 1590 C 151.512 -1.62686 -3.94253 0
M  V30 1591 S 152.345 -3.21667 -4.28125 0
M  V30 1592 C 153.501 -2.76384 -5.61572 0
M  V30 1593 H 153.734 -1.95891 -2.23638 0
M  V30 1594 H 151.267 -1.10367 -1.07974 0
M  V30 1595 H 153.225 -0.292674 -4.09455 0
M  V30 1596 H 151.886 0.353062 -3.12109 0
M  V30 1597 H 151.079 -1.24866 -4.88287 0
M  V30 1598 H 150.681 -1.84324 -3.25424 0
M  V30 1599 H 152.973 -2.2105 -6.40424 0
M  V30 1600 H 153.916 -3.69123 -6.0428 0
M  V30 1601 H 154.324 -2.15847 -5.21604 0
M  V30 1602 N 153.722 1.14298 -1.08507 0
M  V30 1603 C 154.654 2.1907 -0.673859 0
M  V30 1604 C 155.667 1.60381 0.279577 0
M  V30 1605 O 156.856 1.78374 0.0670754 0
M  V30 1606 C 153.956 3.38888 0.0290979 0
M  V30 1607 C 153.129 4.27103 -0.943494 0
M  V30 1608 C 152.188 5.25477 -0.275676 0
M  V30 1609 O 151.214 5.61709 -0.920401 0
M  V30 1610 N 152.416 5.7227 0.974013 0
M  V30 1611 H 155.181 2.54965 -1.57521 0
M  V30 1612 H 152.742 1.29528 -0.971287 0
M  V30 1613 H 154.734 4.01761 0.48683 0
M  V30 1614 H 153.304 3.01309 0.832555 0
M  V30 1615 H 152.524 3.61149 -1.58004 0
M  V30 1616 H 153.812 4.82905 -1.60251 0
M  V30 1617 H 153.21 5.44965 1.51755 0
M  V30 1618 H 151.767 6.37127 1.37522 0
M  V30 1619 N 155.201 0.870884 1.31352 0
M  V30 1620 C 156.478 0.402907 1.91405 0
M  V30 1621 C 156.858 -1.11512 1.79244 0
M  V30 1622 O 156.206 -1.94411 1.2007 0
M  V30 1623 C 156.416 0.885301 3.37585 0
M  V30 1624 C 157.764 0.911971 4.14691 0
M  V30 1625 O 158.788 0.831016 3.46371 0
M  V30 1626 O 157.647 1.02927 5.3672 0
M  V30 1627 H 154.741 0.120698 0.818145 0
M  V30 1628 H 157.287 0.958857 1.40014 0
M  V30 1629 H 156.059 1.92889 3.40455 0
M  V30 1630 H 155.682 0.307714 3.96407 0
M  V30 1631 N 156.679 -1.44442 0.630414 0
M  V30 1632 C 157.927 -2.01653 0.134351 0
M  V30 1633 C 158.248 -1.49836 -1.24796 0
M  V30 1634 O 157.518 -0.701684 -1.82902 0
M  V30 1635 H 156.098 -0.74554 0.0466769 0
M  V30 1636 H 158.76 -1.76952 0.816955 0
M  V30 1637 H 157.856 -3.11935 0.101498 0
M  V30 1638 N 158.157 -0.370918 -1.53173 0
M  V30 1639 C 159.403 0.217423 -2.01631 0
M  V30 1640 C 159.736 1.47983 -1.25756 0
M  V30 1641 O 159.011 1.91274 -0.352764 0
M  V30 1642 C 159.294 0.503982 -3.56556 0
M  V30 1643 C 159.147 -0.77243 -4.43118 0
M  V30 1644 C 160.466 1.30234 -4.20389 0
M  V30 1645 H 157.585 0.0775486 -0.732909 0
M  V30 1646 H 160.227 -0.496863 -1.83388 0
M  V30 1647 H 158.377 1.11248 -3.72231 0
M  V30 1648 H 160.049 -1.4098 -4.39229 0
M  V30 1649 H 158.292 -1.39167 -4.10871 0
M  V30 1650 H 158.963 -0.526815 -5.4948 0
M  V30 1651 H 161.439 0.787546 -4.08579 0
M  V30 1652 H 160.315 1.47158 -5.28806 0
M  V30 1653 H 160.576 2.31237 -3.76805 0
M  V30 1654 N 159.635 1.57281 -0.100228 0
M  V30 1655 C 160.582 2.14305 0.856858 0
M  V30 1656 C 161.552 1.06296 1.27634 0
M  V30 1657 O 162.737 1.34109 1.35718 0
M  V30 1658 C 159.877 2.73184 2.10866 0
M  V30 1659 C 158.99 3.95442 1.73925 0
M  V30 1660 C 158.125 4.42468 2.93931 0
M  V30 1661 C 157.164 5.57303 2.5314 0
M  V30 1662 N 156.301 5.99158 3.65997 0
M  V30 1663 H 161.141 2.95772 0.363726 0
M  V30 1664 H 158.678 1.46139 0.167858 0
M  V30 1665 H 160.636 3.05442 2.84185 0
M  V30 1666 H 159.266 1.94437 2.57671 0
M  V30 1667 H 158.318 3.69464 0.905554 0
M  V30 1668 H 159.63 4.78769 1.39935 0
M  V30 1669 H 158.784 4.76537 3.75496 0
M  V30 1670 H 157.523 3.58052 3.31134 0
M  V30 1671 H 156.528 5.22857 1.70003 0
M  V30 1672 H 157.753 6.43471 2.17075 0
M  V30 1673 H 155.699 5.17687 4.02909 0
M  V30 1674 H 155.616 6.77295 3.35869 0
M  V30 1675 H 156.884 6.3786 4.48057 0
M  V30 1676 N 161.113 -0.173488 1.56642 0
M  V30 1677 C 162.061 -1.23417 1.97157 0
M  V30 1678 C 163.055 -1.45946 0.860013 0
M  V30 1679 O 164.261 -1.46551 1.04512 0
M  V30 1680 H 160.636 -0.414818 0.62724 0
M  V30 1681 H 162.607 -0.865582 2.8557 0
M  V30 1682 C 161.356 -2.5665 2.34576 0
M  V30 1683 H 160.679 -2.40137 3.19647 0
M  V30 1684 H 162.119 -3.2956 2.6677 0
M  V30 1685 C 160.578 -3.15245 1.18836 0
M  V30 1686 O 161.108 -3.98883 0.474869 0
M  V30 1687 N 159.314 -2.74303 0.959497 0
M  V30 1688 H 158.861 -2.0639 1.54146 0
M  V30 1689 H 158.819 -3.13844 0.186932 0
M  V30 1690 N 162.591 -1.51276 -0.441967 0
M  V30 1691 C 163.539 -1.72823 -1.55676 0
M  V30 1692 C 164.533 -0.59445 -1.58627 0
M  V30 1693 O 165.739 -0.775715 -1.62427 0
M  V30 1694 H 162.114 -0.545983 -0.517113 0
M  V30 1695 H 164.085 -2.6628 -1.34675 0
M  V30 1696 C 162.834 -1.86619 -2.93375 0
M  V30 1697 H 162.157 -2.73264 -2.91834 0
M  V30 1698 H 163.597 -2.05709 -3.70756 0
M  V30 1699 C 162.056 -0.624842 -3.31055 0
M  V30 1700 O 162.586 0.222636 -4.01083 0
M  V30 1701 N 160.792 -0.470288 -2.86769 0
M  V30 1702 H 160.339 -1.161 -2.29953 0
M  V30 1703 H 160.297 0.359051 -3.12343 0
M  V30 1704 N 164.069 0.697108 -1.41344 0
M  V30 1705 C 164.999 1.82353 -1.45841 0
M  V30 1706 C 165.98 1.67115 -0.317247 0
M  V30 1707 O 167.165 1.86871 -0.528474 0
M  V30 1708 C 164.295 3.20476 -1.33838 0
M  V30 1709 C 163.249 3.50415 -2.4575 0
M  V30 1710 C 162.575 4.87878 -2.18813 0
M  V30 1711 C 163.875 3.49546 -3.88091 0
M  V30 1712 H 165.569 1.78846 -2.40113 0
M  V30 1713 H 163.115 0.859028 -1.15571 0
M  V30 1714 H 165.068 3.98988 -1.35596 0
M  V30 1715 H 163.792 3.24604 -0.360498 0
M  V30 1716 H 162.451 2.74253 -2.43271 0
M  V30 1717 H 162.099 4.8863 -1.19371 0
M  V30 1718 H 161.799 5.08875 -2.93803 0
M  V30 1719 H 163.323 5.68702 -2.22284 0
M  V30 1720 H 164.737 4.18066 -3.92293 0
M  V30 1721 H 163.134 3.82075 -4.62751 0
M  V30 1722 H 164.204 2.48552 -4.16353 0
M  V30 1723 N 165.547 1.27147 0.931209 0
M  V30 1724 C 166.772 1.16191 1.71797 0
M  V30 1725 C 167.197 -0.278004 1.86034 0
M  V30 1726 O 166.555 -1.20137 1.35782 0
M  V30 1727 C 166.603 1.84673 3.09723 0
M  V30 1728 O 165.707 1.14231 3.96264 0
M  V30 1729 H 165.048 0.404303 0.526721 0
M  V30 1730 H 167.578 1.68152 1.1656 0
M  V30 1731 H 167.588 1.91893 3.60057 0
M  V30 1732 H 166.263 2.89421 2.98677 0
M  V30 1733 H 164.84 1.15056 3.54706 0
M  V30 1734 N 167.025 -1.13721 1.09112 0
M  V30 1735 C 168.271 -1.85198 0.826414 0
M  V30 1736 C 168.604 -1.83129 -0.646319 0
M  V30 1737 O 167.879 -1.2671 -1.47563 0
M  V30 1738 C 168.162 -3.33507 1.35812 0
M  V30 1739 C 168.015 -3.44108 2.89672 0
M  V30 1740 C 169.334 -4.28838 0.989256 0
M  V30 1741 H 166.453 -0.67243 0.301675 0
M  V30 1742 H 169.095 -1.33499 1.35197 0
M  V30 1743 H 167.245 -3.77666 0.911082 0
M  V30 1744 H 168.917 -3.08684 3.428 0
M  V30 1745 H 167.16 -2.85087 3.26967 0
M  V30 1746 H 167.831 -4.48388 3.21951 0
M  V30 1747 H 170.307 -3.92734 1.37475 0
M  V30 1748 H 169.183 -5.31051 1.38838 0
M  V30 1749 H 169.444 -4.4198 -0.102924 0
M  V30 1750 N 168.503 -0.877838 -1.30888 0
M  V30 1751 C 169.751 -0.491723 -1.96027 0
M  V30 1752 C 170.072 0.960827 -1.69685 0
M  V30 1753 O 169.342 1.67462 -1.01654 0
M  V30 1754 H 167.922 -0.17885 -0.725273 0
M  V30 1755 H 170.584 -1.11935 -1.59551 0
M  V30 1756 H 169.68 -0.656016 -3.05128 0
M  V30 1757 N 169.982 1.44106 -0.638065 0
M  V30 1758 C 171.393 1.85316 -0.226894 0
M  V30 1759 C 171.744 1.53399 1.22324 0
M  V30 1760 O 170.869 0.975463 1.93167 0
M  V30 1761 C 171.464 3.3637 -0.405013 0
M  V30 1762 C 170.023 3.76369 -0.0482902 0
M  V30 1763 C 169.17 2.67921 -0.715108 0
M  V30 1764 H 172.121 1.34474 -0.842764 0
M  V30 1765 H 172.142 3.7885 0.354 0
M  V30 1766 H 171.654 3.59569 -1.46053 0
M  V30 1767 H 169.755 3.58784 1.00522 0
M  V30 1768 H 169.868 4.76856 -0.463187 0
M  V30 1769 H 168.232 2.54259 -0.149753 0
M  V30 1770 H 169.015 2.93951 -1.77335 0
M  V30 1771 N 171.46 0.379036 1.52974 0
M  V30 1772 C 172.423 -0.448865 2.24762 0
M  V30 1773 C 173.423 -0.998689 1.26027 0
M  V30 1774 O 174.613 -0.882313 1.50203 0
M  V30 1775 C 171.745 -1.62872 2.99476 0
M  V30 1776 H 172.938 0.179491 2.99362 0
M  V30 1777 H 170.491 0.13096 1.5575 0
M  V30 1778 H 171.226 -2.29479 2.29151 0
M  V30 1779 H 171.011 -1.24128 3.71934 0
M  V30 1780 H 172.501 -2.2151 3.5401 0
M  V30 1781 N 172.938 -1.57226 0.108567 0
M  V30 1782 C 174.166 -1.99179 -0.559954 0
M  V30 1783 C 174.581 -0.988022 -1.60884 0
M  V30 1784 O 173.938 0.0205512 -1.82488 0
M  V30 1785 C 173.989 -3.41159 -1.19552 0
M  V30 1786 O 173.71 -4.37694 -0.188577 0
M  V30 1787 C 175.211 -3.98188 -1.94837 0
M  V30 1788 H 172.431 -0.654228 -0.149088 0
M  V30 1789 H 174.975 -2.03598 0.19183 0
M  V30 1790 H 173.13 -3.37711 -1.89815 0
M  V30 1791 H 173.544 -5.20469 -0.649014 0
M  V30 1792 H 175.018 -4.99644 -2.34648 0
M  V30 1793 H 175.495 -3.3675 -2.81951 0
M  V30 1794 H 176.101 -4.0515 -1.2936 0
M  V30 1795 N 174.416 0.165178 -1.56732 0
M  V30 1796 C 175.326 1.22423 -2.00125 0
M  V30 1797 C 176.342 1.48084 -0.913619 0
M  V30 1798 O 177.518 1.60112 -1.22172 0
M  V30 1799 C 174.583 2.54197 -2.35764 0
M  V30 1800 C 173.644 2.36343 -3.58386 0
M  V30 1801 C 172.877 3.61834 -3.92316 0
M  V30 1802 O 173.1 4.67267 -3.27135 0
M  V30 1803 O 172.034 3.55579 -4.85641 0
M  V30 1804 H 175.86 0.885886 -2.90492 0
M  V30 1805 H 173.445 0.372518 -1.44681 0
M  V30 1806 H 175.327 3.3192 -2.59629 0
M  V30 1807 H 174.002 2.87598 -1.48557 0
M  V30 1808 H 172.909 1.56632 -3.39731 0
M  V30 1809 H 174.242 2.07865 -4.46154 0
M  V30 1810 N 175.894 1.51508 0.433938 0
M  V30 1811 C 176.857 1.72473 1.50949 0
M  V30 1812 C 177.857 0.594725 1.49398 0
M  V30 1813 O 179.047 0.862315 1.5136 0
M  V30 1814 C 176.179 1.78431 2.90474 0
M  V30 1815 H 177.372 2.68467 1.33662 0
M  V30 1816 H 174.925 1.41549 0.662836 0
M  V30 1817 H 175.66 0.842645 3.13161 0
M  V30 1818 H 175.445 2.60558 2.93005 0
M  V30 1819 H 176.935 1.96479 3.68491 0
M  V30 1820 N 177.372 -0.689602 1.41712 0
M  V30 1821 C 178.302 -1.81577 1.46806 0
M  V30 1822 C 179.283 -1.66945 0.326105 0
M  V30 1823 O 180.468 -1.86588 0.538377 0
M  V30 1824 C 177.598 -3.19762 1.35535 0
M  V30 1825 C 176.552 -3.49107 2.47605 0
M  V30 1826 C 175.878 -4.86711 2.21397 0
M  V30 1827 C 177.178 -3.47483 3.89939 0
M  V30 1828 H 178.872 -1.7757 2.41058 0
M  V30 1829 H 176.418 -0.852887 1.16025 0
M  V30 1830 H 178.371 -3.98263 1.3771 0
M  V30 1831 H 177.095 -3.24409 0.377708 0
M  V30 1832 H 175.754 -2.72959 2.44722 0
M  V30 1833 H 175.402 -4.8799 1.21961 0
M  V30 1834 H 175.102 -5.0731 2.96497 0
M  V30 1835 H 176.626 -5.67515 2.25297 0
M  V30 1836 H 178.04 -4.1598 3.94505 0
M  V30 1837 H 176.437 -3.79615 4.64771 0
M  V30 1838 H 177.507 -2.46341 4.17665 0
M  V30 1839 N 178.85 -1.27639 -0.924453 0
M  V30 1840 C 179.813 -1.10681 -2.00705 0
M  V30 1841 C 180.813 -0.0497823 -1.60723 0
M  V30 1842 O 182.003 -0.294654 -1.7169 0
M  V30 1843 C 179.135 -0.687164 -3.33902 0
M  V30 1844 H 180.328 -2.06817 -2.17179 0
M  V30 1845 H 177.881 -1.10473 -1.10569 0
M  V30 1846 H 178.616 0.275439 -3.23128 0
M  V30 1847 H 178.401 -1.45061 -3.6428 0
M  V30 1848 H 179.891 -0.590853 -4.13399 0
M  V30 1849 N 180.328 1.1314 -1.09713 0
M  V30 1850 C 181.576 1.84119 -0.833338 0
M  V30 1851 C 181.897 1.84097 0.642904 0
M  V30 1852 O 181.167 1.29881 1.46655 0
M  V30 1853 H 179.747 0.681766 -0.305293 0
M  V30 1854 H 182.409 1.37038 -1.38588 0
M  V30 1855 H 181.505 2.88543 -1.18951 0
M  V30 1856 N 181.806 0.884767 1.30421 0
M  V30 1857 C 182.716 0.355398 2.31892 0
M  V30 1858 C 183.732 -0.542261 1.65335 0
M  V30 1859 O 184.908 -0.435432 1.96637 0
M  V30 1860 C 181.973 -0.421661 3.44126 0
M  V30 1861 C 181.034 0.505727 4.26311 0
M  V30 1862 C 180.267 -0.234343 5.33185 0
M  V30 1863 O 180.49 -1.46045 5.51386 0
M  V30 1864 O 179.424 0.415443 6.00465 0
M  V30 1865 H 183.25 1.19685 2.79122 0
M  V30 1866 H 180.835 0.648596 1.34587 0
M  V30 1867 H 182.717 -0.861641 4.12497 0
M  V30 1868 H 181.392 -1.23942 2.99032 0
M  V30 1869 H 180.299 0.994513 3.60639 0
M  V30 1870 H 181.632 1.28948 4.75009 0
M  V30 1871 N 183.284 -1.43765 0.645699 0
M  V30 1872 C 184.532 -2.01499 0.155731 0
M  V30 1873 C 184.853 -1.51151 -1.232 0
M  V30 1874 O 184.123 -0.721044 -1.82148 0
M  V30 1875 H 182.703 -0.745003 0.0545817 0
M  V30 1876 H 185.365 -1.76075 0.835677 0
M  V30 1877 H 184.461 -3.1181 0.134577 0
M  V30 1878 N 184.763 -0.387143 -1.52771 0
M  V30 1879 C 185.693 0.440551 -2.29306 0
M  V30 1880 C 186.674 1.06535 -1.32606 0
M  V30 1881 O 187.859 1.07853 -1.61497 0
M  V30 1882 C 184.989 1.56919 -3.09829 0
M  V30 1883 C 183.943 1.07054 -4.14395 0
M  V30 1884 C 183.269 2.29109 -4.83129 0
M  V30 1885 C 184.569 0.140015 -5.22112 0
M  V30 1886 H 186.263 -0.198026 -2.98744 0
M  V30 1887 H 183.809 -0.09668 -1.43675 0
M  V30 1888 H 185.762 2.15503 -3.62128 0
M  V30 1889 H 184.486 2.23532 -2.3812 0
M  V30 1890 H 183.145 0.507247 -3.63074 0
M  V30 1891 H 182.793 2.94227 -4.0797 0
M  V30 1892 H 182.493 1.96406 -5.53804 0
M  V30 1893 H 184.017 2.88339 -5.38231 0
M  V30 1894 H 185.431 0.633978 -5.69784 0
M  V30 1895 H 183.828 -0.0971485 -6.00021 0
M  V30 1896 H 184.898 -0.811711 -4.78058 0
M  V30 1897 N 186.241 1.57166 -0.116904 0
M  V30 1898 C 187.49 1.94298 0.541407 0
M  V30 1899 C 187.803 1.00236 1.67964 0
M  V30 1900 O 189.009 1.26826 2.40057 0
M  V30 1901 C 187.465 3.45306 1.01449 0
M  V30 1902 C 187.073 4.47899 -0.0951738 0
M  V30 1903 C 188.817 3.91361 1.6443 0
M  V30 1904 C 186.724 5.90083 0.394491 0
M  V30 1905 H 185.654 0.725308 0.206019 0
M  V30 1906 H 188.305 1.82446 -0.196419 0
M  V30 1907 H 186.687 3.52385 1.80667 0
M  V30 1908 H 187.861 4.52486 -0.871374 0
M  V30 1909 H 186.176 4.11583 -0.631505 0
M  V30 1910 H 188.773 4.95004 2.02176 0
M  V30 1911 H 189.116 3.3122 2.52189 0
M  V30 1912 H 189.649 3.87073 0.917559 0
M  V30 1913 H 186.388 6.53974 -0.447004 0
M  V30 1914 H 185.908 5.88921 1.13722 0
M  V30 1915 H 187.587 6.41307 0.856399 0
M  V30 1916 N 187.719 -0.156864 1.56817 0
M  V30 1917 C 188.965 -0.872416 1.83076 0
M  V30 1918 C 189.298 -1.81261 0.697001 0
M  V30 1919 O 188.573 -1.92171 -0.30008 0
M  V30 1920 C 188.856 -1.65551 3.19789 0
M  V30 1921 C 188.709 -0.737467 4.43713 0
M  V30 1922 C 190.028 -2.62012 3.53606 0
M  V30 1923 H 187.147 -0.315715 0.665953 0
M  V30 1924 H 189.789 -0.138004 1.89498 0
M  V30 1925 H 187.939 -2.28159 3.14445 0
M  V30 1926 H 189.611 -0.123143 4.61136 0
M  V30 1927 H 187.854 -0.0464067 4.33775 0
M  V30 1928 H 188.525 -1.32122 5.35955 0
M  V30 1929 H 191.001 -2.09525 3.59497 0
M  V30 1930 H 189.877 -3.13861 4.50314 0
M  V30 1931 H 190.138 -3.42902 2.79053 0
M  V30 1932 N 189.197 -1.51736 -0.425897 0
M  V30 1933 C 190.425 -1.68794 -1.1965 0
M  V30 1934 C 190.84 -0.390164 -1.84725 0
M  V30 1935 O 190.197 0.632376 -1.71194 0
M  V30 1936 C 190.248 -2.81174 -2.27208 0
M  V30 1937 O 189.969 -4.05925 -1.64793 0
M  V30 1938 C 191.47 -3.09599 -3.17275 0
M  V30 1939 H 188.69 -0.566128 -0.360194 0
M  V30 1940 H 191.234 -1.98211 -0.503249 0
M  V30 1941 H 189.389 -2.54324 -2.9223 0
M  V30 1942 H 189.803 -4.68423 -2.35967 0
M  V30 1943 H 191.277 -3.91786 -3.88854 0
M  V30 1944 H 191.754 -2.22468 -3.78688 0
M  V30 1945 H 192.36 -3.38151 -2.57941 0
M  V30 1946 N 190.675 0.682077 -1.42076 0
M  V30 1947 C 191.638 1.77756 -1.44691 0
M  V30 1948 C 192.638 1.5726 -0.335535 0
M  V30 1949 O 193.828 1.63686 -0.596037 0
M  V30 1950 C 190.96 3.16301 -1.27146 0
M  V30 1951 H 192.153 1.76826 -2.42224 0
M  V30 1952 H 189.706 0.891012 -1.28416 0
M  V30 1953 H 190.441 3.22862 -0.305075 0
M  V30 1954 H 190.226 3.32581 -2.07683 0
M  V30 1955 H 191.716 3.96241 -1.31843 0
M  V30 1956 N 192.153 1.28127 0.917671 0
M  V30 1957 C 193.401 1.14825 1.66312 0
M  V30 1958 C 193.722 -0.304379 1.9261 0
M  V30 1959 O 192.992 -1.21149 1.53947 0
M  V30 1960 H 191.572 0.421953 0.616413 0
M  V30 1961 H 194.234 1.608 1.10134 0
M  V30 1962 H 193.33 1.68489 2.62712 0
M  V30 1963 N 193.631 -1.12557 1.10312 0
M  V30 1964 C 194.879 -1.83675 0.843091 0
M  V30 1965 C 195.2 -1.84435 -0.633131 0
M  V30 1966 O 194.47 -1.30657 -1.45964 0
M  V30 1967 H 193.05 -0.680138 0.308904 0
M  V30 1968 H 195.712 -1.36301 1.39313 0
M  V30 1969 H 194.808 -2.87908 1.2048 0
M  V30 1970 N 195.109 -0.891671 -1.2995 0
M  V30 1971 C 196.358 -0.509521 -1.95158 0
M  V30 1972 C 196.671 0.947388 -1.71125 0
M  V30 1973 O 197.877 1.43669 -2.30372 0
M  V30 1974 C 196.333 -0.860315 -3.49466 0
M  V30 1975 C 195.941 -2.33545 -3.8231 0
M  V30 1976 C 197.685 -0.547687 -4.20952 0
M  V30 1977 C 195.592 -2.62752 -5.29826 0
M  V30 1978 H 194.522 -0.18682 -0.730489 0
M  V30 1979 H 197.173 -1.08756 -1.47798 0
M  V30 1980 H 195.555 -0.211285 -3.95436 0
M  V30 1981 H 196.729 -3.02936 -3.47227 0
M  V30 1982 H 195.044 -2.61629 -3.23944 0
M  V30 1983 H 197.641 -0.742854 -5.29515 0
M  V30 1984 H 197.984 0.51332 -4.13123 0
M  V30 1985 H 198.517 -1.1542 -3.80688 0
M  V30 1986 H 195.256 -3.6762 -5.42712 0
M  V30 1987 H 194.776 -1.97977 -5.66185 0
M  V30 1988 H 196.455 -2.48601 -5.97333 0
M  V30 1989 N 196.587 1.43421 -0.653314 0
M  V30 1990 C 197.864 1.95361 -0.0966581 0
M  V30 1991 C 198.244 1.59461 1.38331 0
M  V30 1992 O 197.592 0.879777 2.10884 0
M  V30 1993 C 197.802 3.47311 -0.342988 0
M  V30 1994 C 199.15 4.23875 -0.24798 0
M  V30 1995 O 200.174 3.55133 -0.275553 0
M  V30 1996 O 199.033 5.4623 -0.171771 0
M  V30 1997 H 196.127 0.826945 0.00956291 0
M  V30 1998 H 198.673 1.5336 -0.726558 0
M  V30 1999 H 197.445 3.66569 -1.36906 0
M  V30 2000 H 197.068 3.9631 0.319975 0
M  V30 2001 N 198.065 0.39524 1.52563 0
M  V30 2002 C 199.293 -0.184943 2.06072 0
M  V30 2003 C 199.708 -1.40021 1.26647 0
M  V30 2004 O 199.065 -1.79767 0.314672 0
M  V30 2005 C 199.116 -0.549179 3.57304 0
M  V30 2006 O 198.837 0.617813 4.33722 0
M  V30 2007 C 200.338 -1.18459 4.2718 0
M  V30 2008 H 197.558 -0.0265025 0.670476 0
M  V30 2009 H 200.102 0.562184 1.96621 0
M  V30 2010 H 198.257 -1.2462 3.66809 0
M  V30 2011 H 198.671 0.317091 5.23541 0
M  V30 2012 H 200.145 -1.38976 5.34219 0
M  V30 2013 H 200.622 -2.15368 3.82771 0
M  V30 2014 H 201.228 -0.528163 4.22008 0
M  V30 2015 N 199.544 -1.57102 0.125237 0
M  V30 2016 C 200.494 -2.12202 -0.833936 0
M  V30 2017 C 201.478 -1.04433 -1.22403 0
M  V30 2018 O 202.67 -1.30655 -1.19408 0
M  V30 2019 C 199.799 -2.72994 -2.08157 0
M  V30 2020 C 198.885 -3.87852 -1.71556 0
M  V30 2021 N 199.276 -4.9464 -1.05662 0
M  V30 2022 C 197.574 -3.98153 -2.00973 0
M  V30 2023 C 198.275 -5.74953 -0.883376 0
M  V30 2024 N 197.251 -5.24985 -1.41036 0
M  V30 2025 H 201.053 -2.92141 -0.321035 0
M  V30 2026 H 198.567 -1.62217 -0.0770315 0
M  V30 2027 H 200.564 -3.10816 -2.77847 0
M  V30 2028 H 199.224 -1.9452 -2.59985 0
M  V30 2029 H 200.235 -5.12872 -0.719878 0
M  V30 2030 H 196.912 -3.30728 -2.54804 0
M  V30 2031 H 198.302 -6.70904 -0.365675 0
M  V30 2032 N 201.022 0.148545 -1.56898 0
M  V30 2033 C 202.271 0.85984 -1.82454 0
M  V30 2034 C 202.584 1.82406 -0.706229 0
M  V30 2035 O 203.79 2.57938 -0.847349 0
M  V30 2036 C 202.246 1.57967 -3.2338 0
M  V30 2037 C 201.854 0.65794 -4.43142 0
M  V30 2038 C 203.598 2.27784 -3.58211 0
M  V30 2039 C 201.505 1.3793 -5.75091 0
M  V30 2040 H 200.435 0.324834 -0.68044 0
M  V30 2041 H 203.086 0.112588 -1.83154 0
M  V30 2042 H 201.468 2.37249 -3.17063 0
M  V30 2043 H 202.642 -0.0995497 -4.60692 0
M  V30 2044 H 200.957 0.0682643 -4.16344 0
M  V30 2045 H 203.554 2.8239 -4.54048 0
M  V30 2046 H 203.897 3.04204 -2.84193 0
M  V30 2047 H 204.43 1.55421 -3.66182 0
M  V30 2048 H 201.169 0.656982 -6.52199 0
M  V30 2049 H 200.689 2.10954 -5.61479 0
M  V30 2050 H 202.368 1.92063 -6.17835 0
M  V30 2051 N 202.5 1.5196 0.417844 0
M  V30 2052 C 203.45 1.7106 1.5074 0
M  V30 2053 C 204.434 0.564487 1.50673 0
M  V30 2054 O 205.626 0.821206 1.56797 0
M  V30 2055 C 202.755 1.85677 2.88754 0
M  V30 2056 C 201.841 3.06133 2.93502 0
M  V30 2057 N 202.232 4.28987 2.67962 0
M  V30 2058 C 200.53 3.05787 3.24669 0
M  V30 2059 C 201.231 5.10395 2.79055 0
M  V30 2060 N 200.207 4.45455 3.11561 0
M  V30 2061 H 204.009 2.63696 1.29775 0
M  V30 2062 H 201.523 1.49873 0.625436 0
M  V30 2063 H 203.52 1.97475 3.67164 0
M  V30 2064 H 202.18 0.942348 3.10725 0
M  V30 2065 H 203.191 4.57607 2.4252 0
M  V30 2066 H 199.868 2.2405 3.52289 0
M  V30 2067 H 201.258 6.18247 2.63097 0
M  V30 2068 N 203.978 -0.674533 1.42435 0
M  V30 2069 C 205.225 -1.43459 1.42919 0
M  V30 2070 C 205.553 -1.94446 0.0457312 0
M  V30 2071 O 204.808 -1.7132 -0.94593 0
M  V30 2072 C 205.107 -2.64767 2.40069 0
M  V30 2073 C 204.773 -2.3232 3.86443 0
M  V30 2074 C 203.435 -2.23182 4.26314 0
M  V30 2075 C 205.787 -2.05977 4.78773 0
M  V30 2076 C 203.115 -1.85827 5.56494 0
M  V30 2077 C 205.467 -1.70125 6.09295 0
M  V30 2078 C 204.131 -1.59498 6.48164 0
M  V30 2079 H 203.401 -0.524952 0.522978 0
M  V30 2080 H 206.048 -0.769097 1.75377 0
M  V30 2081 H 204.353 -3.36349 2.00939 0
M  V30 2082 H 206.05 -3.22949 2.37707 0
M  V30 2083 H 202.64 -2.40334 3.54877 0
M  V30 2084 H 206.824 -2.11969 4.48757 0
M  V30 2085 H 202.08 -1.76168 5.8547 0
M  V30 2086 H 206.254 -1.48767 6.80324 0
M  V30 2087 H 203.881 -1.30322 7.48946 0
M  V30 2088 N 205.456 -1.28612 -0.910864 0
M  V30 2089 C 206.705 -1.15311 -1.65488 0
M  V30 2090 C 207.018 0.296999 -1.93332 0
M  V30 2091 O 208.224 0.551168 -2.65847 0
M  V30 2092 C 206.68 -2.01599 -2.98137 0
M  V30 2093 C 206.288 -3.51367 -2.7793 0
M  V30 2094 C 208.032 -1.96993 -3.76024 0
M  V30 2095 C 205.939 -4.29797 -4.06237 0
M  V30 2096 H 204.869 -0.42796 -0.620779 0
M  V30 2097 H 207.52 -1.53166 -1.01057 0
M  V30 2098 H 205.902 -1.56603 -3.63719 0
M  V30 2099 H 207.076 -4.0434 -2.21011 0
M  V30 2100 H 205.391 -3.57529 -2.13452 0
M  V30 2101 H 207.988 -2.52856 -4.71135 0
M  V30 2102 H 208.331 -0.94733 -4.05378 0
M  V30 2103 H 208.864 -2.39973 -3.17266 0
M  V30 2104 H 205.603 -5.32648 -3.82055 0
M  V30 2105 H 205.123 -3.81596 -4.62757 0
M  V30 2106 H 206.802 -4.39869 -4.74473 0
M  V30 2107 N 206.934 1.1197 -1.10907 0
M  V30 2108 C 208.159 1.87942 -0.877064 0
M  V30 2109 C 208.584 1.79341 0.567314 0
M  V30 2110 O 207.942 1.15184 1.40009 0
M  V30 2111 C 207.99 3.34926 -1.33629 0
M  V30 2112 O 207.094 4.09303 -0.504447 0
M  V30 2113 H 206.435 0.583785 -0.316371 0
M  V30 2114 H 208.965 1.4157 -1.47712 0
M  V30 2115 H 208.975 3.8577 -1.32837 0
M  V30 2116 H 207.65 3.40504 -2.3881 0
M  V30 2117 H 206.227 3.68393 -0.577993 0
M  V30 2118 N 208.412 0.89855 1.29475 0
M  V30 2119 C 209.823 0.572537 1.77705 0
M  V30 2120 C 210.174 -0.911778 1.73727 0
M  V30 2121 O 209.299 -1.71288 1.32247 0
M  V30 2122 C 209.894 1.03252 3.22683 0
M  V30 2123 C 208.453 0.757687 3.68695 0
M  V30 2124 C 207.6 1.20787 2.49612 0
M  V30 2125 H 210.551 1.08139 1.16153 0
M  V30 2126 H 210.572 0.367307 3.78723 0
M  V30 2127 H 210.084 2.11285 3.25546 0
M  V30 2128 H 208.185 -0.310079 3.71308 0
M  V30 2129 H 208.298 1.35476 4.59547 0
M  V30 2130 H 206.662 0.626888 2.46865 0
M  V30 2131 H 207.445 2.29622 2.55203 0
M  V30 2132 N 209.89 -1.43072 0.660911 0
M  V30 2133 C 210.822 -2.29108 -0.0647641 0
M  V30 2134 C 211.835 -1.42928 -0.779448 0
M  V30 2135 O 213.024 -1.66788 -0.635921 0
M  V30 2136 C 210.124 -3.20032 -1.11503 0
M  V30 2137 C 209.297 -4.34792 -0.476955 0
M  V30 2138 C 208.356 -5.06534 -1.42513 0
M  V30 2139 O 207.382 -5.61538 -0.930771 0
M  V30 2140 N 208.584 -5.1075 -2.75889 0
M  V30 2141 H 211.349 -2.92029 0.673731 0
M  V30 2142 H 208.91 -1.53846 0.50427 0
M  V30 2143 H 210.902 -3.64892 -1.75032 0
M  V30 2144 H 209.472 -2.58658 -1.75541 0
M  V30 2145 H 208.692 -3.92752 0.337572 0
M  V30 2146 H 209.98 -5.0879 -0.0318525 0
M  V30 2147 H 209.378 -4.67447 -3.18606 0
M  V30 2148 H 207.935 -5.59302 -3.347 0
M  V30 2149 N 211.368 -0.403325 -1.52352 0
M  V30 2150 C 212.3 0.4603 -2.2453 0
M  V30 2151 C 213.313 1.01505 -1.27282 0
M  V30 2152 O 214.502 0.914982 -1.53266 0
M  V30 2153 C 211.602 1.65208 -2.95905 0
M  V30 2154 C 210.775 1.22224 -4.19976 0
M  V30 2155 C 209.834 2.28028 -4.74226 0
M  V30 2156 O 208.86 1.88857 -5.36956 0
M  V30 2157 N 210.062 3.6012 -4.55295 0
M  V30 2158 H 212.827 -0.158156 -2.99282 0
M  V30 2159 H 210.388 -0.230402 -1.60252 0
M  V30 2160 H 212.38 2.35541 -3.29093 0
M  V30 2161 H 210.95 2.17658 -2.24374 0
M  V30 2162 H 210.17 0.34725 -3.92668 0
M  V30 2163 H 211.458 0.911924 -5.00561 0
M  V30 2164 H 210.856 3.94698 -4.05253 0
M  V30 2165 H 209.413 4.26447 -4.92936 0
M  V30 2166 N 212.846 1.57033 -0.133567 0
M  V30 2167 C 214.095 1.94861 0.520768 0
M  V30 2168 C 214.408 1.02012 1.66892 0
M  V30 2169 O 215.614 1.29365 2.38699 0
M  V30 2170 C 214.07 3.46362 0.977809 0
M  V30 2171 C 213.678 4.47773 -0.142674 0
M  V30 2172 C 215.422 3.93083 1.60269 0
M  V30 2173 C 213.329 5.90468 0.331883 0
M  V30 2174 H 212.259 0.727453 0.198315 0
M  V30 2175 H 214.91 1.82227 -0.215759 0
M  V30 2176 H 213.292 3.54282 1.7692 0
M  V30 2177 H 214.466 4.51536 -0.919317 0
M  V30 2178 H 212.781 4.10891 -0.675124 0
M  V30 2179 H 215.378 4.97121 1.96914 0
M  V30 2180 H 215.721 3.33876 2.48662 0
M  V30 2181 H 216.254 3.88025 0.876453 0
M  V30 2182 H 212.993 6.53463 -0.516341 0
M  V30 2183 H 212.513 5.90094 1.07469 0
M  V30 2184 H 214.192 6.42179 0.788332 0
M  V30 2185 N 214.325 -0.140222 1.56975 0
M  V30 2186 C 215.736 -0.699596 1.73097 0
M  V30 2187 C 216.087 -1.8134 0.749022 0
M  V30 2188 O 215.212 -2.16241 -0.0828503 0
M  V30 2189 C 215.807 -1.27582 3.1386 0
M  V30 2190 C 214.366 -1.78169 3.31561 0
M  V30 2191 C 213.513 -0.672855 2.69013 0
M  V30 2192 H 216.464 0.0855115 1.58469 0
M  V30 2193 H 216.485 -2.14561 3.14235 0
M  V30 2194 H 215.997 -0.464955 3.85305 0
M  V30 2195 H 214.098 -2.61801 2.65124 0
M  V30 2196 H 214.211 -1.90574 4.39566 0
M  V30 2197 H 212.575 -1.10118 2.29665 0
M  V30 2198 H 213.358 0.126679 3.43066 0
M  V30 2199 N 215.803 -1.52179 -0.40978 0
M  V30 2200 C 217.031 -1.70054 -1.17853 0
M  V30 2201 C 217.446 -0.409735 -1.843 0
M  V30 2202 O 216.803 0.614183 -1.71855 0
M  V30 2203 C 216.854 -2.83568 -2.24213 0
M  V30 2204 O 216.575 -4.0765 -1.60478 0
M  V30 2205 C 218.076 -3.12947 -3.13973 0
M  V30 2206 H 215.296 -0.569917 -0.354169 0
M  V30 2207 H 217.84 -1.98734 -0.482198 0
M  V30 2208 H 215.995 -2.57409 -2.89516 0
M  V30 2209 H 216.409 -4.70899 -2.30986 0
M  V30 2210 H 217.883 -3.95889 -3.84677 0
M  V30 2211 H 218.36 -2.26472 -3.76307 0
M  V30 2212 H 218.966 -3.40868 -2.5434 0
M  V30 2213 N 217.281 0.66697 -1.42791 0
M  V30 2214 C 218.244 1.76211 -1.46568 0
M  V30 2215 C 219.244 1.56896 -0.352196 0
M  V30 2216 O 220.434 1.63044 -0.613364 0
M  V30 2217 C 217.566 3.14935 -1.30494 0
M  V30 2218 H 218.759 1.74247 -2.44086 0
M  V30 2219 H 216.312 0.877342 -1.29354 0
M  V30 2220 H 217.047 3.2252 -0.339301 0
M  V30 2221 H 216.832 3.30359 -2.11199 0
M  V30 2222 H 218.322 3.94821 -1.36038 0
M  V30 2223 N 218.759 1.29093 0.90403 0
M  V30 2224 C 220.006 1.16813 1.65411 0
M  V30 2225 C 220.334 -0.28128 1.92455 0
M  V30 2226 O 219.589 -1.22006 1.53013 0
M  V30 2227 C 219.888 1.92224 3.01305 0
M  V30 2228 C 219.554 3.41968 2.93885 0
M  V30 2229 C 218.216 3.82807 2.91569 0
M  V30 2230 C 220.568 4.37409 2.83413 0
M  V30 2231 C 217.896 5.1741 2.76594 0
M  V30 2232 C 220.248 5.72097 2.69977 0
M  V30 2233 C 218.912 6.12199 2.66024 0
M  V30 2234 H 218.182 0.42745 0.605283 0
M  V30 2235 H 220.829 1.59981 1.05254 0
M  V30 2236 H 219.134 1.41635 3.65304 0
M  V30 2237 H 220.831 1.80131 3.58265 0
M  V30 2238 H 217.421 3.09504 2.96488 0
M  V30 2239 H 221.605 4.06813 2.84283 0
M  V30 2240 H 216.861 5.47596 2.71935 0
M  V30 2241 H 221.035 6.45704 2.60844 0
M  V30 2242 H 218.662 7.16448 2.54178 0
M  V30 2243 N 220.237 -1.11381 1.11499 0
M  V30 2244 C 221.2 -2.15622 0.777153 0
M  V30 2245 C 222.2 -1.59504 -0.203779 0
M  V30 2246 O 223.39 -1.74188 0.020782 0
M  V30 2247 C 220.522 -3.40556 0.153116 0
M  V30 2248 H 221.715 -2.47021 1.70061 0
M  V30 2249 H 219.268 -1.26577 0.916952 0
M  V30 2250 H 220.003 -3.14767 -0.780536 0
M  V30 2251 H 219.788 -3.8257 0.859238 0
M  V30 2252 H 221.278 -4.17546 -0.0671044 0
M  V30 2253 N 221.715 -0.905404 -1.28997 0
M  V30 2254 C 222.94 -0.549175 -1.99997 0
M  V30 2255 C 223.365 0.860276 -1.67275 0
M  V30 2256 O 222.723 1.57355 -0.900502 0
M  V30 2257 C 222.771 -0.755185 -3.52604 0
M  V30 2258 O 221.875 0.189692 -4.11964 0
M  V30 2259 H 221.216 -0.213899 -0.628604 0
M  V30 2260 H 223.746 -1.21856 -1.64354 0
M  V30 2261 H 223.756 -0.662045 -4.02593 0
M  V30 2262 H 222.431 -1.78271 -3.75755 0
M  V30 2263 H 221.008 0.0485257 -3.72868 0
M  V30 2264 N 223.193 1.4272 -0.668489 0
M  V30 2265 C 224.441 2.01226 -0.187769 0
M  V30 2266 C 224.762 1.53092 1.2078 0
M  V30 2267 O 224.032 0.74993 1.80977 0
M  V30 2268 H 222.612 0.744041 -0.0664272 0
M  V30 2269 H 225.274 1.74723 -0.863583 0
M  V30 2270 H 224.37 3.11556 -0.184166 0
M  V30 2271 N 224.671 0.411399 1.52136 0
M  V30 2272 C 225.917 -0.163888 2.02137 0
M  V30 2273 C 226.25 -1.44597 1.29636 0
M  V30 2274 O 225.525 -1.90272 0.403353 0
M  V30 2275 C 225.808 -0.40927 3.57767 0
M  V30 2276 C 225.661 0.889643 4.40914 0
M  V30 2277 C 226.98 -1.19042 4.23694 0
M  V30 2278 H 224.099 -0.0580896 0.734707 0
M  V30 2279 H 226.741 0.54531 1.82007 0
M  V30 2280 H 224.891 -1.0134 3.7505 0
M  V30 2281 H 226.563 1.52575 4.35337 0
M  V30 2282 H 224.806 1.50011 4.07037 0
M  V30 2283 H 225.477 0.672314 5.4789 0
M  V30 2284 H 227.953 -0.678942 4.10524 0
M  V30 2285 H 226.829 -1.33086 5.32522 0
M  V30 2286 H 227.09 -2.21166 3.82803 0
M  V30 2287 N 226.149 -1.5696 0.141893 0
M  V30 2288 C 227.377 -2.00322 -0.517579 0
M  V30 2289 C 227.792 -1.02193 -1.58752 0
M  V30 2290 O 227.149 -0.0181619 -1.82491 0
M  V30 2291 C 227.2 -3.43618 -1.12289 0
M  V30 2292 O 226.921 -4.37995 -0.0956929 0
M  V30 2293 C 228.422 -4.02231 -1.86347 0
M  V30 2294 H 225.642 -0.657243 -0.135177 0
M  V30 2295 H 228.186 -2.03146 0.234973 0
M  V30 2296 H 226.341 -3.41662 -1.82609 0
M  V30 2297 H 226.755 -5.21729 -0.538469 0
M  V30 2298 H 228.229 -5.04509 -2.23997 0
M  V30 2299 H 228.706 -3.42655 -2.74744 0
M  V30 2300 H 229.312 -4.07802 -1.20737 0
M  V30 2301 N 227.627 0.131896 -1.57047 0
M  V30 2302 C 228.855 0.856461 -1.88341 0
M  V30 2303 C 229.27 1.74042 -0.731757 0
M  V30 2304 O 228.627 1.80051 0.297945 0
M  V30 2305 C 228.678 1.70064 -3.18999 0
M  V30 2306 O 228.399 0.852278 -4.2973 0
M  V30 2307 C 229.9 2.53148 -3.63911 0
M  V30 2308 H 227.12 0.246885 -0.62393 0
M  V30 2309 H 229.664 0.120152 -2.04147 0
M  V30 2310 H 227.819 2.38984 -3.04902 0
M  V30 2311 H 228.233 1.43329 -5.04537 0
M  V30 2312 H 229.707 3.07931 -4.58129 0
M  V30 2313 H 230.184 3.29901 -2.89935 0
M  V30 2314 H 230.79 1.89492 -3.80753 0
M  V30 2315 N 229.106 1.52395 0.401703 0
M  V30 2316 C 230.039 1.70999 1.51111 0
M  V30 2317 C 231.017 0.55765 1.52738 0
M  V30 2318 O 232.201 0.785912 1.71335 0
M  V30 2319 C 229.328 1.75607 2.8962 0
M  V30 2320 C 228.374 2.97227 3.05873 0
M  V30 2321 S 229.207 4.57439 2.78405 0
M  V30 2322 C 230.363 4.64844 4.19131 0
M  V30 2323 H 230.596 2.6483 1.35102 0
M  V30 2324 H 228.129 1.42527 0.593762 0
M  V30 2325 H 230.087 1.78947 3.69443 0
M  V30 2326 H 228.748 0.828914 3.02965 0
M  V30 2327 H 227.941 2.96955 4.07227 0
M  V30 2328 H 227.543 2.91813 2.33925 0
M  V30 2329 H 229.835 4.42677 5.12877 0
M  V30 2330 H 230.778 5.66807 4.24424 0
M  V30 2331 H 231.186 3.93804 4.04448 0
M  V30 2332 N 230.584 -0.659388 1.43143 0
M  V30 2333 C 231.833 -1.41518 1.43721 0
M  V30 2334 C 232.146 -1.95499 0.0628176 0
M  V30 2335 O 233.352 -2.71446 -0.0539683 0
M  V30 2336 C 231.808 -2.5608 2.52885 0
M  V30 2337 C 231.416 -2.08733 3.96402 0
M  V30 2338 C 233.16 -3.3349 2.62649 0
M  V30 2339 C 231.067 -3.20469 4.97045 0
M  V30 2340 H 229.997 -0.531705 0.534608 0
M  V30 2341 H 232.648 -0.712343 1.69109 0
M  V30 2342 H 231.03 -3.28805 2.20688 0
M  V30 2343 H 232.204 -1.43059 4.3803 0
M  V30 2344 H 230.519 -1.44219 3.90627 0
M  V30 2345 H 233.116 -4.16734 3.35017 0
M  V30 2346 H 233.459 -3.8111 1.67513 0
M  V30 2347 H 233.992 -2.67842 2.94118 0
M  V30 2348 H 230.731 -2.77824 5.93712 0
M  V30 2349 H 230.251 -3.84874 4.60034 0
M  V30 2350 H 231.93 -3.85698 5.19467 0
M  V30 2351 N 232.062 -1.29571 -0.897171 0
M  V30 2352 C 233.31 -1.17456 -1.64464 0
M  V30 2353 C 233.631 0.273698 -1.9307 0
M  V30 2354 O 232.901 1.18684 -1.55855 0
M  V30 2355 H 231.481 -0.431706 -0.609622 0
M  V30 2356 H 234.143 -1.62531 -1.07562 0
M  V30 2357 H 233.239 -1.72648 -2.59998 0
M  V30 2358 N 233.54 1.10788 -1.12088 0
M  V30 2359 C 234.788 1.8231 -0.872205 0
M  V30 2360 C 235.109 1.85419 0.603709 0
M  V30 2361 O 234.379 1.32963 1.43867 0
M  V30 2362 H 232.959 0.675137 -0.319686 0
M  V30 2363 H 235.621 1.34068 -1.41463 0
M  V30 2364 H 234.717 2.85955 -1.25045 0
M  V30 2365 N 235.018 0.912232 1.28515 0
M  V30 2366 C 236.266 0.543523 1.94654 0
M  V30 2367 C 236.587 -0.9155 1.72173 0
M  V30 2368 O 235.857 -1.64708 1.06058 0
M  V30 2369 H 234.437 0.198017 0.720277 0
M  V30 2370 H 237.099 1.16126 1.56527 0
M  V30 2371 H 236.195 0.736684 3.03281 0
M  V30 2372 N 236.496 -1.42363 0.676048 0
M  V30 2373 C 237.724 -2.05859 0.207268 0
M  V30 2374 C 238.139 -1.50796 -1.13605 0
M  V30 2375 O 237.496 -0.648265 -1.70598 0
M  V30 2376 C 237.547 -3.61248 0.134975 0
M  V30 2377 O 237.268 -4.1427 1.42521 0
M  V30 2378 C 238.769 -4.41859 -0.357151 0
M  V30 2379 H 235.989 -0.663431 0.100503 0
M  V30 2380 H 238.533 -1.82479 0.923136 0
M  V30 2381 H 236.688 -3.83735 -0.531588 0
M  V30 2382 H 237.102 -5.0815 1.29939 0
M  V30 2383 H 238.576 -5.50847 -0.356641 0
M  V30 2384 H 239.053 -4.16536 -1.39264 0
M  V30 2385 H 239.659 -4.24392 0.27772 0
M  V30 2386 N 237.974 -0.419461 -1.51915 0
M  V30 2387 C 239.222 0.152637 -2.01523 0
M  V30 2388 C 239.543 1.44762 -1.30649 0
M  V30 2389 O 238.813 1.90997 -0.435535 0
M  V30 2390 H 237.393 0.0593966 -0.744635 0
M  V30 2391 H 240.055 -0.558073 -1.86739 0
M  V30 2392 H 239.151 0.341369 -3.10227 0
M  V30 2393 N 239.452 1.56882 -0.150215 0
M  V30 2394 C 240.863 1.82995 0.370076 0
M  V30 2395 C 241.214 1.06907 1.64515 0
M  V30 2396 O 240.339 0.315369 2.1409 0
M  V30 2397 C 240.934 3.31942 0.678208 0
M  V30 2398 C 239.493 3.58625 1.14301 0
M  V30 2399 C 238.64 2.76792 0.167778 0
M  V30 2400 H 241.591 1.54209 -0.374858 0
M  V30 2401 H 241.612 3.48272 1.53254 0
M  V30 2402 H 241.124 3.87294 -0.249991 0
M  V30 2403 H 239.225 3.08664 2.08704 0
M  V30 2404 H 239.338 4.67073 1.06676 0
M  V30 2405 H 237.702 2.45972 0.661037 0
M  V30 2406 H 238.485 3.34916 -0.754069 0
M  V30 2407 N 240.93 -0.123565 1.57115 0
M  V30 2408 C 241.893 -1.13583 1.99076 0
M  V30 2409 C 242.893 -1.34564 0.880296 0
M  V30 2410 O 244.083 -1.31158 1.14644 0
M  V30 2411 C 241.215 -2.49128 2.32698 0
M  V30 2412 H 242.408 -0.775287 2.89706 0
M  V30 2413 H 239.961 -0.36771 1.51913 0
M  V30 2414 H 240.696 -2.90111 1.44934 0
M  V30 2415 H 240.481 -2.35255 3.13684 0
M  V30 2416 H 241.971 -3.2199 2.65918 0
M  V30 2417 N 242.408 -1.52605 -0.393616 0
M  V30 2418 C 243.685 -1.58001 -1.15304 0
M  V30 2419 C 244.065 -0.370385 -2.07825 0
M  V30 2420 O 243.413 0.641638 -2.19306 0
M  V30 2421 C 243.623 -2.91652 -1.91677 0
M  V30 2422 C 244.971 -3.4522 -2.47201 0
M  V30 2423 O 245.995 -2.93495 -2.01839 0
M  V30 2424 O 244.854 -4.35579 -3.3005 0
M  V30 2425 H 241.948 -0.637068 -0.527327 0
M  V30 2426 H 244.494 -1.64939 -0.399141 0
M  V30 2427 H 243.266 -3.71136 -1.23992 0
M  V30 2428 H 242.889 -2.88077 -2.74039 0
M  V30 2429 N 243.887 0.651787 -1.4349 0
M  V30 2430 C 245.135 1.40888 -1.44897 0
M  V30 2431 C 245.456 1.94856 -0.0749086 0
M  V30 2432 O 244.726 1.74518 0.889956 0
M  V30 2433 H 243.306 0.522887 -0.533478 0
M  V30 2434 H 245.968 0.768609 -1.79104 0
M  V30 2435 H 245.064 2.25052 -2.16236 0
M  V30 2436 N 245.365 1.30045 0.890287 0
M  V30 2437 C 246.593 1.21472 1.67487 0
M  V30 2438 C 247.008 -0.223241 1.87476 0
M  V30 2439 O 246.365 -1.14828 1.41847 0
M  V30 2440 C 246.416 1.93394 3.05419 0
M  V30 2441 O 246.137 3.31576 2.86337 0
M  V30 2442 C 247.638 1.91414 3.99844 0
M  V30 2443 H 244.858 0.420604 0.522813 0
M  V30 2444 H 247.402 1.7158 1.11268 0
M  V30 2445 H 245.557 1.47099 3.58386 0
M  V30 2446 H 245.971 3.67929 3.73802 0
M  V30 2447 H 247.445 2.46285 4.94012 0
M  V30 2448 H 247.922 0.891833 4.3005 0
M  V30 2449 H 248.528 2.37496 3.52811 0
M  V30 2450 N 246.843 -1.10192 1.12674 0
M  V30 2451 C 247.791 -2.18694 0.792196 0
M  V30 2452 C 248.785 -1.67938 -0.222058 0
M  V30 2453 O 249.991 -1.79822 -0.0800074 0
M  V30 2454 H 246.366 -0.713223 0.238364 0
M  V30 2455 H 248.337 -2.44149 1.71564 0
M  V30 2456 C 247.086 -3.46682 0.265859 0
M  V30 2457 H 246.409 -3.86101 1.03761 0
M  V30 2458 H 247.849 -4.23942 0.0701128 0
M  V30 2459 C 246.308 -3.21506 -1.00675 0
M  V30 2460 O 246.838 -3.43408 -2.08408 0
M  V30 2461 N 245.044 -2.75158 -0.934692 0
M  V30 2462 H 244.591 -2.57535 -0.0578604 0
M  V30 2463 H 244.549 -2.58691 -1.7868 0
M  V30 2464 N 248.321 -0.919034 -1.28029 0
M  V30 2465 C 249.284 -0.416182 -2.2539 0
M  V30 2466 C 250.284 0.460438 -1.54067 0
M  V30 2467 O 251.474 0.262744 -1.72207 0
M  V30 2468 C 248.606 0.402707 -3.38513 0
M  V30 2469 H 249.799 -1.27629 -2.71387 0
M  V30 2470 H 247.352 -0.698919 -1.39803 0
M  V30 2471 H 248.087 1.282 -2.97885 0
M  V30 2472 H 247.872 -0.225698 -3.9145 0
M  V30 2473 H 249.362 0.745191 -4.10897 0
M  V30 2474 N 249.799 1.42003 -0.683588 0
M  V30 2475 C 251.027 2.05746 -0.218182 0
M  V30 2476 C 251.442 1.51396 1.12804 0
M  V30 2477 O 250.799 0.657303 1.70252 0
M  V30 2478 C 250.85 3.61171 -0.154131 0
M  V30 2479 O 250.571 4.13508 -1.44716 0
M  V30 2480 C 252.072 4.42042 0.333713 0
M  V30 2481 H 249.292 0.662888 -0.10402 0
M  V30 2482 H 251.836 1.81987 -0.9328 0
M  V30 2483 H 249.991 3.84012 0.511231 0
M  V30 2484 H 250.405 5.07453 -1.32632 0
M  V30 2485 H 251.879 5.51028 0.327423 0
M  V30 2486 H 252.356 4.17269 1.37053 0
M  V30 2487 H 252.962 4.24239 -0.300222 0
M  V30 2488 N 251.277 0.427512 1.51691 0
M  V30 2489 C 252.505 -0.141191 2.06418 0
M  V30 2490 C 252.92 -1.37303 1.29589 0
M  V30 2491 O 252.277 -1.79059 0.352732 0
M  V30 2492 C 252.328 -0.473266 3.58389 0
M  V30 2493 O 252.049 0.709673 4.32314 0
M  V30 2494 C 253.55 -1.09371 4.29596 0
M  V30 2495 H 250.77 -0.0122747 0.670888 0
M  V30 2496 H 253.314 0.603764 1.95384 0
M  V30 2497 H 251.469 -1.16812 3.69369 0
M  V30 2498 H 251.883 0.42807 5.2275 0
M  V30 2499 H 253.357 -1.27613 5.37046 0
M  V30 2500 H 253.834 -2.072 3.87253 0
M  V30 2501 H 254.44 -0.43853 4.23033 0
M  V30 2502 N 252.755 -1.56801 0.158532 0
M  V30 2503 C 254.004 -1.95665 -0.489702 0
M  V30 2504 C 254.317 -1.04654 -1.65248 0
M  V30 2505 O 255.523 -1.33146 -2.3661 0
M  V30 2506 C 253.979 -3.47874 -0.922582 0
M  V30 2507 C 253.587 -4.47489 0.213893 0
M  V30 2508 C 255.331 -3.95583 -1.53996 0
M  V30 2509 C 253.238 -5.90921 -0.237903 0
M  V30 2510 H 252.168 -0.730516 -0.186716 0
M  V30 2511 H 254.819 -1.81861 0.244722 0
M  V30 2512 H 253.201 -3.57051 -1.71261 0
M  V30 2513 H 254.375 -4.50017 0.991036 0
M  V30 2514 H 252.69 -4.09764 0.740407 0
M  V30 2515 H 255.287 -5.0019 -1.8898 0
M  V30 2516 H 255.63 -3.37789 -2.43319 0
M  V30 2517 H 256.163 -3.8937 -0.814611 0
M  V30 2518 H 252.902 -6.52559 0.620236 0
M  V30 2519 H 252.422 -5.91729 -0.980676 0
M  V30 2520 H 254.101 -6.43352 -0.686067 0
M  V30 2521 N 254.233 0.115231 -1.57178 0
M  V30 2522 C 255.461 0.836437 -1.89239 0
M  V30 2523 C 255.876 1.73256 -0.750175 0
M  V30 2524 O 255.233 1.80357 0.278832 0
M  V30 2525 C 255.284 1.66671 -3.20785 0
M  V30 2526 O 255.005 0.806652 -4.3061 0
M  V30 2527 C 256.506 2.49274 -3.66575 0
M  V30 2528 H 253.726 0.240253 -0.626514 0
M  V30 2529 H 256.27 0.0984932 -2.04263 0
M  V30 2530 H 254.425 2.35737 -3.0742 0
M  V30 2531 H 254.839 1.37969 -5.06028 0
M  V30 2532 H 256.313 3.03055 -4.6137 0
M  V30 2533 H 256.79 3.26807 -2.93417 0
M  V30 2534 H 257.396 1.85443 -3.82741 0
M  V30 2535 N 255.711 1.52812 0.385517 0
M  V30 2536 C 257.122 1.5993 0.963293 0
M  V30 2537 C 257.473 0.454302 1.90868 0
M  V30 2538 O 256.598 -0.422132 2.12243 0
M  V30 2539 C 257.193 2.89871 1.75387 0
M  V30 2540 C 255.752 2.99389 2.28129 0
M  V30 2541 C 254.899 2.55071 1.08783 0
M  V30 2542 H 257.85 1.5784 0.164948 0
M  V30 2543 H 257.871 2.76553 2.61341 0
M  V30 2544 H 257.383 3.73186 1.06554 0
M  V30 2545 H 255.484 2.20619 3.00263 0
M  V30 2546 H 255.597 4.04096 2.57377 0
M  V30 2547 H 253.961 2.09473 1.4489 0
M  V30 2548 H 254.744 3.40785 0.414807 0
M  V30 2549 N 257.189 -0.644168 1.43834 0
M  V30 2550 C 258.437 -1.40117 1.45642 0
M  V30 2551 C 258.758 -1.94814 0.0852413 0
M  V30 2552 O 258.028 -1.74988 -0.880688 0
M  V30 2553 H 256.608 -0.52005 0.536243 0
M  V30 2554 H 259.27 -0.7591 1.7951 0
M  V30 2555 H 258.366 -2.23902 2.17427 0
M  V30 2556 N 258.668 -1.30515 -0.883378 0
M  V30 2557 C 260.084 -1.08881 -1.16692 0
M  V30 2558 C 260.284 0.149409 -2.00945 0
M  V30 2559 O 259.34 0.84257 -2.38027 0
M  V30 2560 C 260.653 -2.35319 -1.87204 0
M  V30 2561 C 262.201 -2.40799 -1.99962 0
M  V30 2562 C 262.676 -3.67083 -2.73887 0
M  V30 2563 N 264.167 -3.679 -2.81432 0
M  V30 2564 C 264.902 -4.62303 -3.3921 0
M  V30 2565 N 264.398 -5.67052 -3.98025 0
M  V30 2566 N 266.191 -4.49845 -3.3704 0
M  V30 2567 H 258.342 -2.09951 -0.321633 0
M  V30 2568 H 260.605 -0.92556 -0.205043 0
M  V30 2569 H 260.311 -3.25689 -1.3274 0
M  V30 2570 H 260.185 -2.44089 -2.87577 0
M  V30 2571 H 262.572 -1.50907 -2.53597 0
M  V30 2572 H 262.653 -2.36003 -0.98673 0
M  V30 2573 H 262.297 -4.57334 -2.20925 0
M  V30 2574 H 262.227 -3.69141 -3.75556 0
M  V30 2575 H 264.718 -2.92171 -2.39676 0
M  V30 2576 H 265.031 -6.35184 -4.40183 0
M  V30 2577 H 263.376 -5.70842 -3.96439 0
M  V30 2578 H 266.567 -3.67194 -2.90321 0
M  V30 2579 H 266.74 -5.23597 -3.81772 0
M  V30 2580 N 260.146 1.09593 -1.13257 0
M  V30 2581 C 261.562 1.33775 -0.870423 0
M  V30 2582 C 261.762 1.95327 0.494926 0
M  V30 2583 O 260.818 2.19853 1.2418 0
M  V30 2584 C 262.131 2.25106 -1.99369 0
M  V30 2585 C 263.679 2.3862 -2.02558 0
M  V30 2586 C 264.154 3.33285 -3.14142 0
M  V30 2587 N 265.645 3.40857 -3.13641 0
M  V30 2588 C 266.38 4.14101 -3.96621 0
M  V30 2589 N 265.876 4.90157 -4.8961 0
M  V30 2590 N 267.669 4.09808 -3.84726 0
M  V30 2591 H 259.82 0.680136 -2.01216 0
M  V30 2592 H 262.083 0.362133 -0.876107 0
M  V30 2593 H 261.789 1.87103 -2.97801 0
M  V30 2594 H 261.663 3.25481 -1.90635 0
M  V30 2595 H 264.05 2.75887 -1.0474 0
M  V30 2596 H 264.131 1.38028 -2.15364 0
M  V30 2597 H 263.775 2.96741 -4.12198 0
M  V30 2598 H 263.705 4.33776 -2.98574 0
M  V30 2599 H 266.196 2.86624 -2.46282 0
M  V30 2600 H 266.509 5.4347 -5.49418 0
M  V30 2601 H 264.854 4.89251 -4.93617 0
M  V30 2602 H 268.045 3.4949 -3.11408 0
M  V30 2603 H 268.218 4.66629 -4.49623 0
M  V30 2604 N 261.624 0.925811 1.2754 0
M  V30 2605 C 262.572 0.413897 2.28888 0
M  V30 2606 C 263.566 -0.500779 1.61829 0
M  V30 2607 O 264.772 -0.38069 1.75928 0
M  V30 2608 H 261.147 0.115274 0.743112 0
M  V30 2609 H 263.118 1.28151 2.69481 0
M  V30 2610 C 261.867 -0.319792 3.46226 0
M  V30 2611 H 261.19 0.374846 3.98039 0
M  V30 2612 H 262.63 -0.642435 4.19105 0
M  V30 2613 C 261.089 -1.53209 3.00048 0
M  V30 2614 O 261.619 -2.6309 3.03557 0
M  V30 2615 N 259.825 -1.38326 2.55566 0
M  V30 2616 H 259.372 -0.489292 2.5291 0
M  V30 2617 H 259.33 -2.19564 2.25031 0
M  V30 2618 N 263.102 -1.41638 0.69111 0
M  V30 2619 C 264.032 -2.3347 0.037248 0
M  V30 2620 C 265.013 -1.51575 -0.771947 0
M  V30 2621 O 266.198 -1.80126 -0.72582 0
M  V30 2622 C 263.328 -3.35354 -0.903064 0
M  V30 2623 C 262.282 -4.27526 -0.201288 0
M  V30 2624 C 261.608 -5.19747 -1.25565 0
M  V30 2625 C 262.908 -5.13959 0.929689 0
M  V30 2626 H 264.602 -2.88397 0.804227 0
M  V30 2627 H 262.148 -1.38669 0.388189 0
M  V30 2628 H 264.101 -3.98519 -1.36969 0
M  V30 2629 H 262.825 -2.78767 -1.70166 0
M  V30 2630 H 261.484 -3.65779 0.245265 0
M  V30 2631 H 261.132 -4.59479 -2.04666 0
M  V30 2632 H 260.832 -5.8225 -0.791128 0
M  V30 2633 H 262.356 -5.85789 -1.72288 0
M  V30 2634 H 263.77 -5.70718 0.543546 0
M  V30 2635 H 262.167 -5.85379 1.32103 0
M  V30 2636 H 263.237 -4.51389 1.77133 0
M  V30 2637 N 264.58 -0.43555 -1.51462 0
M  V30 2638 C 265.527 0.376797 -2.27703 0
M  V30 2639 C 266.497 1.01838 -1.31219 0
M  V30 2640 O 267.682 1.03762 -1.60119 0
M  V30 2641 C 264.822 1.47301 -3.12084 0
M  V30 2642 C 263.935 0.849744 -4.2356 0
M  V30 2643 C 263.07 1.92086 -4.95254 0
M  V30 2644 C 262.109 1.27593 -5.98654 0
M  V30 2645 N 261.246 2.28833 -6.63762 0
M  V30 2646 H 266.086 -0.279734 -2.96684 0
M  V30 2647 H 263.623 -0.149795 -1.46335 0
M  V30 2648 H 265.581 2.11984 -3.59331 0
M  V30 2649 H 264.211 2.0992 -2.45221 0
M  V30 2650 H 263.263 0.0912529 -3.80291 0
M  V30 2651 H 264.575 0.338878 -4.97648 0
M  V30 2652 H 263.729 2.64435 -5.46039 0
M  V30 2653 H 262.468 2.46545 -4.20793 0
M  V30 2654 H 261.473 0.537893 -5.47162 0
M  V30 2655 H 262.698 0.738693 -6.7507 0
M  V30 2656 H 260.644 2.82375 -5.92115 0
M  V30 2657 H 260.561 1.82632 -7.33608 0
M  V30 2658 H 261.829 3.00671 -7.19178 0
M  V30 2659 N 266.058 1.56714 -0.166846 0
M  V30 2660 C 267.304 1.97813 0.473473 0
M  V30 2661 C 267.659 1.05095 1.61161 0
M  V30 2662 O 266.952 0.0897541 1.9139 0
M  V30 2663 C 267.146 3.42889 1.00806 0
M  V30 2664 C 266.975 4.49635 -0.0767392 0
M  V30 2665 C 265.745 5.02566 -0.524894 0
M  V30 2666 C 267.943 5.06793 -0.875504 0
M  V30 2667 N 265.925 5.9294 -1.59047 0
M  V30 2668 C 267.296 5.93565 -1.79111 0
M  V30 2669 C 269.351 4.89306 -0.921083 0
M  V30 2670 C 268.054 6.64721 -2.74843 0
M  V30 2671 C 270.08 5.61179 -1.86633 0
M  V30 2672 C 269.442 6.47675 -2.76942 0
M  V30 2673 H 265.541 0.769093 0.141489 0
M  V30 2674 H 268.125 1.92874 -0.266031 0
M  V30 2675 H 266.296 3.48382 1.7171 0
M  V30 2676 H 268.028 3.71008 1.61664 0
M  V30 2677 H 264.783 4.73439 -0.123432 0
M  V30 2678 H 265.207 6.42831 -2.12361 0
M  V30 2679 H 269.849 4.22136 -0.23692 0
M  V30 2680 H 267.567 7.31107 -3.44249 0
M  V30 2681 H 271.153 5.49636 -1.90764 0
M  V30 2682 H 270.033 7.02313 -3.48893 0
M  V30 2683 N 267.536 -0.106894 1.57237 0
M  V30 2684 C 268.469 -1.16125 1.96444 0
M  V30 2685 C 269.447 -1.3947 0.835871 0
M  V30 2686 O 270.631 -1.53425 1.09513 0
M  V30 2687 C 267.758 -2.51277 2.27107 0
M  V30 2688 C 266.804 -2.44285 3.4961 0
M  V30 2689 S 267.637 -1.87077 5.01759 0
M  V30 2690 C 268.793 -3.23877 5.35588 0
M  V30 2691 H 269.026 -0.826971 2.85567 0
M  V30 2692 H 266.559 -0.314124 1.51171 0
M  V30 2693 H 268.517 -3.29035 2.45451 0
M  V30 2694 H 267.178 -2.81879 1.38576 0
M  V30 2695 H 266.371 -3.4387 3.68469 0
M  V30 2696 H 265.973 -1.74652 3.30715 0
M  V30 2697 H 268.265 -4.20122 5.31511 0
M  V30 2698 H 269.208 -3.09833 6.36717 0
M  V30 2699 H 269.616 -3.22864 4.63054 0
M  V30 2700 N 269.014 -1.53014 -0.377408 0
M  V30 2701 C 269.944 -1.81589 -1.46791 0
M  V30 2702 C 270.925 -0.668622 -1.56408 0
M  V30 2703 O 272.11 -0.917337 -1.71168 0
M  V30 2704 C 269.24 -1.99519 -2.8427 0
M  V30 2705 C 268.194 -3.15249 -2.89486 0
M  V30 2706 C 267.52 -3.18451 -4.29527 0
M  V30 2707 C 268.82 -4.54084 -2.58079 0
M  V30 2708 H 270.514 -2.7291 -1.23127 0
M  V30 2709 H 268.06 -1.31319 -0.590883 0
M  V30 2710 H 270.013 -2.18092 -3.60575 0
M  V30 2711 H 268.737 -1.04897 -3.09296 0
M  V30 2712 H 267.396 -2.96477 -2.15631 0
M  V30 2713 H 267.044 -2.2149 -4.5161 0
M  V30 2714 H 266.744 -3.962 -4.33934 0
M  V30 2715 H 268.268 -3.39193 -5.07721 0
M  V30 2716 H 269.682 -4.72899 -3.24098 0
M  V30 2717 H 268.079 -5.33987 -2.7382 0
M  V30 2718 H 269.149 -4.60006 -1.53372 0
M  V30 2719 N 270.492 0.636531 -1.44174 0
M  V30 2720 C 271.908 0.954104 -1.27941 0
M  V30 2721 C 272.108 2.0039 -0.211248 0
M  V30 2722 O 271.164 2.49236 0.404695 0
M  V30 2723 C 272.477 1.4225 -2.64925 0
M  V30 2724 C 274.025 1.53827 -2.72592 0
M  V30 2725 C 274.5 2.04053 -4.10032 0
M  V30 2726 N 275.991 2.11331 -4.12182 0
M  V30 2727 C 276.726 2.51352 -5.15374 0
M  V30 2728 N 276.222 2.90549 -6.2893 0
M  V30 2729 N 278.015 2.51438 -5.02728 0
M  V30 2730 H 270.166 -0.0578386 -2.12321 0
M  V30 2731 H 272.429 0.0367406 -0.947288 0
M  V30 2732 H 272.135 0.725466 -3.44136 0
M  V30 2733 H 272.009 2.39451 -2.9145 0
M  V30 2734 H 274.396 2.22628 -1.93702 0
M  V30 2735 H 274.477 0.550154 -2.49814 0
M  V30 2736 H 274.121 1.35848 -4.89395 0
M  V30 2737 H 274.051 3.03726 -4.30184 0
M  V30 2738 H 276.542 1.83745 -3.30222 0
M  V30 2739 H 276.855 3.19884 -7.03487 0
M  V30 2740 H 275.2 2.88313 -6.32377 0
M  V30 2741 H 278.391 2.20203 -4.13072 0
M  V30 2742 H 278.564 2.82304 -5.83274 0
M  V30 2743 N 271.97 1.30982 0.876444 0
M  V30 2744 C 272.933 1.18054 1.96459 0
M  V30 2745 C 273.933 0.109399 1.60427 0
M  V30 2746 O 275.123 0.358173 1.70478 0
M  V30 2747 C 272.255 0.810616 3.31122 0
M  V30 2748 H 273.448 2.14735 2.09354 0
M  V30 2749 H 271.001 1.145 1.06392 0
M  V30 2750 H 271.736 -0.155322 3.23928 0
M  V30 2751 H 271.521 1.58481 3.58645 0
M  V30 2752 H 273.011 0.743876 4.10921 0
M  V30 2753 N 273.449 -1.08991 1.13837 0
M  V30 2754 C 274.412 -2.13925 0.822715 0
M  V30 2755 C 275.412 -1.599 -0.1699 0
M  V30 2756 O 276.602 -1.74104 0.0577251 0
M  V30 2757 C 273.734 -3.40155 0.225318 0
M  V30 2758 H 274.927 -2.43358 1.75262 0
M  V30 2759 H 272.48 -1.24603 0.943594 0
M  V30 2760 H 273.215 -3.16352 -0.713594 0
M  V30 2761 H 273 -3.80661 0.940193 0
M  V30 2762 H 274.49 -4.17594 0.0214784 0
M  V30 2763 N 274.927 -0.932562 -1.27047 0
M  V30 2764 C 275.837 -0.441219 -2.30414 0
M  V30 2765 C 276.853 0.480525 -1.67233 0
M  V30 2766 O 278.029 0.362151 -1.98117 0
M  V30 2767 C 275.094 0.293651 -3.45454 0
M  V30 2768 C 274.155 -0.663601 -4.2414 0
M  V30 2769 C 273.388 0.0362932 -5.33688 0
M  V30 2770 O 273.611 1.2548 -5.56427 0
M  V30 2771 O 272.545 -0.638015 -5.98509 0
M  V30 2772 H 276.371 -1.29962 -2.74488 0
M  V30 2773 H 273.956 -0.6981 -1.32087 0
M  V30 2774 H 275.838 0.707951 -4.15411 0
M  V30 2775 H 274.513 1.12758 -3.03426 0
M  V30 2776 H 273.42 -1.12768 -3.56699 0
M  V30 2777 H 274.753 -1.46489 -4.69896 0
M  V30 2778 N 276.405 1.4127 -0.698611 0
M  V30 2779 C 277.315 2.34573 -0.0357891 0
M  V30 2780 C 278.331 1.56393 0.762701 0
M  V30 2781 O 279.507 1.8886 0.699564 0
M  V30 2782 C 276.572 3.35159 0.887089 0
M  V30 2783 C 275.633 4.29225 0.0804634 0
M  V30 2784 C 274.866 5.25006 0.959387 0
M  V30 2785 O 275.089 5.26314 2.19886 0
M  V30 2786 O 274.023 6.00519 0.407439 0
M  V30 2787 H 277.849 2.92838 -0.804957 0
M  V30 2788 H 275.434 1.42175 -0.458966 0
M  V30 2789 H 277.316 3.9689 1.41621 0
M  V30 2790 H 275.991 2.79333 1.6357 0
M  V30 2791 H 274.898 3.70833 -0.493328 0
M  V30 2792 H 276.231 4.88157 -0.629547 0
M  V30 2793 N 277.883 0.443576 1.51229 0
M  V30 2794 C 279.113 -0.119117 2.06256 0
M  V30 2795 C 279.521 -1.36471 1.31043 0
M  V30 2796 O 278.864 -1.80034 0.365151 0
M  V30 2797 C 278.926 -0.500546 3.55998 0
M  V30 2798 C 278.59 0.639125 4.52509 0
M  V30 2799 C 279.587 1.51311 4.97394 0
M  V30 2800 C 277.272 0.821632 4.95535 0
M  V30 2801 C 279.266 2.55425 5.83984 0
M  V30 2802 C 276.953 1.86603 5.81913 0
M  V30 2803 C 277.951 2.73072 6.26036 0
M  V30 2804 O 277.639 3.75718 7.10698 0
M  V30 2805 H 277.371 -0.00857665 0.675946 0
M  V30 2806 H 279.925 0.623288 1.95715 0
M  V30 2807 H 278.155 -1.29575 3.64345 0
M  V30 2808 H 279.844 -0.995116 3.93513 0
M  V30 2809 H 280.61 1.38367 4.64844 0
M  V30 2810 H 276.489 0.158149 4.60729 0
M  V30 2811 H 280.033 3.22949 6.18344 0
M  V30 2812 H 275.93 1.99564 6.13876 0
M  V30 2813 H 276.698 3.72374 7.2889 0
M  V30 2814 N 279.361 -1.56624 0.175154 0
M  V30 2815 C 280.586 -2.01813 -0.478137 0
M  V30 2816 C 281.011 -1.05457 -1.55757 0
M  V30 2817 O 280.369 -0.0347439 -1.81267 0
M  V30 2818 C 280.417 -3.45581 -1.02987 0
M  V30 2819 O 279.521 -3.52305 -2.14371 0
M  V30 2820 H 278.862 -0.65413 -0.114059 0
M  V30 2821 H 281.392 -2.02673 0.280173 0
M  V30 2822 H 281.402 -3.84965 -1.35151 0
M  V30 2823 H 280.077 -4.1521 -0.239556 0
M  V30 2824 H 278.654 -3.24783 -1.83222 0
M  V30 2825 N 280.839 0.0985539 -1.57292 0
M  V30 2826 C 281.772 1.15082 -1.97057 0
M  V30 2827 C 282.75 1.39025 -0.843255 0
M  V30 2828 O 283.934 1.52842 -1.10325 0
M  V30 2829 C 281.061 2.50069 -2.28437 0
M  V30 2830 C 280.107 2.42428 -3.509 0
M  V30 2831 S 280.94 1.84414 -5.02744 0
M  V30 2832 C 282.096 3.21032 -5.37298 0
M  V30 2833 H 282.329 0.811815 -2.86002 0
M  V30 2834 H 279.862 0.306102 -1.51335 0
M  V30 2835 H 281.82 3.27729 -2.47192 0
M  V30 2836 H 280.481 2.8114 -1.40069 0
M  V30 2837 H 279.674 3.41911 -3.70288 0
M  V30 2838 H 279.276 1.72896 -3.31637 0
M  V30 2839 H 281.568 4.17297 -5.33731 0
M  V30 2840 H 282.511 3.06452 -6.38352 0
M  V30 2841 H 282.919 3.20404 -4.64759 0
M  V30 2842 N 282.317 1.53212 0.369288 0
M  V30 2843 C 283.265 1.80054 1.47253 0
M  V30 2844 C 284.259 0.669456 1.55611 0
M  V30 2845 O 285.465 0.852328 1.58541 0
M  V30 2846 H 281.84 0.570034 0.490475 0
M  V30 2847 H 283.811 2.72403 1.21817 0
M  V30 2848 C 282.56 2.00403 2.84137 0
M  V30 2849 H 281.883 2.86876 2.78464 0
M  V30 2850 H 283.323 2.23164 3.60519 0
M  V30 2851 C 281.782 0.782081 3.27697 0
M  V30 2852 O 282.312 -0.0310205 4.01688 0
M  V30 2853 N 280.518 0.606573 2.84199 0
M  V30 2854 H 280.065 1.26939 2.24152 0
M  V30 2855 H 280.023 -0.20962 3.137 0
M  V30 2856 N 283.795 -0.628877 1.44509 0
M  V30 2857 C 284.725 -1.75187 1.54376 0
M  V30 2858 C 285.706 -1.65411 0.396618 0
M  V30 2859 O 286.891 -1.84137 0.617031 0
M  V30 2860 C 284.021 -3.13725 1.48976 0
M  V30 2861 C 282.975 -3.38291 2.62189 0
M  V30 2862 C 282.301 -4.76883 2.41841 0
M  V30 2863 C 283.601 -3.30632 4.04326 0
M  V30 2864 H 285.295 -1.67187 2.48373 0
M  V30 2865 H 282.841 -0.802909 1.19538 0
M  V30 2866 H 284.794 -3.92064 1.54478 0
M  V30 2867 H 283.518 -3.22515 0.514961 0
M  V30 2868 H 282.177 -2.62334 2.56079 0
M  V30 2869 H 281.825 -4.82378 1.42548 0
M  V30 2870 H 281.525 -4.94278 3.17747 0
M  V30 2871 H 283.049 -5.57449 2.49165 0
M  V30 2872 H 284.463 -3.98873 4.11793 0
M  V30 2873 H 282.86 -3.59561 4.80454 0
M  V30 2874 H 283.93 -2.28404 4.27738 0
M  V30 2875 N 285.273 -1.31445 -0.869486 0
M  V30 2876 C 286.521 -1.20918 -1.61936 0
M  V30 2877 C 286.842 0.232683 -1.93607 0
M  V30 2878 O 286.112 1.15352 -1.58338 0
M  V30 2879 H 284.692 -0.44454 -0.600328 0
M  V30 2880 H 287.354 -1.64776 -1.0409 0
M  V30 2881 H 286.45 -1.78124 -2.56278 0
M  V30 2882 N 286.751 1.08385 -1.14413 0
M  V30 2883 C 287.998 1.80776 -0.912482 0
M  V30 2884 C 288.326 1.86236 0.560934 0
M  V30 2885 O 287.581 1.33431 1.43159 0
M  V30 2886 C 287.88 3.26273 -1.45879 0
M  V30 2887 C 287.546 3.4093 -2.95089 0
M  V30 2888 C 286.208 3.44638 -3.35824 0
M  V30 2889 C 288.56 3.44591 -3.91033 0
M  V30 2890 C 285.888 3.49597 -4.71167 0
M  V30 2891 C 288.24 3.51086 -5.26233 0
M  V30 2892 C 286.904 3.53067 -5.6648 0
M  V30 2893 H 286.174 0.661507 -0.333901 0
M  V30 2894 H 288.821 1.27613 -1.42784 0
M  V30 2895 H 287.126 3.82146 -0.864376 0
M  V30 2896 H 288.823 3.80839 -1.2555 0
M  V30 2897 H 285.413 3.38736 -2.62594 0
M  V30 2898 H 289.597 3.40957 -3.60641 0
M  V30 2899 H 284.853 3.49424 -5.0171 0
M  V30 2900 H 289.027 3.52864 -6.00383 0
M  V30 2901 H 286.654 3.56662 -6.71339 0
M  V30 2902 N 288.23 0.939286 1.26551 0
M  V30 2903 C 289.16 0.465044 2.28822 0
M  V30 2904 C 290.141 -0.480692 1.63167 0
M  V30 2905 O 291.326 -0.382955 1.90387 0
M  V30 2906 C 288.456 -0.27234 3.46231 0
M  V30 2907 C 287.41 0.58666 4.2396 0
M  V30 2908 C 286.736 -0.280573 5.33963 0
M  V30 2909 C 288.036 1.85704 4.88171 0
M  V30 2910 H 289.73 1.31979 2.68741 0
M  V30 2911 H 287.276 0.636061 1.29191 0
M  V30 2912 H 289.229 -0.615133 4.16886 0
M  V30 2913 H 287.953 -1.16121 3.0526 0
M  V30 2914 H 286.612 0.91232 3.55067 0
M  V30 2915 H 286.26 -1.16874 4.89234 0
M  V30 2916 H 285.96 0.29076 5.8688 0
M  V30 2917 H 287.484 -0.618678 6.07458 0
M  V30 2918 H 288.898 1.58161 5.51052 0
M  V30 2919 H 287.295 2.37279 5.51197 0
M  V30 2920 H 288.365 2.56957 4.11219 0
M  V30 2921 N 289.708 -1.40897 0.706093 0
M  V30 2922 C 290.671 -2.29131 0.0562841 0
M  V30 2923 C 291.671 -1.44901 -0.697166 0
M  V30 2924 O 292.861 -1.65926 -0.530484 0
M  V30 2925 C 289.993 -3.27957 -0.93043 0
M  V30 2926 H 291.186 -2.88091 0.833284 0
M  V30 2927 H 288.739 -1.4906 0.470192 0
M  V30 2928 H 289.474 -2.73997 -1.73482 0
M  V30 2929 H 289.259 -3.90124 -0.393166 0
M  V30 2930 H 290.749 -3.94049 -1.38256 0
M  V30 2931 N 291.186 -0.45159 -1.50991 0
M  V30 2932 C 292.133 0.352625 -2.2809 0
M  V30 2933 C 293.103 1.0044 -1.32291 0
M  V30 2934 O 294.288 1.02058 -1.6121 0
M  V30 2935 C 291.428 1.43983 -3.13629 0
M  V30 2936 C 290.541 0.804772 -4.24438 0
M  V30 2937 C 289.676 1.86822 -4.97263 0
M  V30 2938 C 288.715 1.21236 -5.99973 0
M  V30 2939 N 287.852 2.2178 -6.66152 0
M  V30 2940 H 292.692 -0.311186 -2.96371 0
M  V30 2941 H 290.229 -0.165308 -1.46168 0
M  V30 2942 H 292.187 2.08161 -3.61559 0
M  V30 2943 H 290.817 2.07307 -2.47434 0
M  V30 2944 H 289.869 0.0509129 -3.80366 0
M  V30 2945 H 291.181 0.286076 -4.97979 0
M  V30 2946 H 290.335 2.58628 -5.48813 0
M  V30 2947 H 289.074 2.42068 -4.23385 0
M  V30 2948 H 288.079 0.479828 -5.47702 0
M  V30 2949 H 289.304 0.667051 -6.75816 0
M  V30 2950 H 287.25 2.76079 -5.95077 0
M  V30 2951 H 287.167 1.74841 -7.35504 0
M  V30 2952 H 288.435 2.93026 -7.22327 0
M  V30 2953 N 292.664 1.56529 -0.183458 0
M  V30 2954 C 293.912 1.96855 0.457452 0
M  V30 2955 C 294.233 1.07104 1.62953 0
M  V30 2956 O 293.503 0.139887 1.954 0
M  V30 2957 H 292.083 0.72693 0.171992 0
M  V30 2958 H 294.745 1.93056 -0.267476 0
M  V30 2959 H 293.841 3.01423 0.809368 0
M  V30 2960 N 294.142 -0.090211 1.57342 0
M  V30 2961 C 295.09 -1.12792 2.03422 0
M  V30 2962 C 296.084 -1.41182 0.936166 0
M  V30 2963 O 297.29 -1.40805 1.12133 0
M  V30 2964 H 293.665 -0.380986 0.648347 0
M  V30 2965 H 295.636 -0.71299 2.89757 0
M  V30 2966 C 294.385 -2.43855 2.47851 0
M  V30 2967 H 293.708 -2.22855 3.31927 0
M  V30 2968 H 295.148 -3.14955 2.83865 0
M  V30 2969 C 293.607 -3.08503 1.3538 0
M  V30 2970 O 294.137 -3.95805 0.685641 0
M  V30 2971 N 292.343 -2.68831 1.10355 0
M  V30 2972 H 291.89 -1.97929 1.64869 0
M  V30 2973 H 291.848 -3.12412 0.353031 0
M  V30 2974 N 295.62 -1.53406 -0.361157 0
M  V30 2975 C 296.583 -1.79479 -1.42548 0
M  V30 2976 C 297.583 -0.665327 -1.4639 0
M  V30 2977 O 298.773 -0.933549 -1.47073 0
M  V30 2978 C 295.905 -1.92087 -2.8163 0
M  V30 2979 H 297.098 -2.74538 -1.20701 0
M  V30 2980 H 294.651 -1.4455 -0.594546 0
M  V30 2981 H 295.386 -0.991099 -3.08784 0
M  V30 2982 H 295.171 -2.74241 -2.80239 0
M  V30 2983 H 296.661 -2.13836 -3.58697 0
M  V30 2984 N 297.098 0.621204 -1.44841 0
M  V30 2985 C 298.323 1.41244 -1.51871 0
M  V30 2986 C 298.748 1.87519 -0.147764 0
M  V30 2987 O 298.106 1.59334 0.865 0
M  V30 2988 C 298.154 2.60221 -2.49634 0
M  V30 2989 O 297.258 3.60395 -2.00473 0
M  V30 2990 H 296.599 0.42223 -0.512463 0
M  V30 2991 H 299.129 0.757305 -1.90069 0
M  V30 2992 H 299.139 3.0764 -2.67996 0
M  V30 2993 H 297.814 2.25887 -3.4921 0
M  V30 2994 H 296.391 3.19717 -1.91925 0
M  V30 2995 N 298.576 1.31904 0.862503 0
M  V30 2996 C 299.524 1.20125 1.9918 0
M  V30 2997 C 300.518 0.107824 1.69056 0
M  V30 2998 O 301.724 0.270223 1.7796 0
M  V30 2999 H 298.099 0.372148 0.65346 0
M  V30 3000 H 300.07 2.15652 2.06244 0
M  V30 3001 C 298.819 0.933099 3.34946 0
M  V30 3002 H 298.142 1.76664 3.5865 0
M  V30 3003 H 299.582 0.890892 4.14535 0
M  V30 3004 C 298.041 -0.364172 3.34926 0
M  V30 3005 O 298.571 -1.37858 3.77304 0
M  V30 3006 N 296.777 -0.383362 2.8806 0
M  V30 3007 H 296.324 0.442651 2.53768 0
M  V30 3008 H 296.282 -1.25123 2.8843 0
M  V30 3009 N 300.054 -1.07777 1.14986 0
M  V30 3010 C 301.331 -1.7699 0.832695 0
M  V30 3011 C 301.711 -2.001 -0.672561 0
M  V30 3012 O 301.059 -1.61598 -1.6155 0
M  V30 3013 C 301.269 -3.08139 1.63863 0
M  V30 3014 C 302.617 -3.8256 1.84208 0
M  V30 3015 O 303.641 -3.17939 1.60603 0
M  V30 3016 O 302.5 -4.98612 2.23714 0
M  V30 3017 H 299.594 -0.768389 0.305791 0
M  V30 3018 H 302.14 -1.14182 1.25541 0
M  V30 3019 H 300.912 -2.86909 2.6608 0
M  V30 3020 H 300.535 -3.78678 1.21197 0
M  V30 3021 N 301.532 -0.945985 -1.26051 0
M  V30 3022 C 302.495 -0.463897 -2.24456 0
M  V30 3023 C 303.495 0.427655 -1.55009 0
M  V30 3024 O 304.685 0.226157 -1.72726 0
M  V30 3025 C 301.817 0.330812 -3.39291 0
M  V30 3026 H 303.01 -1.33357 -2.68619 0
M  V30 3027 H 300.563 -0.728416 -1.38289 0
M  V30 3028 H 301.298 1.21852 -3.00537 0
M  V30 3029 H 301.083 -0.308679 -3.90883 0
M  V30 3030 H 302.573 0.657865 -4.12386 0
M  V30 3031 N 303.011 1.40521 -0.713556 0
M  V30 3032 C 304.236 2.05759 -0.26035 0
M  V30 3033 C 304.661 1.53403 1.08854 0
M  V30 3034 O 304.019 0.668535 1.68524 0
M  V30 3035 C 304.067 3.59745 -0.248122 0
M  V30 3036 O 303.171 4.05123 0.77131 0
M  V30 3037 H 302.512 0.652564 -0.122703 0
M  V30 3038 H 305.042 1.79958 -0.973467 0
M  V30 3039 H 305.052 4.07911 -0.0851129 0
M  V30 3040 H 303.727 3.97218 -1.2325 0
M  V30 3041 H 302.304 3.68422 0.57619 0
M  V30 3042 N 304.489 0.459591 1.5075 0
M  V30 3043 C 305.419 -0.330644 2.31147 0
M  V30 3044 C 306.4 -1.00087 1.37538 0
M  V30 3045 O 307.585 -1.00025 1.66459 0
M  V30 3046 C 304.715 -1.41958 3.16962 0
M  V30 3047 C 303.669 -0.871608 4.19031 0
M  V30 3048 C 302.995 -2.05797 4.9351 0
M  V30 3049 C 304.295 0.109251 5.22186 0
M  V30 3050 H 305.989 0.340336 2.97459 0
M  V30 3051 H 303.535 0.165119 1.4305 0
M  V30 3052 H 305.488 -1.9798 3.71997 0
M  V30 3053 H 304.212 -2.11917 2.48513 0
M  V30 3054 H 302.871 -0.333442 3.6508 0
M  V30 3055 H 302.519 -2.74427 4.21544 0
M  V30 3056 H 302.219 -1.6976 5.62544 0
M  V30 3057 H 303.743 -2.62331 5.51375 0
M  V30 3058 H 305.157 -0.361405 5.7216 0
M  V30 3059 H 303.554 0.383316 5.98875 0
M  V30 3060 H 304.624 1.03887 4.73641 0
M  V30 3061 N 305.967 -1.56429 0.191757 0
M  V30 3062 C 307.213 -1.97777 -0.448554 0
M  V30 3063 C 307.546 -1.07847 -1.61501 0
M  V30 3064 O 306.821 -0.129774 -1.94067 0
M  V30 3065 C 307.104 -3.48362 -0.911906 0
M  V30 3066 C 306.957 -4.4907 0.256136 0
M  V30 3067 C 308.276 -4.02561 -1.77857 0
M  V30 3068 H 305.395 -0.719071 -0.161572 0
M  V30 3069 H 308.037 -1.87896 0.282007 0
M  V30 3070 H 306.187 -3.56914 -1.53442 0
M  V30 3071 H 307.859 -4.5256 0.893733 0
M  V30 3072 H 306.102 -4.24181 0.908436 0
M  V30 3073 H 306.773 -5.51889 -0.11053 0
M  V30 3074 H 309.249 -3.96767 -1.25359 0
M  V30 3075 H 308.125 -5.08301 -2.07174 0
M  V30 3076 H 308.386 -3.47616 -2.73158 0
M  V30 3077 N 307.445 0.0818655 -1.57387 0
M  V30 3078 C 308.722 0.815343 -1.77796 0
M  V30 3079 C 309.102 1.96289 -0.77679 0
M  V30 3080 O 308.45 2.27691 0.192106 0
M  V30 3081 C 308.66 1.29765 -3.23978 0
M  V30 3082 C 310.008 1.7351 -3.8753 0
M  V30 3083 O 311.032 1.39356 -3.27808 0
M  V30 3084 O 309.891 2.36708 -4.92576 0
M  V30 3085 H 306.985 0.389914 -0.729312 0
M  V30 3086 H 309.531 0.0627213 -1.69584 0
M  V30 3087 H 308.303 0.47608 -3.88393 0
M  V30 3088 H 307.926 2.11189 -3.36875 0
M  V30 3089 N 308.923 1.53595 0.353017 0
M  V30 3090 C 309.855 1.77219 1.45348 0
M  V30 3091 C 310.868 0.65324 1.49119 0
M  V30 3092 O 312.057 0.929775 1.52373 0
M  V30 3093 C 309.157 1.84841 2.84055 0
M  V30 3094 C 308.33 3.14649 3.03833 0
M  V30 3095 C 307.389 3.13351 4.22727 0
M  V30 3096 O 306.415 3.87107 4.17297 0
M  V30 3097 N 307.617 2.35052 5.30783 0
M  V30 3098 H 310.382 2.72178 1.25457 0
M  V30 3099 H 307.943 1.52528 0.542833 0
M  V30 3100 H 309.935 1.81435 3.61751 0
M  V30 3101 H 308.505 0.971114 2.97133 0
M  V30 3102 H 307.725 3.31256 2.13689 0
M  V30 3103 H 309.013 4.00411 3.13925 0
M  V30 3104 H 308.411 1.74663 5.38061 0
M  V30 3105 H 306.968 2.37453 6.07009 0
M  V30 3106 N 310.401 -0.613514 1.45168 0
M  V30 3107 C 311.65 -1.36874 1.4815 0
M  V30 3108 C 311.963 -1.952 0.124982 0
M  V30 3109 O 313.169 -2.71481 0.0324176 0
M  V30 3110 C 311.625 -2.47905 2.60904 0
M  V30 3111 C 311.233 -1.96016 4.02842 0
M  V30 3112 C 312.977 -3.24965 2.73126 0
M  V30 3113 C 310.884 -3.04494 5.06988 0
M  V30 3114 H 309.814 -0.514428 0.551253 0
M  V30 3115 H 312.465 -0.658182 1.7129 0
M  V30 3116 H 310.847 -3.21618 2.31037 0
M  V30 3117 H 312.021 -1.29051 4.4236 0
M  V30 3118 H 310.336 -1.31719 3.95018 0
M  V30 3119 H 312.933 -4.05865 3.48106 0
M  V30 3120 H 313.276 -3.75588 1.79553 0
M  V30 3121 H 313.809 -2.5835 3.0249 0
M  V30 3122 H 310.548 -2.58795 6.0225 0
M  V30 3123 H 310.068 -3.70044 4.72046 0
M  V30 3124 H 311.747 -3.68976 5.31475 0
M  V30 3125 N 311.879 -1.3236 -0.855495 0
M  V30 3126 C 312.789 -1.23221 -1.99634 0
M  V30 3127 C 313.805 -0.145983 -1.73387 0
M  V30 3128 O 314.981 -0.366502 -1.98037 0
M  V30 3129 C 312.046 -0.954782 -3.33294 0
M  V30 3130 C 311.107 -2.12937 -3.72769 0
M  V30 3131 C 310.34 -1.86508 -5.00051 0
M  V30 3132 O 310.563 -0.807231 -5.64659 0
M  V30 3133 O 309.497 -2.72591 -5.36636 0
M  V30 3134 H 313.323 -2.19126 -2.1028 0
M  V30 3135 H 310.908 -1.12241 -0.986018 0
M  V30 3136 H 312.79 -0.816519 -4.13414 0
M  V30 3137 H 311.465 -0.0258854 -3.2369 0
M  V30 3138 H 310.372 -2.3231 -2.93228 0
M  V30 3139 H 311.705 -3.04102 -3.87018 0
M  V30 3140 N 313.357 1.07166 -1.15556 0
M  V30 3141 C 314.32 2.12589 -0.856644 0
M  V30 3142 C 315.32 1.6015 0.14444 0
M  V30 3143 O 316.51 1.7399 -0.0854163 0
M  V30 3144 C 313.642 3.39753 -0.279405 0
M  V30 3145 H 314.835 2.40539 -1.79112 0
M  V30 3146 H 312.388 1.23086 -0.963298 0
M  V30 3147 H 313.123 3.17447 0.663174 0
M  V30 3148 H 312.908 3.79117 -1.00063 0
M  V30 3149 H 314.398 4.17507 -0.0879113 0
M  V30 3150 N 314.835 0.952656 1.25548 0
M  V30 3151 C 316.083 0.605176 1.92826 0
M  V30 3152 C 316.404 -0.860261 1.74999 0
M  V30 3153 O 315.674 -1.6125 1.11244 0
M  V30 3154 H 314.254 0.220832 0.713612 0
M  V30 3155 H 316.916 1.21047 1.52754 0
M  V30 3156 H 316.012 0.832798 3.00784 0
M  V30 3157 N 316.313 -1.40141 0.720998 0
M  V30 3158 C 317.276 -2.29058 0.0805834 0
M  V30 3159 C 318.276 -1.45632 -0.681758 0
M  V30 3160 O 319.466 -1.6648 -0.512856 0
M  V30 3161 C 316.598 -3.28925 -0.895593 0
M  V30 3162 H 317.791 -2.87191 0.863793 0
M  V30 3163 H 315.344 -1.48553 0.485975 0
M  V30 3164 H 316.079 -2.75822 -1.70566 0
M  V30 3165 H 315.864 -3.90519 -0.351766 0
M  V30 3166 H 317.354 -3.95494 -1.34069 0
M  V30 3167 N 317.792 -0.46758 -1.50504 0
M  V30 3168 C 319.041 0.0902868 -2.01498 0
M  V30 3169 C 319.354 1.411 -1.35463 0
M  V30 3170 O 320.56 2.0536 -1.77594 0
M  V30 3171 C 319.016 0.21142 -3.59278 0
M  V30 3172 C 318.624 -1.10065 -4.34269 0
M  V30 3173 C 320.368 0.721433 -4.18325 0
M  V30 3174 C 318.275 -0.943505 -5.83825 0
M  V30 3175 H 317.205 0.037517 -0.753066 0
M  V30 3176 H 319.856 -0.601943 -1.73346 0
M  V30 3177 H 318.238 0.967352 -3.84003 0
M  V30 3178 H 319.412 -1.86726 -4.21272 0
M  V30 3179 H 317.727 -1.5415 -3.86816 0
M  V30 3180 H 320.324 0.85598 -5.27804 0
M  V30 3181 H 320.667 1.71186 -3.79475 0
M  V30 3182 H 321.2 0.0229843 -3.97793 0
M  V30 3183 H 317.939 -1.90719 -6.27141 0
M  V30 3184 H 317.459 -0.217213 -5.99407 0
M  V30 3185 H 319.138 -0.608715 -6.4413 0
M  V30 3186 N 319.27 1.56325 -0.20005 0
M  V30 3187 C 320.518 1.97329 0.436547 0
M  V30 3188 C 320.839 1.08826 1.61808 0
M  V30 3189 O 320.109 0.160604 1.95241 0
M  V30 3190 H 318.689 0.728714 0.164272 0
M  V30 3191 H 321.351 1.92761 -0.287937 0
M  V30 3192 H 320.447 3.02264 0.777353 0
M  V30 3193 N 320.748 -0.0735177 1.57428 0
M  V30 3194 C 321.995 -0.772999 1.87166 0
M  V30 3195 C 322.323 -1.77665 0.791551 0
M  V30 3196 O 321.578 -1.94541 -0.212636 0
M  V30 3197 C 321.877 -1.51799 3.23561 0
M  V30 3198 C 321.543 -0.654484 4.46125 0
M  V30 3199 C 320.205 -0.416511 4.79394 0
M  V30 3200 C 322.557 -0.0555862 5.2117 0
M  V30 3201 C 319.885 0.429869 5.85123 0
M  V30 3202 C 322.237 0.778239 6.27795 0
M  V30 3203 C 320.901 1.0261 6.59566 0
M  V30 3204 H 320.171 -0.282861 0.684888 0
M  V30 3205 H 322.818 -0.0338272 1.9147 0
M  V30 3206 H 321.123 -2.32932 3.1504 0
M  V30 3207 H 322.82 -2.06397 3.43804 0
M  V30 3208 H 319.41 -0.850091 4.20085 0
M  V30 3209 H 323.594 -0.226558 4.95783 0
M  V30 3210 H 318.85 0.630665 6.08139 0
M  V30 3211 H 323.024 1.24906 6.85107 0
M  V30 3212 H 320.651 1.68371 7.4132 0
M  V30 3213 N 322.226 -1.5378 -0.344866 0
M  V30 3214 C 323.173 -1.81676 -1.42346 0
M  V30 3215 C 324.143 -0.662376 -1.52321 0
M  V30 3216 O 325.328 -0.906675 -1.67881 0
M  V30 3217 C 322.468 -2.03087 -2.79015 0
M  V30 3218 C 321.581 -3.30799 -2.77842 0
M  V30 3219 C 320.716 -3.42285 -4.0622 0
M  V30 3220 C 319.755 -4.6395 -3.9927 0
M  V30 3221 N 318.892 -4.72477 -5.19336 0
M  V30 3222 H 323.732 -2.73703 -1.17858 0
M  V30 3223 H 321.269 -1.35568 -0.570949 0
M  V30 3224 H 323.227 -2.1349 -3.58438 0
M  V30 3225 H 321.857 -1.14375 -3.01858 0
M  V30 3226 H 320.909 -3.29244 -1.90533 0
M  V30 3227 H 322.221 -4.20314 -2.68584 0
M  V30 3228 H 321.375 -3.52113 -4.94066 0
M  V30 3229 H 320.114 -2.50823 -4.18258 0
M  V30 3230 H 319.119 -4.54201 -3.09809 0
M  V30 3231 H 320.344 -5.56775 -3.88817 0
M  V30 3232 H 318.29 -3.83924 -5.3192 0
M  V30 3233 H 318.207 -5.55927 -5.12329 0
M  V30 3234 H 319.475 -4.86613 -6.08957 0
M  V30 3235 N 323.704 0.605807 -1.45491 0
M  V30 3236 C 324.953 1.36086 -1.48874 0
M  V30 3237 C 325.266 1.95131 -0.135333 0
M  V30 3238 O 326.472 2.7146 -0.0468144 0
M  V30 3239 C 324.928 2.46518 -2.62215 0
M  V30 3240 C 324.536 1.93877 -4.03876 0
M  V30 3241 C 326.28 3.23512 -2.74846 0
M  V30 3242 C 324.187 3.01801 -5.08596 0
M  V30 3243 H 323.117 0.511497 -0.553974 0
M  V30 3244 H 325.768 0.649089 -1.71636 0
M  V30 3245 H 324.15 3.20388 -2.32739 0
M  V30 3246 H 325.324 1.26704 -4.43038 0
M  V30 3247 H 323.639 1.29622 -3.95711 0
M  V30 3248 H 326.236 4.04013 -3.50253 0
M  V30 3249 H 326.579 3.74631 -1.81542 0
M  V30 3250 H 327.112 2.56742 -3.03856 0
M  V30 3251 H 323.851 2.55597 -6.03614 0
M  V30 3252 H 323.371 3.67535 -4.74002 0
M  V30 3253 H 325.05 3.66152 -5.33424 0
M  V30 3254 N 325.182 1.32811 0.848464 0
M  V30 3255 C 326.132 1.18842 1.94578 0
M  V30 3256 C 327.116 0.0937517 1.60627 0
M  V30 3257 O 328.308 0.320887 1.74067 0
M  V30 3258 C 325.437 0.91999 3.30743 0
M  V30 3259 C 324.523 2.05665 3.70894 0
M  V30 3260 N 324.914 3.30579 3.8282 0
M  V30 3261 C 323.212 1.9612 4.00566 0
M  V30 3262 C 323.913 4.05067 4.17487 0
M  V30 3263 N 322.889 3.33419 4.2934 0
M  V30 3264 H 326.691 2.13536 2.0194 0
M  V30 3265 H 324.205 1.2468 1.0406 0
M  V30 3266 H 326.202 0.800859 4.09136 0
M  V30 3267 H 324.862 -0.0185076 3.24695 0
M  V30 3268 H 325.873 3.65441 3.66978 0
M  V30 3269 H 322.55 1.09871 4.02784 0
M  V30 3270 H 323.94 5.12815 4.34131 0
M  V30 3271 N 326.66 -1.06551 1.16123 0
M  V30 3272 C 327.57 -2.17484 0.879662 0
M  V30 3273 C 328.586 -1.73377 -0.147104 0
M  V30 3274 O 329.762 -2.01379 0.0289128 0
M  V30 3275 C 326.827 -3.44591 0.381829 0
M  V30 3276 C 325.888 -4.0322 1.4735 0
M  V30 3277 C 325.121 -5.24261 0.999324 0
M  V30 3278 O 325.344 -5.70198 -0.151957 0
M  V30 3279 O 324.278 -5.74775 1.78653 0
M  V30 3280 H 328.104 -2.44075 1.80724 0
M  V30 3281 H 325.689 -1.16042 0.940992 0
M  V30 3282 H 327.571 -4.21254 0.111053 0
M  V30 3283 H 326.246 -3.19532 -0.51777 0
M  V30 3284 H 325.153 -3.2806 1.79798 0
M  V30 3285 H 326.486 -4.32568 2.34831 0
M  V30 3286 N 328.138 -0.959301 -1.25041 0
M  V30 3287 C 329.415 -0.533805 -1.88175 0
M  V30 3288 C 329.795 0.988994 -1.865 0
M  V30 3289 O 329.143 1.85677 -1.33177 0
M  V30 3290 C 329.353 -1.11575 -3.30684 0
M  V30 3291 C 330.701 -1.19548 -4.07423 0
M  V30 3292 O 331.725 -1.06765 -3.39823 0
M  V30 3293 O 330.584 -1.39656 -5.28354 0
M  V30 3294 H 327.678 -0.176772 -0.807887 0
M  V30 3295 H 330.224 -1.05303 -1.33076 0
M  V30 3296 H 328.996 -2.15884 -3.26358 0
M  V30 3297 H 328.619 -0.580059 -3.93346 0
M  V30 3298 N 329.616 1.39756 -0.72842 0
M  V30 3299 C 330.862 2.01425 -0.282761 0
M  V30 3300 C 331.217 1.56754 1.11561 0
M  V30 3301 O 330.51 0.783482 1.74849 0
M  V30 3302 C 330.704 3.56002 -0.315776 0
M  V30 3303 C 330.533 4.1568 -1.71582 0
M  V30 3304 C 329.303 4.48555 -2.32651 0
M  V30 3305 C 331.501 4.39667 -2.66829 0
M  V30 3306 N 329.483 4.93698 -3.64877 0
M  V30 3307 C 330.854 4.86942 -3.8378 0
M  V30 3308 C 332.909 4.21724 -2.64675 0
M  V30 3309 C 331.612 5.18158 -4.98904 0
M  V30 3310 C 333.638 4.54049 -3.78937 0
M  V30 3311 C 333 5.01525 -4.94623 0
M  V30 3312 H 329.099 0.76756 -0.149583 0
M  V30 3313 H 331.683 1.69784 -0.952976 0
M  V30 3314 H 329.854 3.87046 0.324057 0
M  V30 3315 H 331.586 4.0443 0.147808 0
M  V30 3316 H 328.341 4.36128 -1.84633 0
M  V30 3317 H 328.765 5.20635 -4.32744 0
M  V30 3318 H 333.407 3.84228 -1.76433 0
M  V30 3319 H 331.125 5.54562 -5.87781 0
M  V30 3320 H 334.711 4.41795 -3.78561 0
M  V30 3321 H 333.591 5.26065 -5.81572 0
M  V30 3322 N 331.094 0.475555 1.50254 0
M  V30 3323 C 332.342 -0.077738 2.0195 0
M  V30 3324 C 332.663 -1.39813 1.35931 0
M  V30 3325 O 331.933 -1.89249 0.506123 0
M  V30 3326 H 330.513 -0.031719 0.746326 0
M  V30 3327 H 333.175 0.626995 1.84539 0
M  V30 3328 H 332.271 -0.225995 3.11281 0
M  V30 3329 N 332.573 -1.56217 0.208337 0
M  V30 3330 C 333.801 -2.02337 -0.43215 0
M  V30 3331 C 334.216 -1.08834 -1.54275 0
M  V30 3332 O 333.573 -0.0955462 -1.8225 0
M  V30 3333 C 333.624 -3.48072 -0.976138 0
M  V30 3334 O 333.345 -4.38007 0.0901621 0
M  V30 3335 C 334.846 -4.09773 -1.69119 0
M  V30 3336 H 332.066 -0.662385 -0.10718 0
M  V30 3337 H 334.61 -2.01966 0.320923 0
M  V30 3338 H 332.765 -3.49099 -1.67954 0
M  V30 3339 H 333.179 -5.23543 -0.316701 0
M  V30 3340 H 334.653 -5.13556 -2.02397 0
M  V30 3341 H 335.13 -3.53999 -2.59964 0
M  V30 3342 H 335.736 -4.12556 -1.03332 0
M  V30 3343 N 334.051 0.0651679 -1.57465 0
M  V30 3344 C 335.279 0.775808 -1.91804 0
M  V30 3345 C 335.694 1.70782 -0.804916 0
M  V30 3346 O 335.051 1.81153 0.221311 0
M  V30 3347 C 335.102 1.56381 -3.25925 0
M  V30 3348 O 334.823 0.669248 -4.32958 0
M  V30 3349 C 336.324 2.37485 -3.7432 0
M  V30 3350 H 333.544 0.2202 -0.63384 0
M  V30 3351 H 336.088 0.0334587 -2.04473 0
M  V30 3352 H 334.243 2.25837 -3.14764 0
M  V30 3353 H 334.657 1.21801 -5.10162 0
M  V30 3354 H 336.131 2.88223 -4.70778 0
M  V30 3355 H 336.608 3.17307 -3.03666 0
M  V30 3356 H 337.214 1.73173 -3.88447 0
M  V30 3357 N 335.529 1.53961 0.336706 0
M  V30 3358 C 336.94 1.62914 0.911925 0
M  V30 3359 C 337.291 0.514795 1.89326 0
M  V30 3360 O 336.416 -0.354395 2.13478 0
M  V30 3361 C 337.011 2.95304 1.66076 0
M  V30 3362 C 335.57 3.06496 2.18489 0
M  V30 3363 C 334.717 2.58403 1.00613 0
M  V30 3364 H 337.668 1.58285 0.114649 0
M  V30 3365 H 337.689 2.84727 2.5241 0
M  V30 3366 H 337.201 3.76387 0.946276 0
M  V30 3367 H 335.302 2.3006 2.93092 0
M  V30 3368 H 335.415 4.1208 2.44391 0
M  V30 3369 H 333.779 2.13977 1.38152 0
M  V30 3370 H 334.562 3.41932 0.306179 0
M  V30 3371 N 337.007 -0.598083 1.45811 0
M  V30 3372 C 338.232 -1.3881 1.54099 0
M  V30 3373 C 338.657 -1.8726 0.177578 0
M  V30 3374 O 338.015 -1.6069 -0.839541 0
M  V30 3375 C 338.063 -2.56217 2.53743 0
M  V30 3376 O 337.167 -3.5716 2.06182 0
M  V30 3377 H 336.508 -0.414024 0.519115 0
M  V30 3378 H 339.038 -0.726971 1.91249 0
M  V30 3379 H 339.048 -3.03337 2.72856 0
M  V30 3380 H 337.723 -2.20303 3.5276 0
M  V30 3381 H 336.3 -3.16624 1.96987 0
M  V30 3382 N 338.485 -1.33259 -0.841409 0
M  V30 3383 C 339.448 -1.23221 -1.9326 0
M  V30 3384 C 340.448 -0.151895 -1.60081 0
M  V30 3385 O 341.638 -0.403246 -1.69468 0
M  V30 3386 C 338.77 -0.898123 -3.28856 0
M  V30 3387 H 339.963 -2.2021 -2.03587 0
M  V30 3388 H 337.516 -1.17281 -1.03319 0
M  V30 3389 H 338.251 0.0693841 -3.24226 0
M  V30 3390 H 338.036 -1.67934 -3.54317 0
M  V30 3391 H 339.526 -0.852563 -4.08805 0
M  V30 3392 N 339.963 1.05934 -1.16686 0
M  V30 3393 C 341.212 1.78188 -0.945085 0
M  V30 3394 C 341.525 1.88338 0.528021 0
M  V30 3395 O 342.731 2.57258 0.867799 0
M  V30 3396 C 341.187 3.20277 -1.64167 0
M  V30 3397 C 340.795 3.18281 -3.15279 0
M  V30 3398 C 342.539 3.97039 -1.502 0
M  V30 3399 C 340.446 4.55112 -3.7766 0
M  V30 3400 H 339.376 0.667866 -0.349959 0
M  V30 3401 H 342.027 1.18794 -1.39858 0
M  V30 3402 H 340.409 3.79952 -1.11589 0
M  V30 3403 H 341.583 2.68167 -3.74731 0
M  V30 3404 H 339.898 2.55018 -3.29173 0
M  V30 3405 H 342.495 4.98194 -1.94183 0
M  V30 3406 H 342.838 4.13845 -0.451461 0
M  V30 3407 H 343.371 3.43894 -1.99954 0
M  V30 3408 H 340.11 4.43512 -4.82677 0
M  V30 3409 H 339.63 5.05406 -3.22994 0
M  V30 3410 H 341.309 5.24064 -3.79428 0
M  V30 3411 N 341.441 0.965919 1.2453 0
M  V30 3412 C 342.389 0.486506 2.27455 0
M  V30 3413 C 343.383 -0.449041 1.6334 0
M  V30 3414 O 344.589 -0.324527 1.7705 0
M  V30 3415 H 340.964 0.138857 0.739069 0
M  V30 3416 H 342.935 1.3666 2.65267 0
M  V30 3417 C 341.684 -0.209481 3.47068 0
M  V30 3418 H 341.007 0.50129 3.96645 0
M  V30 3419 H 342.447 -0.508775 4.20936 0
M  V30 3420 C 340.906 -1.43586 3.0477 0
M  V30 3421 O 341.436 -2.53299 3.11773 0
M  V30 3422 N 339.642 -1.30126 2.59838 0
M  V30 3423 H 339.189 -0.408583 2.54339 0
M  V30 3424 H 339.147 -2.12294 2.31902 0
M  V30 3425 N 342.919 -1.39368 0.735821 0
M  V30 3426 C 343.869 -2.27885 0.0724287 0
M  V30 3427 C 344.853 -1.44301 -0.711756 0
M  V30 3428 O 346.045 -1.67206 -0.58063 0
M  V30 3429 C 343.174 -3.33029 -0.833454 0
M  V30 3430 C 342.26 -4.24078 -0.0433749 0
M  V30 3431 N 342.651 -4.96138 0.983903 0
M  V30 3432 C 340.949 -4.45164 -0.272905 0
M  V30 3433 C 341.65 -5.63069 1.4604 0
M  V30 3434 N 340.626 -5.37991 0.778857 0
M  V30 3435 H 344.428 -2.81052 0.859467 0
M  V30 3436 H 341.942 -1.5206 0.570227 0
M  V30 3437 H 343.939 -3.95311 -1.32419 0
M  V30 3438 H 342.599 -2.81421 -1.61964 0
M  V30 3439 H 343.61 -4.9958 1.36528 0
M  V30 3440 H 340.287 -4.04497 -1.03383 0
M  V30 3441 H 341.677 -6.30755 2.31511 0
M  V30 3442 N 344.397 -0.483516 -1.5 0
M  V30 3443 C 345.36 0.292965 -2.2732 0
M  V30 3444 C 346.36 0.909499 -1.32608 0
M  V30 3445 O 347.55 0.776745 -1.55924 0
M  V30 3446 C 344.682 1.41854 -3.09984 0
M  V30 3447 H 345.875 -0.385289 -2.97415 0
M  V30 3448 H 343.428 -0.237942 -1.54478 0
M  V30 3449 H 344.163 2.13148 -2.44414 0
M  V30 3450 H 343.948 0.982114 -3.79601 0
M  V30 3451 H 345.438 1.96597 -3.68429 0
M  V30 3452 N 345.875 1.56104 -0.216619 0
M  V30 3453 C 346.805 2.23063 0.690296 0
M  V30 3454 C 347.786 1.20072 1.20485 0
M  V30 3455 O 348.971 1.48643 1.24976 0
M  V30 3456 C 346.101 2.90672 1.90072 0
M  V30 3457 C 345.055 4.00092 1.5202 0
M  V30 3458 C 344.381 4.54972 2.80899 0
M  V30 3459 C 345.681 5.17398 0.71391 0
M  V30 3460 H 347.375 2.99109 0.132038 0
M  V30 3461 H 344.921 1.43866 0.0620664 0
M  V30 3462 H 346.874 3.36204 2.54057 0
M  V30 3463 H 345.598 2.12066 2.48386 0
M  V30 3464 H 344.257 3.55283 0.903839 0
M  V30 3465 H 343.905 3.73102 3.37348 0
M  V30 3466 H 343.605 5.28817 2.56176 0
M  V30 3467 H 345.129 5.0322 3.45836 0
M  V30 3468 H 346.543 5.59342 1.25735 0
M  V30 3469 H 344.94 5.97444 0.563951 0
M  V30 3470 H 346.01 4.84088 -0.280527 0
M  V30 3471 N 347.353 -0.0568162 1.57498 0
M  V30 3472 C 348.63 -0.786954 1.79071 0
M  V30 3473 C 349.01 -1.95028 0.80792 0
M  V30 3474 O 348.358 -2.27968 -0.155858 0
M  V30 3475 C 348.568 -1.24594 3.26002 0
M  V30 3476 C 349.916 -1.67323 3.90241 0
M  V30 3477 O 350.94 -1.34124 3.29984 0
M  V30 3478 O 349.799 -2.28842 4.9628 0
M  V30 3479 H 346.893 -0.378262 0.735423 0
M  V30 3480 H 349.439 -0.035734 1.69662 0
M  V30 3481 H 348.211 -0.41423 3.89101 0
M  V30 3482 H 347.834 -2.05803 3.40192 0
M  V30 3483 N 348.832 -1.54138 -0.328536 0
M  V30 3484 C 350.078 -1.7236 -1.06865 0
M  V30 3485 C 350.411 -0.493231 -1.87832 0
M  V30 3486 O 349.686 0.5098 -1.877 0
M  V30 3487 C 349.969 -2.99621 -1.99747 0
M  V30 3488 C 349.822 -4.32899 -1.22143 0
M  V30 3489 C 351.141 -3.22615 -2.99345 0
M  V30 3490 H 348.26 -0.627151 -0.387105 0
M  V30 3491 H 350.902 -1.86827 -0.345767 0
M  V30 3492 H 349.052 -2.87418 -2.61387 0
M  V30 3493 H 350.724 -4.56978 -0.630017 0
M  V30 3494 H 348.967 -4.30628 -0.523628 0
M  V30 3495 H 349.638 -5.18154 -1.90318 0
M  V30 3496 H 352.114 -3.34248 -2.47826 0
M  V30 3497 H 350.99 -4.13027 -3.61524 0
M  V30 3498 H 351.251 -2.3961 -3.71536 0
M  V30 3499 N 350.31 0.590341 -1.46126 0
M  V30 3500 C 351.273 1.68194 -1.55703 0
M  V30 3501 C 352.273 1.54808 -0.434868 0
M  V30 3502 O 353.463 1.59564 -0.698928 0
M  V30 3503 C 350.595 3.07575 -1.47005 0
M  V30 3504 H 351.788 1.61064 -2.52979 0
M  V30 3505 H 349.341 0.807541 -1.33823 0
M  V30 3506 H 350.076 3.20268 -0.509785 0
M  V30 3507 H 349.861 3.187 -2.28414 0
M  V30 3508 H 351.351 3.87055 -1.56776 0
M  V30 3509 N 351.788 1.33704 0.83433 0
M  V30 3510 C 353.065 1.16011 1.57483 0
M  V30 3511 C 353.445 -0.27176 2.09343 0
M  V30 3512 O 352.793 -1.27146 1.89858 0
M  V30 3513 C 353.003 2.20507 2.70514 0
M  V30 3514 C 354.351 2.54898 3.39577 0
M  V30 3515 O 355.375 2.19209 2.80759 0
M  V30 3516 O 354.234 3.16158 4.45765 0
M  V30 3517 H 351.328 0.448992 0.694503 0
M  V30 3518 H 353.874 1.453 0.876691 0
M  V30 3519 H 352.646 3.16667 2.29865 0
M  V30 3520 H 352.269 1.92329 3.47987 0
M  V30 3521 N 353.266 -1.05314 1.17247 0
M  V30 3522 C 354.213 -2.13031 0.888058 0
M  V30 3523 C 355.183 -1.65253 -0.167537 0
M  V30 3524 O 356.368 -1.90775 -0.0305974 0
M  V30 3525 C 353.508 -3.42702 0.406147 0
M  V30 3526 C 352.621 -4.04161 1.52572 0
M  V30 3527 C 351.756 -5.21744 0.997808 0
M  V30 3528 C 350.795 -5.75207 2.09291 0
M  V30 3529 N 349.932 -6.84094 1.57986 0
M  V30 3530 H 354.772 -2.36698 1.81048 0
M  V30 3531 H 352.309 -1.16121 0.903013 0
M  V30 3532 H 354.267 -4.17059 0.108305 0
M  V30 3533 H 352.897 -3.19222 -0.479313 0
M  V30 3534 H 351.949 -3.27253 1.93931 0
M  V30 3535 H 353.261 -4.39881 2.35172 0
M  V30 3536 H 352.415 -6.03168 0.653739 0
M  V30 3537 H 351.154 -4.87495 0.141232 0
M  V30 3538 H 350.159 -4.92414 2.44557 0
M  V30 3539 H 351.384 -6.11505 2.95362 0
M  V30 3540 H 349.33 -6.51745 0.74598 0
M  V30 3541 H 349.247 -7.18811 2.34195 0
M  V30 3542 H 350.515 -7.69172 1.26468 0
M  V30 3543 N 354.744 -0.972509 -1.24016 0
M  V30 3544 C 355.974 -0.653853 -1.9598 0
M  V30 3545 C 356.382 0.781801 -1.72292 0
M  V30 3546 O 355.725 1.53677 -1.00644 0
M  V30 3547 C 355.787 -0.854608 -3.49194 0
M  V30 3548 C 355.451 -2.27082 -3.96589 0
M  V30 3549 C 356.448 -3.24892 -4.05883 0
M  V30 3550 C 354.133 -2.5998 -4.29786 0
M  V30 3551 C 356.127 -4.53684 -4.47716 0
M  V30 3552 C 353.814 -3.88997 -4.71301 0
M  V30 3553 C 354.812 -4.85661 -4.80232 0
M  V30 3554 O 354.5 -6.12376 -5.20818 0
M  V30 3555 H 354.232 -0.242572 -0.630979 0
M  V30 3556 H 356.786 -1.30431 -1.58673 0
M  V30 3557 H 355.016 -0.146985 -3.86421 0
M  V30 3558 H 356.705 -0.534311 -4.02368 0
M  V30 3559 H 357.471 -3.00805 -3.80449 0
M  V30 3560 H 353.35 -1.85457 -4.22051 0
M  V30 3561 H 356.894 -5.29135 -4.54601 0
M  V30 3562 H 352.791 -4.12882 -4.96184 0
M  V30 3563 H 353.559 -6.16013 -5.38953 0
M  V30 3564 N 356.222 1.38976 -0.743202 0
M  V30 3565 C 357.499 1.94351 -0.220705 0
M  V30 3566 C 357.879 1.67935 1.2791 0
M  V30 3567 O 357.227 1.01211 2.04862 0
M  V30 3568 C 357.437 3.44426 -0.563171 0
M  V30 3569 C 358.785 4.2144 -0.517046 0
M  V30 3570 O 359.809 3.52661 -0.500846 0
M  V30 3571 O 358.668 5.44032 -0.518806 0
M  V30 3572 H 355.762 0.825879 -0.043047 0
M  V30 3573 H 358.308 1.48429 -0.822618 0
M  V30 3574 H 357.08 3.5712 -1.59941 0
M  V30 3575 H 356.703 3.97543 0.0672883 0
M  V30 3576 N 357.7 0.491464 1.49741 0
M  V30 3577 C 358.946 -0.0565092 2.02721 0
M  V30 3578 C 359.279 -1.37522 1.37118 0
M  V30 3579 O 358.554 -1.87866 0.503645 0
M  V30 3580 C 358.837 -0.219051 3.59433 0
M  V30 3581 C 358.69 1.12211 4.35579 0
M  V30 3582 C 360.009 -0.964157 4.29409 0
M  V30 3583 H 357.128 -0.0190627 0.736753 0
M  V30 3584 H 359.77 0.641021 1.7886 0
M  V30 3585 H 357.92 -0.813165 3.79895 0
M  V30 3586 H 359.592 1.75437 4.26637 0
M  V30 3587 H 357.835 1.71377 3.98513 0
M  V30 3588 H 358.506 0.961794 5.43556 0
M  V30 3589 H 360.982 -0.460378 4.13545 0
M  V30 3590 H 359.858 -1.04671 5.38828 0
M  V30 3591 H 360.119 -2.00563 3.93988 0
M  V30 3592 N 359.178 -1.55987 0.224894 0
M  V30 3593 C 360.11 -2.17722 -0.716224 0
M  V30 3594 C 361.123 -1.14723 -1.15509 0
M  V30 3595 O 362.312 -1.41688 -1.08567 0
M  V30 3596 C 359.412 -2.74873 -1.98238 0
M  V30 3597 C 358.585 -4.03074 -1.69853 0
M  V30 3598 C 357.644 -4.44757 -2.81208 0
M  V30 3599 O 356.67 -5.11587 -2.49534 0
M  V30 3600 N 357.872 -4.10716 -4.10235 0
M  V30 3601 H 360.637 -2.99109 -0.188123 0
M  V30 3602 H 358.198 -1.6184 0.0440123 0
M  V30 3603 H 360.19 -2.99727 -2.7193 0
M  V30 3604 H 358.76 -1.9777 -2.42086 0
M  V30 3605 H 357.98 -3.86041 -0.797875 0
M  V30 3606 H 359.268 -4.86701 -1.48324 0
M  V30 3607 H 358.666 -3.57019 -4.38809 0
M  V30 3608 H 357.223 -4.40455 -4.80461 0
M  V30 3609 N 360.656 0.0484629 -1.57525 0
M  V30 3610 C 361.902 0.744226 -1.88651 0
M  V30 3611 C 362.235 1.76029 -0.820212 0
M  V30 3612 O 361.51 1.93782 0.166985 0
M  V30 3613 C 361.793 1.43128 -3.30434 0
M  V30 3614 C 361.646 0.43005 -4.47739 0
M  V30 3615 C 362.965 2.37031 -3.70816 0
M  V30 3616 H 360.084 0.269089 -0.68612 0
M  V30 3617 H 362.726 0.00713532 -1.89999 0
M  V30 3618 H 360.876 2.05956 -3.29415 0
M  V30 3619 H 362.548 -0.194816 -4.60888 0
M  V30 3620 H 360.791 -0.252522 -4.33064 0
M  V30 3621 H 361.462 0.948874 -5.43783 0
M  V30 3622 H 363.938 1.84263 -3.73077 0
M  V30 3623 H 362.814 2.82094 -4.70865 0
M  V30 3624 H 363.075 3.22864 -3.02012 0
M  V30 3625 N 362.134 1.5431 0.320358 0
M  V30 3626 C 363.097 1.83195 1.3774 0
M  V30 3627 C 364.097 0.703906 1.44575 0
M  V30 3628 O 365.287 0.972214 1.44546 0
M  V30 3629 C 362.419 1.99487 2.76438 0
M  V30 3630 H 363.612 2.77642 1.1338 0
M  V30 3631 H 361.165 1.46076 0.556012 0
M  V30 3632 H 361.9 1.07262 3.06048 0
M  V30 3633 H 361.685 2.81575 2.7287 0
M  V30 3634 H 363.175 2.23271 3.52902 0
M  V30 3635 N 363.613 -0.582584 1.46437 0
M  V30 3636 C 364.862 -1.337 1.5102 0
M  V30 3637 C 365.175 -1.94891 0.166359 0
M  V30 3638 O 366.381 -2.71351 0.0899954 0
M  V30 3639 C 364.837 -2.42315 2.66104 0
M  V30 3640 C 364.445 -1.87427 4.06909 0
M  V30 3641 C 366.189 -3.19099 2.79958 0
M  V30 3642 C 364.096 -2.93672 5.13333 0
M  V30 3643 H 363.026 -0.502619 0.562041 0
M  V30 3644 H 365.677 -0.621701 1.72647 0
M  V30 3645 H 364.059 -3.16645 2.37807 0
M  V30 3646 H 365.233 -1.19639 4.44998 0
M  V30 3647 H 363.548 -1.2331 3.97723 0
M  V30 3648 H 366.145 -3.9839 3.56636 0
M  V30 3649 H 366.488 -3.71695 1.87479 0
M  V30 3650 H 367.021 -2.51875 3.07902 0
M  V30 3651 H 363.76 -2.45962 6.07604 0
M  V30 3652 H 363.28 -3.59948 4.79789 0
M  V30 3653 H 364.959 -3.5762 5.39182 0
M  V30 3654 N 365.091 -1.34144 -0.827227 0
M  V30 3655 C 366.041 -1.21923 -1.92663 0
M  V30 3656 C 367.025 -0.119294 -1.60457 0
M  V30 3657 O 368.217 -0.348539 -1.73534 0
M  V30 3658 C 365.346 -0.972492 -3.29238 0
M  V30 3659 C 364.432 -2.1154 -3.67576 0
M  V30 3660 N 364.823 -3.36627 -3.77512 0
M  V30 3661 C 363.121 -2.02468 -3.97395 0
M  V30 3662 C 363.822 -4.11658 -4.1099 0
M  V30 3663 N 362.798 -3.40207 -4.23981 0
M  V30 3664 H 366.6 -2.16721 -1.98517 0
M  V30 3665 H 364.114 -1.2632 -1.02064 0
M  V30 3666 H 366.111 -0.865847 -4.0781 0
M  V30 3667 H 364.771 -0.0331509 -3.24683 0
M  V30 3668 H 365.782 -3.71234 -3.61118 0
M  V30 3669 H 362.459 -1.16265 -4.00985 0
M  V30 3670 H 363.849 -5.19657 -4.25918 0
M  V30 3671 N 366.569 1.04691 -1.17803 0
M  V30 3672 C 367.797 1.81446 -0.99423 0
M  V30 3673 C 368.212 1.83174 0.457459 0
M  V30 3674 O 367.569 1.26265 1.31771 0
M  V30 3675 C 367.62 3.27334 -1.5341 0
M  V30 3676 O 367.341 3.25798 -2.92895 0
M  V30 3677 C 368.842 4.20759 -1.39559 0
M  V30 3678 H 366.062 0.571599 -0.351447 0
M  V30 3679 H 368.606 1.31982 -1.56208 0
M  V30 3680 H 366.761 3.74052 -1.00815 0
M  V30 3681 H 367.175 4.17144 -3.17949 0
M  V30 3682 H 368.649 5.21084 -1.82141 0
M  V30 3683 H 369.126 4.37856 -0.343394 0
M  V30 3684 H 369.732 3.79901 -1.91195 0
M  V30 3685 N 368.047 0.979072 1.23499 0
M  V30 3686 C 369.324 0.563674 1.87302 0
M  V30 3687 C 369.704 -0.959199 1.88049 0
M  V30 3688 O 369.052 -1.83535 1.36114 0
M  V30 3689 C 369.262 1.16822 3.28867 0
M  V30 3690 C 370.61 1.26014 4.0547 0
M  V30 3691 O 371.634 1.12158 3.38082 0
M  V30 3692 O 370.493 1.48044 5.26066 0
M  V30 3693 H 367.587 0.189602 0.804972 0
M  V30 3694 H 370.133 1.07407 1.31384 0
M  V30 3695 H 368.905 2.21049 3.22883 0
M  V30 3696 H 368.528 0.642564 3.92373 0
M  V30 3697 N 369.525 -1.3858 0.750561 0
M  V30 3698 C 370.753 -2.04471 0.316098 0
M  V30 3699 C 371.168 -1.56606 -1.05452 0
M  V30 3700 O 370.525 -0.737784 -1.66922 0
M  V30 3701 C 370.576 -3.60025 0.326275 0
M  V30 3702 O 370.297 -4.06133 1.6428 0
M  V30 3703 C 371.798 -4.43131 -0.122429 0
M  V30 3704 H 369.018 -0.65717 0.135528 0
M  V30 3705 H 371.562 -1.77329 1.01857 0
M  V30 3706 H 369.717 -3.86014 -0.327431 0
M  V30 3707 H 370.131 -5.00547 1.56693 0
M  V30 3708 H 371.605 -5.51963 -0.0641473 0
M  V30 3709 H 372.082 -4.23333 -1.16988 0
M  V30 3710 H 372.688 -4.22323 0.50229 0
M  V30 3711 N 371.003 -0.499398 -1.49478 0
M  V30 3712 C 371.933 0.269244 -2.31943 0
M  V30 3713 C 372.914 0.964054 -1.40143 0
M  V30 3714 O 374.099 0.955767 -1.69052 0
M  V30 3715 C 371.229 1.33504 -3.20615 0
M  V30 3716 C 370.183 0.760202 -4.21195 0
M  V30 3717 C 369.509 1.9264 -4.98792 0
M  V30 3718 C 370.809 -0.247661 -5.21712 0
M  V30 3719 H 372.503 -0.419082 -2.96452 0
M  V30 3720 H 370.049 -0.202988 -1.42562 0
M  V30 3721 H 372.002 1.88048 -3.77115 0
M  V30 3722 H 370.726 2.05253 -2.54045 0
M  V30 3723 H 369.385 0.23653 -3.65836 0
M  V30 3724 H 369.033 2.63154 -4.28671 0
M  V30 3725 H 368.733 1.54785 -5.66847 0
M  V30 3726 H 370.257 2.4762 -5.58137 0
M  V30 3727 H 371.671 0.209579 -5.72917 0
M  V30 3728 H 370.068 -0.541962 -5.97648 0
M  V30 3729 H 371.138 -1.16409 -4.7072 0
M  V30 3730 N 372.481 1.55866 -0.233164 0
M  V30 3731 C 373.429 2.22176 0.68851 0
M  V30 3732 C 374.423 1.20487 1.19076 0
M  V30 3733 O 375.629 1.38536 1.14925 0
M  V30 3734 H 372.004 0.712511 0.240483 0
M  V30 3735 H 373.975 2.98212 0.105935 0
M  V30 3736 C 372.724 2.92446 1.88071 0
M  V30 3737 H 372.047 3.70458 1.50337 0
M  V30 3738 H 373.487 3.42226 2.50314 0
M  V30 3739 C 371.946 1.95555 2.74335 0
M  V30 3740 O 372.476 1.47986 3.73447 0
M  V30 3741 N 370.682 1.62953 2.40613 0
M  V30 3742 H 370.229 2.01831 1.60069 0
M  V30 3743 H 370.187 0.983886 2.98609 0
M  V30 3744 N 373.959 -0.0401083 1.57549 0
M  V30 3745 C 374.869 -1.06133 2.0922 0
M  V30 3746 C 375.885 -1.40356 1.0284 0
M  V30 3747 O 377.061 -1.49897 1.34509 0
M  V30 3748 C 374.126 -2.34658 2.55218 0
M  V30 3749 C 373.187 -2.07117 3.76033 0
M  V30 3750 C 372.42 -3.29514 4.19829 0
M  V30 3751 O 372.643 -4.39794 3.63232 0
M  V30 3752 O 371.577 -3.15863 5.12362 0
M  V30 3753 H 375.403 -0.652244 2.96613 0
M  V30 3754 H 372.988 -0.256368 1.47184 0
M  V30 3755 H 374.87 -3.10239 2.85184 0
M  V30 3756 H 373.545 -2.74883 1.70941 0
M  V30 3757 H 372.452 -1.29139 3.51104 0
M  V30 3758 H 373.785 -1.71754 4.61261 0
M  V30 3759 N 375.437 -1.54477 -0.31217 0
M  V30 3760 C 376.4 -1.83923 -1.36766 0
M  V30 3761 C 377.4 -0.711563 -1.44199 0
M  V30 3762 O 378.59 -0.979866 -1.44029 0
M  V30 3763 C 375.722 -2.0095 -2.75376 0
M  V30 3764 H 376.915 -2.78239 -1.11906 0
M  V30 3765 H 374.468 -1.46369 -0.548257 0
M  V30 3766 H 375.203 -1.08883 -3.05475 0
M  V30 3767 H 374.988 -2.83018 -2.71373 0
M  V30 3768 H 376.478 -2.2514 -3.51713 0
M  V30 3769 N 376.915 0.57481 -1.46744 0
M  V30 3770 C 378.163 1.33009 -1.52161 0
M  V30 3771 C 378.484 1.94185 -0.178092 0
M  V30 3772 O 377.754 1.7899 0.796196 0
M  V30 3773 H 376.334 0.493873 -0.560445 0
M  V30 3774 H 378.996 0.672589 -1.82927 0
M  V30 3775 H 378.092 2.13273 -2.27862 0
M  V30 3776 N 378.394 1.34581 0.820102 0
M  V30 3777 C 379.634 1.28448 1.58998 0
M  V30 3778 C 379.998 -0.142883 1.91468 0
M  V30 3779 O 381.199 -0.328422 2.66786 0
M  V30 3780 C 379.47 2.153 2.85273 0
M  V30 3781 S 381.029 2.26548 3.75794 0
M  V30 3782 H 377.847 0.456685 0.54494 0
M  V30 3783 H 380.449 1.69825 0.968487 0
M  V30 3784 H 379.153 3.18008 2.59421 0
M  V30 3785 H 378.684 1.7483 3.52417 0
M  V30 3786 H 380.699 1.44034 4.74835 0
M  V30 3787 N 379.872 -1.04064 1.18357 0
M  V30 3788 C 381.118 -1.77528 0.980397 0
M  V30 3789 C 381.451 -1.87948 -0.48879 0
M  V30 3790 O 380.726 -1.3876 -1.36293 0
M  V30 3791 C 381.009 -3.20797 1.63588 0
M  V30 3792 C 380.862 -3.1832 3.17793 0
M  V30 3793 C 382.181 -4.18911 1.34914 0
M  V30 3794 H 379.3 -0.644443 0.357578 0
M  V30 3795 H 381.942 -1.2156 1.46024 0
M  V30 3796 H 380.092 -3.68586 1.22788 0
M  V30 3797 H 381.764 -2.78521 3.67728 0
M  V30 3798 H 380.007 -2.56351 3.49952 0
M  V30 3799 H 380.678 -4.19489 3.58794 0
M  V30 3800 H 383.154 -3.7967 1.70265 0
M  V30 3801 H 382.03 -5.17374 1.83346 0
M  V30 3802 H 382.291 -4.41262 0.272027 0
M  V30 3803 N 381.35 -0.985608 -1.22978 0
M  V30 3804 C 382.26 -0.538548 -2.28335 0
M  V30 3805 C 383.276 0.409163 -1.69121 0
M  V30 3806 O 384.452 0.277797 -1.99475 0
M  V30 3807 C 381.517 0.146867 -3.46389 0
M  V30 3808 C 380.578 -0.842896 -4.20944 0
M  V30 3809 C 379.811 -0.190095 -5.33361 0
M  V30 3810 O 380.034 1.01767 -5.61248 0
M  V30 3811 O 378.968 -0.891289 -5.95264 0
M  V30 3812 H 382.794 -1.41487 -2.68729 0
M  V30 3813 H 380.379 -0.753495 -1.29007 0
M  V30 3814 H 382.261 0.531125 -4.1804 0
M  V30 3815 H 380.936 0.997871 -3.07935 0
M  V30 3816 H 379.843 -1.27795 -3.51595 0
M  V30 3817 H 381.176 -1.66287 -4.6326 0
M  V30 3818 N 382.828 1.3818 -0.7579 0
M  V30 3819 C 384.105 1.94106 -0.241306 0
M  V30 3820 C 384.485 1.69282 1.26122 0
M  V30 3821 O 383.833 1.03378 2.03777 0
M  V30 3822 C 384.043 3.43809 -0.59967 0
M  V30 3823 C 385.391 4.20868 -0.561717 0
M  V30 3824 O 386.415 3.5211 -0.538222 0
M  V30 3825 O 385.274 5.43451 -0.576478 0
M  V30 3826 H 382.368 0.825376 -0.0518042 0
M  V30 3827 H 384.914 1.47548 -0.838315 0
M  V30 3828 H 383.686 3.55403 -1.6372 0
M  V30 3829 H 383.309 3.97592 0.0251197 0
M  V30 3830 N 384.306 0.507319 1.49211 0
M  V30 3831 C 385.534 -0.0315749 2.06876 0
M  V30 3832 C 385.949 -1.30241 1.36685 0
M  V30 3833 O 385.306 -1.76937 0.447152 0
M  V30 3834 C 385.357 -0.282627 3.60393 0
M  V30 3835 O 385.078 0.937835 4.27944 0
M  V30 3836 C 386.579 -0.864453 4.3479 0
M  V30 3837 H 383.799 0.0233048 0.670595 0
M  V30 3838 H 386.343 0.706484 1.91909 0
M  V30 3839 H 384.498 -0.97068 3.75042 0
M  V30 3840 H 384.912 0.704567 5.19746 0
M  V30 3841 H 386.386 -0.989664 5.43056 0
M  V30 3842 H 386.863 -1.86382 3.97692 0
M  V30 3843 H 387.469 -0.213672 4.24763 0
M  V30 3844 N 385.784 -1.5574 0.241426 0
M  V30 3845 C 386.717 -2.17168 -0.700935 0
M  V30 3846 C 387.695 -1.12206 -1.1768 0
M  V30 3847 O 388.879 -1.40565 -1.25593 0
M  V30 3848 C 386.006 -2.76796 -1.95196 0
M  V30 3849 C 385.052 -3.94764 -1.61442 0
M  V30 3850 S 385.885 -5.30613 -0.72182 0
M  V30 3851 C 387.041 -5.93691 -1.98197 0
M  V30 3852 H 387.274 -2.96761 -0.178882 0
M  V30 3853 H 384.807 -1.54378 0.0259299 0
M  V30 3854 H 386.765 -3.11787 -2.67019 0
M  V30 3855 H 385.426 -1.9716 -2.44514 0
M  V30 3856 H 384.619 -4.35057 -2.54443 0
M  V30 3857 H 384.221 -3.61022 -0.976672 0
M  V30 3858 H 386.513 -6.10874 -2.92983 0
M  V30 3859 H 387.456 -6.89258 -1.62262 0
M  V30 3860 H 387.864 -5.22709 -2.13156 0
M  V30 3861 N 387.262 0.0317525 -1.57568 0
M  V30 3862 C 388.225 1.01783 -2.0536 0
M  V30 3863 C 389.225 1.29203 -0.957253 0
M  V30 3864 O 390.415 1.24251 -1.22095 0
M  V30 3865 C 387.547 2.35137 -2.46827 0
M  V30 3866 H 388.74 0.605062 -2.93733 0
M  V30 3867 H 386.293 0.278514 -1.53799 0
M  V30 3868 H 387.028 2.81168 -1.61602 0
M  V30 3869 H 386.813 2.16566 -3.26866 0
M  V30 3870 H 388.303 3.05938 -2.84239 0
M  V30 3871 N 388.74 1.54641 0.303973 0
M  V30 3872 C 389.703 1.84646 1.35789 0
M  V30 3873 C 390.703 0.7192 1.4382 0
M  V30 3874 O 391.893 0.987491 1.43507 0
M  V30 3875 C 389.025 2.02407 2.74307 0
M  V30 3876 H 390.218 2.78829 1.10429 0
M  V30 3877 H 387.771 1.46658 0.540487 0
M  V30 3878 H 388.506 1.10502 3.04893 0
M  V30 3879 H 388.291 2.84453 2.69868 0
M  V30 3880 H 389.781 2.27002 3.50514 0
M  V30 3881 N 390.218 -0.567019 1.47046 0
M  V30 3882 C 391.467 -1.32091 1.5243 0
M  V30 3883 C 391.78 -1.94704 0.187021 0
M  V30 3884 O 392.986 -2.7124 0.118771 0
M  V30 3885 C 391.442 -2.39479 2.68659 0
M  V30 3886 C 391.05 -1.831 4.08874 0
M  V30 3887 C 392.794 -3.16111 2.83327 0
M  V30 3888 C 390.701 -2.8821 5.16419 0
M  V30 3889 H 389.631 -0.496629 0.56734 0
M  V30 3890 H 392.282 -0.603354 1.73297 0
M  V30 3891 H 390.664 -3.14105 2.41152 0
M  V30 3892 H 391.838 -1.14913 4.46242 0
M  V30 3893 H 390.153 -1.19085 3.99008 0
M  V30 3894 H 392.75 -3.94585 3.60842 0
M  V30 3895 H 393.093 -3.69686 1.91411 0
M  V30 3896 H 393.626 -2.48595 3.10556 0
M  V30 3897 H 390.365 -2.39504 6.10179 0
M  V30 3898 H 389.885 -3.54839 4.8358 0
M  V30 3899 H 391.564 -3.51881 5.42945 0
M  V30 3900 N 391.696 -1.35014 -0.812953 0
M  V30 3901 C 392.659 -1.27292 -1.90602 0
M  V30 3902 C 393.659 -0.185817 -1.59723 0
M  V30 3903 O 394.849 -0.439102 -1.68575 0
M  V30 3904 C 391.981 -0.967676 -3.26877 0
M  V30 3905 H 393.174 -2.24479 -1.9887 0
M  V30 3906 H 390.727 -1.19446 -1.00808 0
M  V30 3907 H 391.462 0.0005954 -3.243 0
M  V30 3908 H 391.247 -1.75412 -3.50675 0
M  V30 3909 H 392.737 -0.939085 -4.06904 0
M  V30 3910 N 393.175 1.03435 -1.18907 0
M  V30 3911 C 394.423 1.76394 -0.986382 0
M  V30 3912 C 394.744 1.88883 0.484567 0
M  V30 3913 O 394.014 1.41843 1.3512 0
M  V30 3914 H 392.594 0.65344 -0.361975 0
M  V30 3915 H 395.256 1.248 -1.49703 0
M  V30 3916 H 394.352 2.77424 -1.42978 0
M  V30 3917 N 394.653 0.992116 1.22453 0
M  V30 3918 C 396.069 0.702713 1.43297 0
M  V30 3919 C 396.269 -0.726909 1.87932 0
M  V30 3920 O 395.325 -1.49792 2.0327 0
M  V30 3921 C 396.638 1.70762 2.47509 0
M  V30 3922 C 398.186 1.72298 2.61309 0
M  V30 3923 C 398.661 2.71649 3.68742 0
M  V30 3924 N 400.152 2.70239 3.76199 0
M  V30 3925 C 400.887 3.43778 4.58917 0
M  V30 3926 N 400.383 4.26914 5.45633 0
M  V30 3927 N 402.176 3.32487 4.5322 0
M  V30 3928 H 394.327 1.91543 0.917871 0
M  V30 3929 H 396.59 0.826031 0.465162 0
M  V30 3930 H 396.296 2.73059 2.21657 0
M  V30 3931 H 396.17 1.49985 3.46099 0
M  V30 3932 H 398.557 0.706989 2.86506 0
M  V30 3933 H 398.638 1.97143 1.62997 0
M  V30 3934 H 398.282 3.73397 3.44292 0
M  V30 3935 H 398.212 2.44074 4.66622 0
M  V30 3936 H 400.703 2.09912 3.14237 0
M  V30 3937 H 401.016 4.79855 6.05771 0
M  V30 3938 H 399.361 4.31002 5.45218 0
M  V30 3939 H 402.552 2.6698 3.84499 0
M  V30 3940 H 402.725 3.90058 5.17454 0
M  V30 3941 N 396.131 -1.37776 0.765217 0
M  V30 3942 C 397.359 -2.04124 0.337767 0
M  V30 3943 C 397.774 -1.57715 -1.03785 0
M  V30 3944 O 397.131 -0.755447 -1.6613 0
M  V30 3945 C 397.182 -3.59658 0.364442 0
M  V30 3946 O 396.903 -4.04367 1.68579 0
M  V30 3947 C 398.404 -4.43236 -0.0754221 0
M  V30 3948 H 395.624 -0.655696 0.142491 0
M  V30 3949 H 398.168 -1.76238 1.03732 0
M  V30 3950 H 396.323 -3.86339 -0.286471 0
M  V30 3951 H 396.737 -4.98857 1.61993 0
M  V30 3952 H 398.211 -5.52 -0.00560067 0
M  V30 3953 H 398.688 -4.2455 -1.12491 0
M  V30 3954 H 399.294 -4.21767 0.547055 0
M  V30 3955 N 397.609 -0.515225 -1.4894 0
M  V30 3956 C 398.542 0.302518 -2.26186 0
M  V30 3957 C 399.52 0.957895 -1.31389 0
M  V30 3958 O 400.704 0.985198 -1.60705 0
M  V30 3959 C 397.831 1.42719 -3.07163 0
M  V30 3960 C 396.877 0.884736 -4.17223 0
M  V30 3961 S 397.71 -0.235767 -5.34981 0
M  V30 3962 C 398.866 0.891731 -6.19515 0
M  V30 3963 H 399.099 -0.353076 -2.95196 0
M  V30 3964 H 396.632 -0.300753 -1.51443 0
M  V30 3965 H 398.59 2.07152 -3.54398 0
M  V30 3966 H 397.251 2.05445 -2.37595 0
M  V30 3967 H 396.444 1.72801 -4.73451 0
M  V30 3968 H 396.046 0.317362 -3.72651 0
M  V30 3969 H 398.338 1.79377 -6.53322 0
M  V30 3970 H 399.281 0.367751 -7.07144 0
M  V30 3971 H 399.689 1.16548 -5.52338 0
M  V30 3972 N 399.087 1.5561 -0.249682 0
M  V30 3973 C 400.037 2.18157 0.662673 0
M  V30 3974 C 401.021 1.1383 1.13717 0
M  V30 3975 O 402.213 1.39731 1.08648 0
M  V30 3976 C 399.342 2.88672 1.85805 0
M  V30 3977 C 398.428 4.00258 1.40193 0
M  V30 3978 N 398.819 5.01473 0.660213 0
M  V30 3979 C 397.117 4.12864 1.68698 0
M  V30 3980 C 397.818 5.80155 0.423695 0
M  V30 3981 N 396.794 5.34533 0.988721 0
M  V30 3982 H 400.596 2.93769 0.0878688 0
M  V30 3983 H 398.11 1.62316 -0.0521183 0
M  V30 3984 H 400.107 3.31912 2.5227 0
M  V30 3985 H 398.767 2.14564 2.43705 0
M  V30 3986 H 399.778 5.16971 0.310047 0
M  V30 3987 H 396.455 3.4993 2.27717 0
M  V30 3988 H 397.845 6.71688 -0.168616 0
M  V30 3989 N 400.565 -0.0233959 1.57583 0
M  V30 3990 C 401.793 -0.724682 1.93794 0
M  V30 3991 C 402.208 -1.68588 0.849912 0
M  V30 3992 O 401.565 -1.81676 -0.173204 0
M  V30 3993 C 401.616 -1.47684 3.29957 0
M  V30 3994 O 401.337 -0.554222 4.3458 0
M  V30 3995 C 402.838 -2.27477 3.80485 0
M  V30 3996 H 400.058 -0.203317 0.639455 0
M  V30 3997 H 402.602 0.0207653 2.04489 0
M  V30 3998 H 400.757 -2.17412 3.20641 0
M  V30 3999 H 401.171 -1.08232 5.13212 0
M  V30 4000 H 402.645 -2.7564 4.78254 0
M  V30 4001 H 403.122 -3.09144 3.11972 0
M  V30 4002 H 403.728 -1.62813 3.92902 0
M  V30 4003 N 402.043 -1.548 -0.295768 0
M  V30 4004 C 403.29 -1.74329 -1.03032 0
M  V30 4005 C 403.618 -0.531915 -1.87085 0
M  V30 4006 O 402.873 0.486052 -1.89568 0
M  V30 4007 C 403.172 -2.98797 -1.961 0
M  V30 4008 C 402.838 -4.32356 -1.2798 0
M  V30 4009 C 401.5 -4.68661 -1.09135 0
M  V30 4010 C 403.852 -5.15128 -0.793243 0
M  V30 4011 C 401.18 -5.85312 -0.403269 0
M  V30 4012 C 403.532 -6.32488 -0.118854 0
M  V30 4013 C 402.196 -6.6745 0.0815043 0
M  V30 4014 H 401.466 -0.637916 -0.37702 0
M  V30 4015 H 404.113 -1.8906 -0.304696 0
M  V30 4016 H 402.418 -2.78869 -2.75207 0
M  V30 4017 H 404.115 -3.11102 -2.53015 0
M  V30 4018 H 400.705 -4.03808 -1.43655 0
M  V30 4019 H 404.889 -4.87575 -0.92653 0
M  V30 4020 H 400.145 -6.1094 -0.237098 0
M  V30 4021 H 404.319 -6.95892 0.266035 0
M  V30 4022 H 401.946 -7.57695 0.616685 0
M  V30 4023 N 403.521 0.559213 -1.47345 0
M  V30 4024 C 404.471 1.66192 -1.5609 0
M  V30 4025 C 405.455 1.55323 -0.419957 0
M  V30 4026 O 406.647 1.63839 -0.669762 0
M  V30 4027 C 403.776 3.0497 -1.57634 0
M  V30 4028 C 402.862 3.2105 -2.77106 0
M  V30 4029 N 403.253 3.07203 -4.01821 0
M  V30 4030 C 401.551 3.52046 -2.73825 0
M  V30 4031 C 402.252 3.25919 -4.81821 0
M  V30 4032 N 401.228 3.52161 -4.14106 0
M  V30 4033 H 405.03 1.54052 -2.5029 0
M  V30 4034 H 402.544 0.763914 -1.43311 0
M  V30 4035 H 404.541 3.84142 -1.61989 0
M  V30 4036 H 403.201 3.18224 -0.645281 0
M  V30 4037 H 404.212 2.84572 -4.32711 0
M  V30 4038 H 400.889 3.71839 -1.89848 0
M  V30 4039 H 402.279 3.20198 -5.90697 0
M  V30 4040 N 404.999 1.35443 0.805782 0
M  V30 4041 C 406.227 1.31878 1.59423 0
M  V30 4042 C 406.642 -0.103562 1.88516 0
M  V30 4043 O 405.999 -1.05575 1.48863 0
M  V30 4044 C 406.05 2.12426 2.92502 0
M  V30 4045 O 405.771 3.49115 2.6467 0
M  V30 4046 C 407.272 2.16455 3.86862 0
M  V30 4047 H 404.492 0.453002 0.495005 0
M  V30 4048 H 407.036 1.78309 1.00131 0
M  V30 4049 H 405.191 1.69593 3.48306 0
M  V30 4050 H 405.605 3.90957 3.49647 0
M  V30 4051 H 407.079 2.77204 4.77349 0
M  V30 4052 H 407.556 1.16352 4.23508 0
M  V30 4053 H 408.162 2.59453 3.36993 0
M  V30 4054 N 406.477 -1.02803 1.19454 0
M  V30 4055 C 407.387 -2.14575 0.948408 0
M  V30 4056 C 408.403 -1.73757 -0.091871 0
M  V30 4057 O 409.579 -2.01185 0.0929654 0
M  V30 4058 C 406.644 -3.43202 0.491265 0
M  V30 4059 C 405.705 -3.98328 1.60103 0
M  V30 4060 C 404.938 -5.20816 1.16561 0
M  V30 4061 O 405.161 -5.70392 0.0295238 0
M  V30 4062 O 404.095 -5.68801 1.96849 0
M  V30 4063 H 407.921 -2.38202 1.88397 0
M  V30 4064 H 405.506 -1.12989 0.977433 0
M  V30 4065 H 407.388 -4.20687 0.245015 0
M  V30 4066 H 406.063 -3.21018 -0.415851 0
M  V30 4067 H 404.97 -3.22174 1.90144 0
M  V30 4068 H 406.303 -4.24879 2.48473 0
M  V30 4069 N 407.956 -0.998596 -1.21925 0
M  V30 4070 C 409.204 -0.676325 -1.90448 0
M  V30 4071 C 409.525 0.794719 -1.78071 0
M  V30 4072 O 408.795 1.5701 -1.17152 0
M  V30 4073 H 407.375 -0.247165 -0.704925 0
M  V30 4074 H 410.037 -1.26633 -1.48156 0
M  V30 4075 H 409.133 -0.943858 -2.97486 0
M  V30 4076 N 409.434 1.37368 -0.772513 0
M  V30 4077 C 410.397 2.28601 -0.165541 0
M  V30 4078 C 411.397 1.48062 0.627238 0
M  V30 4079 O 412.587 1.68268 0.450715 0
M  V30 4080 C 409.719 3.32023 0.772897 0
M  V30 4081 H 410.912 2.83787 -0.969787 0
M  V30 4082 H 408.465 1.46647 -0.540775 0
M  V30 4083 H 409.2 2.81962 1.60212 0
M  V30 4084 H 408.985 3.91555 0.206585 0
M  V30 4085 H 410.475 4.00197 1.19298 0
M  V30 4086 N 410.912 0.523116 1.48665 0
M  V30 4087 C 412.16 -0.0134497 2.02096 0
M  V30 4088 C 412.481 -1.35418 1.40311 0
M  V30 4089 O 411.751 -1.87543 0.566074 0
M  V30 4090 H 410.331 -0.00795915 0.746958 0
M  V30 4091 H 412.993 0.685388 1.82451 0
M  V30 4092 H 412.089 -0.126849 3.11842 0
M  V30 4093 N 412.39 -1.55475 0.257931 0
M  V30 4094 C 413.638 -1.98813 -0.363009 0
M  V30 4095 C 413.959 -1.14757 -1.57657 0
M  V30 4096 O 413.229 -0.232956 -1.9451 0
M  V30 4097 H 411.809 -0.734308 -0.137113 0
M  V30 4098 H 414.471 -1.9156 0.359281 0
M  V30 4099 H 413.567 -3.04941 -0.664634 0
M  V30 4100 N 413.868 0.0150385 -1.57593 0
M  V30 4101 C 415.116 0.701613 -1.8953 0
M  V30 4102 C 415.437 1.75139 -0.857396 0
M  V30 4103 O 414.707 1.95607 0.107194 0
M  V30 4104 H 413.287 0.26213 -0.699498 0
M  V30 4105 H 415.949 -0.0223304 -1.94887 0
M  V30 4106 H 415.045 1.18236 -2.88837 0
M  V30 4107 N 415.346 1.54954 0.287554 0
M  V30 4108 C 416.296 1.8322 1.357 0
M  V30 4109 C 417.28 0.690152 1.45347 0
M  V30 4110 O 418.472 0.951137 1.49273 0
M  V30 4111 C 415.601 2.09481 2.71979 0
M  V30 4112 C 414.687 3.29906 2.66502 0
M  V30 4113 N 415.078 4.50154 2.30641 0
M  V30 4114 C 413.376 3.32203 2.97585 0
M  V30 4115 C 414.077 5.32209 2.34794 0
M  V30 4116 N 413.053 4.70258 2.72688 0
M  V30 4117 H 416.855 2.73746 1.0696 0
M  V30 4118 H 414.369 1.54635 0.496167 0
M  V30 4119 H 416.366 2.27882 3.49107 0
M  V30 4120 H 415.026 1.2023 3.0162 0
M  V30 4121 H 416.037 4.76515 2.02865 0
M  V30 4122 H 412.714 2.53101 3.32034 0
M  V30 4123 H 414.104 6.38321 2.09753 0
M  V30 4124 N 416.824 -0.551391 1.4764 0
M  V30 4125 C 417.787 -1.64007 1.60107 0
M  V30 4126 C 418.787 -1.53601 0.47576 0
M  V30 4127 O 419.977 -1.57655 0.740988 0
M  V30 4128 C 417.109 -3.03569 1.55108 0
M  V30 4129 H 418.302 -1.543 2.57161 0
M  V30 4130 H 415.855 -0.771776 1.35917 0
M  V30 4131 H 416.59 -3.18804 0.594519 0
M  V30 4132 H 416.375 -3.12532 2.36783 0
M  V30 4133 H 417.865 -3.82762 1.66982 0
M  V30 4134 N 418.302 -1.35869 -0.798587 0
M  V30 4135 C 419.713 -1.26498 -1.37314 0
M  V30 4136 C 420.064 0.0991899 -1.95949 0
M  V30 4137 O 419.189 1.0004 -1.91888 0
M  V30 4138 C 419.784 -2.29054 -2.49639 0
M  V30 4139 C 418.343 -2.234 -3.02935 0
M  V30 4140 C 417.49 -2.14329 -1.75949 0
M  V30 4141 H 420.441 -1.46881 -0.600971 0
M  V30 4142 H 420.462 -1.92166 -3.28409 0
M  V30 4143 H 419.974 -3.2833 -2.06933 0
M  V30 4144 H 418.075 -1.27562 -3.50084 0
M  V30 4145 H 418.188 -3.15703 -3.60372 0
M  V30 4146 H 416.552 -1.60435 -1.9782 0
M  V30 4147 H 417.335 -3.15477 -1.35384 0
M  V30 4148 N 419.78 1.02168 -1.19998 0
M  V30 4149 C 421.057 1.72816 -0.916191 0
M  V30 4150 C 421.437 2.03081 0.576325 0
M  V30 4151 O 420.785 1.69122 1.53656 0
M  V30 4152 C 420.995 2.9997 -1.78378 0
M  V30 4153 C 422.343 3.73336 -2.02251 0
M  V30 4154 O 423.367 3.09914 -1.75589 0
M  V30 4155 O 422.226 4.87371 -2.47249 0
M  V30 4156 H 419.32 0.752924 -0.342103 0
M  V30 4157 H 421.866 1.08062 -1.30846 0
M  V30 4158 H 420.638 2.73888 -2.79466 0
M  V30 4159 H 420.261 3.72464 -1.39126 0
M  V30 4160 N 421.258 1.00505 1.21394 0
M  V30 4161 C 422.507 0.683159 1.89778 0
M  V30 4162 C 422.82 -0.789471 1.7896 0
M  V30 4163 O 424.026 -1.22344 2.42372 0
M  V30 4164 C 422.482 1.17146 3.40301 0
M  V30 4165 C 422.09 2.67017 3.5973 0
M  V30 4166 C 423.834 0.924461 4.14311 0
M  V30 4167 C 421.741 3.09387 5.04017 0
M  V30 4168 H 420.671 0.25183 0.710702 0
M  V30 4169 H 423.322 1.21622 1.37406 0
M  V30 4170 H 421.704 0.566451 3.91928 0
M  V30 4171 H 422.878 3.32968 3.18542 0
M  V30 4172 H 421.193 2.89732 2.99073 0
M  V30 4173 H 423.79 1.21658 5.20676 0
M  V30 4174 H 424.133 -0.139286 4.16067 0
M  V30 4175 H 424.666 1.49226 3.6875 0
M  V30 4176 H 421.405 4.14989 5.07409 0
M  V30 4177 H 420.925 2.48149 5.46061 0
M  V30 4178 H 422.604 3.01371 5.72525 0
M  V30 4179 N 422.737 -1.36956 0.779787 0
M  V30 4180 C 423.986 -1.98738 0.344405 0
M  V30 4181 C 424.299 -1.62596 -1.08728 0
M  V30 4182 O 425.505 -2.1754 -1.62445 0
M  V30 4183 C 423.961 -3.5544 0.564829 0
M  V30 4184 C 423.569 -4.00514 2.0073 0
M  V30 4185 C 425.313 -4.24059 0.193471 0
M  V30 4186 C 423.22 -5.49957 2.17489 0
M  V30 4187 H 422.15 -0.743561 0.12503 0
M  V30 4188 H 424.801 -1.56381 0.960057 0
M  V30 4189 H 423.183 -3.95817 -0.120397 0
M  V30 4190 H 424.357 -3.71362 2.72814 0
M  V30 4191 H 422.672 -3.44703 2.336 0
M  V30 4192 H 425.269 -5.33874 0.297097 0
M  V30 4193 H 425.612 -4.07378 -0.857263 0
M  V30 4194 H 426.145 -3.89012 0.831556 0
M  V30 4195 H 422.884 -5.71574 3.2091 0
M  V30 4196 H 422.404 -5.80767 1.49899 0
M  V30 4197 H 424.083 -6.16043 1.97738 0
M  V30 4198 N 424.215 -0.530993 -1.48385 0
M  V30 4199 C 425.162 0.231223 -2.29639 0
M  V30 4200 C 426.132 0.932864 -1.37429 0
M  V30 4201 O 427.317 0.933692 -1.66394 0
M  V30 4202 C 424.457 1.27155 -3.2082 0
M  V30 4203 C 423.57 0.578655 -4.28107 0
M  V30 4204 C 422.705 1.602 -5.06467 0
M  V30 4205 C 421.744 0.892625 -6.05556 0
M  V30 4206 N 420.881 1.86157 -6.76971 0
M  V30 4207 H 425.721 -0.467848 -2.94305 0
M  V30 4208 H 423.258 -0.242556 -1.45086 0
M  V30 4209 H 425.216 1.88703 -3.72085 0
M  V30 4210 H 423.846 1.939 -2.58075 0
M  V30 4211 H 422.898 -0.150782 -3.80101 0
M  V30 4212 H 424.21 0.0217065 -4.98795 0
M  V30 4213 H 423.364 2.29173 -5.61751 0
M  V30 4214 H 422.103 2.19285 -4.35621 0
M  V30 4215 H 421.108 0.188829 -5.49476 0
M  V30 4216 H 422.333 0.307878 -6.78402 0
M  V30 4217 H 420.279 2.44147 -6.08875 0
M  V30 4218 H 420.196 1.35608 -7.43738 0
M  V30 4219 H 421.464 2.54325 -7.36844 0
M  V30 4220 N 425.693 1.55336 -0.266172 0
M  V30 4221 C 426.939 1.99692 0.353681 0
M  V30 4222 C 427.272 1.1543 1.56172 0
M  V30 4223 O 426.547 0.222218 1.93226 0
M  V30 4224 C 426.83 3.52316 0.74466 0
M  V30 4225 C 426.683 4.47337 -0.470101 0
M  V30 4226 C 428.002 4.10588 1.58447 0
M  V30 4227 H 425.121 0.725961 0.12708 0
M  V30 4228 H 427.763 1.86336 -0.371333 0
M  V30 4229 H 425.913 3.63829 1.36239 0
M  V30 4230 H 427.585 4.4778 -1.10864 0
M  V30 4231 H 425.828 4.19364 -1.10978 0
M  V30 4232 H 426.499 5.51788 -0.15291 0
M  V30 4233 H 428.975 4.02297 1.06286 0
M  V30 4234 H 427.851 5.17607 1.82686 0
M  V30 4235 H 428.112 3.60253 2.56262 0
M  V30 4236 N 427.171 -0.0066808 1.57599 0
M  V30 4237 C 428.134 -0.985035 2.06953 0
M  V30 4238 C 429.134 -1.27663 0.977687 0
M  V30 4239 O 430.324 -1.22293 1.24057 0
M  V30 4240 C 427.456 -2.3118 2.50536 0
M  V30 4241 H 428.649 -0.558255 2.94658 0
M  V30 4242 H 426.202 -0.254011 1.54222 0
M  V30 4243 H 426.937 -2.78561 1.66054 0
M  V30 4244 H 426.722 -2.11338 3.3027 0
M  V30 4245 H 428.212 -3.01377 2.8907 0
M  V30 4246 N 428.649 -1.55105 -0.279332 0
M  V30 4247 C 429.897 -1.75066 -1.00977 0
M  V30 4248 C 430.218 -0.551276 -1.87045 0
M  V30 4249 O 429.488 0.433984 -1.91032 0
M  V30 4250 H 428.068 -0.645578 -0.375816 0
M  V30 4251 H 430.73 -1.92497 -0.305089 0
M  V30 4252 H 429.826 -2.64894 -1.65038 0
M  V30 4253 N 430.127 0.543554 -1.4793 0
M  V30 4254 C 431.037 1.67657 -1.64098 0
M  V30 4255 C 432.053 1.65934 -0.523622 0
M  V30 4256 O 433.229 1.85133 -0.792943 0
M  V30 4257 C 430.294 3.04146 -1.66421 0
M  V30 4258 C 429.355 3.16831 -2.89684 0
M  V30 4259 C 428.588 4.46809 -2.91886 0
M  V30 4260 O 428.811 5.33095 -2.02895 0
M  V30 4261 O 427.745 4.63573 -3.83906 0
M  V30 4262 H 431.571 1.56957 -2.59997 0
M  V30 4263 H 429.156 0.715116 -1.31173 0
M  V30 4264 H 431.038 3.85346 -1.70548 0
M  V30 4265 H 429.713 3.152 -0.736923 0
M  V30 4266 H 428.62 2.34977 -2.91095 0
M  V30 4267 H 429.953 3.10687 -3.81752 0
M  V30 4268 N 431.605 1.3629 0.791371 0
M  V30 4269 C 432.555 1.26988 1.89362 0
M  V30 4270 C 433.539 0.161795 1.60084 0
M  V30 4271 O 434.731 0.394426 1.72549 0
M  V30 4272 C 431.86 1.05944 3.26544 0
M  V30 4273 C 430.946 2.21211 3.61838 0
M  V30 4274 N 431.337 3.46518 3.68455 0
M  V30 4275 C 429.635 2.12933 3.91887 0
M  V30 4276 C 430.336 4.2241 3.99931 0
M  V30 4277 N 429.312 3.51329 4.14812 0
M  V30 4278 H 433.114 2.21908 1.92702 0
M  V30 4279 H 430.628 1.28982 0.986787 0
M  V30 4280 H 432.625 0.973666 4.05371 0
M  V30 4281 H 431.285 0.119223 3.24481 0
M  V30 4282 H 432.296 3.80677 3.51148 0
M  V30 4283 H 428.973 1.26855 3.97761 0
M  V30 4284 H 430.363 5.30767 4.1199 0
M  V30 4285 N 433.083 -1.0153 1.20538 0
M  V30 4286 C 434.031 -2.12215 0.952235 0
M  V30 4287 C 435.025 -1.69123 -0.0968735 0
M  V30 4288 O 436.231 -1.7992 0.0536006 0
M  V30 4289 H 432.606 -0.693576 0.290613 0
M  V30 4290 H 434.577 -2.3075 1.89201 0
M  V30 4291 C 433.326 -3.43755 0.522287 0
M  V30 4292 H 432.649 -3.7734 1.32115 0
M  V30 4293 H 434.089 -4.22254 0.384389 0
M  V30 4294 C 432.548 -3.28088 -0.765489 0
M  V30 4295 O 433.078 -3.57921 -1.8236 0
M  V30 4296 N 431.284 -2.81333 -0.728011 0
M  V30 4297 H 430.831 -2.57255 0.133332 0
M  V30 4298 H 430.789 -2.71232 -1.58999 0
M  V30 4299 N 434.561 -1.01147 -1.20859 0
M  V30 4300 C 435.81 -0.693214 -1.89413 0
M  V30 4301 C 436.123 0.779969 -1.79376 0
M  V30 4302 O 437.329 1.21057 -2.43017 0
M  V30 4303 C 435.785 -1.18949 -3.39675 0
M  V30 4304 C 435.393 -2.68921 -3.58309 0
M  V30 4305 C 437.137 -0.94642 -4.13815 0
M  V30 4306 C 435.044 -3.12056 -5.0237 0
M  V30 4307 H 433.974 -0.255595 -0.709357 0
M  V30 4308 H 436.625 -1.22349 -1.36759 0
M  V30 4309 H 435.007 -0.587228 -3.91622 0
M  V30 4310 H 436.181 -3.34652 -3.16772 0
M  V30 4311 H 434.496 -2.91314 -2.97532 0
M  V30 4312 H 437.093 -1.24417 -5.20023 0
M  V30 4313 H 437.436 0.117219 -4.16135 0
M  V30 4314 H 437.969 -1.5118 -3.67953 0
M  V30 4315 H 434.708 -4.17674 -5.05202 0
M  V30 4316 H 434.228 -2.51041 -5.44737 0
M  V30 4317 H 435.907 -3.04403 -5.70918 0
M  V30 4318 N 436.039 1.36541 -0.78704 0
M  V30 4319 C 436.969 2.32659 -0.197992 0
M  V30 4320 C 437.95 1.56533 0.665697 0
M  V30 4321 O 439.135 1.84698 0.60001 0
M  V30 4322 C 436.265 3.40778 0.669901 0
M  V30 4323 C 435.219 4.27897 -0.0937039 0
M  V30 4324 C 434.545 5.27163 0.894629 0
M  V30 4325 C 435.845 5.06334 -1.28154 0
M  V30 4326 H 437.539 2.82171 -1.00099 0
M  V30 4327 H 435.085 1.35665 -0.482793 0
M  V30 4328 H 437.038 4.07008 1.09191 0
M  V30 4329 H 435.762 2.89827 1.50558 0
M  V30 4330 H 434.421 3.6322 -0.49666 0
M  V30 4331 H 434.069 4.72486 1.72527 0
M  V30 4332 H 433.769 5.86317 0.388149 0
M  V30 4333 H 435.293 5.96266 1.31525 0
M  V30 4334 H 436.707 5.65617 -0.93541 0
M  V30 4335 H 435.104 5.74888 -1.72115 0
M  V30 4336 H 436.174 4.38114 -2.07807 0
M  V30 4337 N 437.518 0.538854 1.48102 0
M  V30 4338 C 438.929 0.100679 1.86428 0
M  V30 4339 C 439.28 -1.32447 1.44749 0
M  V30 4340 O 438.405 -1.99339 0.842199 0
M  V30 4341 C 439 0.175933 3.38343 0
M  V30 4342 C 437.559 -0.207098 3.7583 0
M  V30 4343 C 436.706 0.531741 2.72154 0
M  V30 4344 H 439.657 0.749614 1.3988 0
M  V30 4345 H 439.678 -0.610144 3.75576 0
M  V30 4346 H 439.19 1.21328 3.68648 0
M  V30 4347 H 437.291 -1.24626 3.5114 0
M  V30 4348 H 437.404 0.138687 4.78899 0
M  V30 4349 H 435.768 -0.0230462 2.5469 0
M  V30 4350 H 436.551 1.56989 3.05302 0
M  V30 4351 N 438.996 -1.55193 0.274407 0
M  V30 4352 C 439.959 -2.212 -0.600279 0
M  V30 4353 C 440.959 -1.18963 -1.08187 0
M  V30 4354 O 442.149 -1.43873 -0.982158 0
M  V30 4355 C 439.281 -2.87739 -1.82809 0
M  V30 4356 H 440.474 -2.9989 -0.0239682 0
M  V30 4357 H 438.027 -1.5628 0.0250192 0
M  V30 4358 H 438.762 -2.13058 -2.44493 0
M  V30 4359 H 438.547 -3.62658 -1.49069 0
M  V30 4360 H 440.037 -3.38171 -2.45011 0
M  V30 4361 N 440.474 -0.00167713 -1.576 0
M  V30 4362 C 441.699 0.69739 -1.95323 0
M  V30 4363 C 442.124 1.6642 -0.876706 0
M  V30 4364 O 441.482 1.80548 0.165007 0
M  V30 4365 C 441.53 1.40403 -3.32144 0
M  V30 4366 O 440.634 2.5185 -3.26566 0
M  V30 4367 H 439.975 0.185373 -0.637599 0
M  V30 4368 H 442.505 -0.0553665 -2.04525 0
M  V30 4369 H 442.515 1.76707 -3.67748 0
M  V30 4370 H 441.19 0.695167 -4.10049 0
M  V30 4371 H 439.767 2.17861 -3.0264 0
M  V30 4372 N 441.952 1.55251 0.271103 0
M  V30 4373 C 443.18 1.79974 1.02064 0
M  V30 4374 C 443.595 0.574003 1.79863 0
M  V30 4375 O 442.952 -0.456962 1.76686 0
M  V30 4376 C 443.003 3.02603 1.97772 0
M  V30 4377 O 442.724 4.20443 1.23124 0
M  V30 4378 C 444.225 3.39944 2.84522 0
M  V30 4379 H 441.445 0.599489 0.301419 0
M  V30 4380 H 443.989 2.02268 0.301313 0
M  V30 4381 H 442.144 2.8243 2.65165 0
M  V30 4382 H 442.558 4.89783 1.87651 0
M  V30 4383 H 444.032 4.28915 3.47471 0
M  V30 4384 H 444.509 2.59432 3.54389 0
M  V30 4385 H 445.115 3.62383 2.22618 0
M  V30 4386 N 443.43 -0.535701 1.48216 0
M  V30 4387 C 444.378 -1.66179 1.62749 0
M  V30 4388 C 445.372 -1.62034 0.49409 0
M  V30 4389 O 446.578 -1.6696 0.672624 0
M  V30 4390 H 442.953 -0.550244 0.512578 0
M  V30 4391 H 444.924 -1.51063 2.57337 0
M  V30 4392 C 443.673 -3.04471 1.67907 0
M  V30 4393 H 442.996 -3.08351 2.54479 0
M  V30 4394 H 444.436 -3.82894 1.82121 0
M  V30 4395 C 442.895 -3.34314 0.416596 0
M  V30 4396 O 443.425 -3.98905 -0.473014 0
M  V30 4397 N 441.631 -2.89149 0.290038 0
M  V30 4398 H 441.178 -2.36764 1.01493 0
M  V30 4399 H 441.136 -3.09486 -0.55367 0
M  V30 4400 N 444.908 -1.36708 -0.784132 0
M  V30 4401 C 446.319 -1.27947 -1.35965 0
M  V30 4402 C 446.67 0.0784013 -1.96043 0
M  V30 4403 O 445.795 0.979989 -1.92938 0
M  V30 4404 C 446.39 -2.31689 -2.47195 0
M  V30 4405 C 444.949 -2.26601 -3.00548 0
M  V30 4406 C 444.096 -2.16184 -1.73666 0
M  V30 4407 H 447.047 -1.4751 -0.585358 0
M  V30 4408 H 447.068 -1.95638 -3.26352 0
M  V30 4409 H 446.58 -3.30506 -2.03439 0
M  V30 4410 H 444.681 -1.31268 -3.48711 0
M  V30 4411 H 444.794 -3.19508 -3.57004 0
M  V30 4412 H 443.158 -1.62524 -1.96107 0
M  V30 4413 H 443.941 -3.16896 -1.32031 0
M  V30 4414 N 446.386 1.0089 -1.21074 0
M  V30 4415 C 447.614 1.78191 -1.05145 0
M  V30 4416 C 448.029 1.84537 0.398952 0
M  V30 4417 O 447.386 1.30393 1.27687 0
M  V30 4418 C 447.437 3.22288 -1.63746 0
M  V30 4419 O 447.158 3.16315 -3.03111 0
M  V30 4420 C 448.659 4.16106 -1.52875 0
M  V30 4421 H 445.879 0.560129 -0.369454 0
M  V30 4422 H 448.423 1.26945 -1.60328 0
M  V30 4423 H 446.578 3.70655 -1.12664 0
M  V30 4424 H 446.992 4.06817 -3.31059 0
M  V30 4425 H 448.466 5.15026 -1.98626 0
M  V30 4426 H 448.943 4.36541 -0.482521 0
M  V30 4427 H 449.549 3.73625 -2.03185 0
M  V30 4428 N 447.864 1.01787 1.20321 0
M  V30 4429 C 449.113 0.703249 1.89043 0
M  V30 4430 C 449.426 -0.770445 1.79787 0
M  V30 4431 O 450.632 -1.19767 2.43656 0
M  V30 4432 C 449.088 1.20749 3.3904 0
M  V30 4433 C 448.696 2.70817 3.56878 0
M  V30 4434 C 450.44 0.968352 4.13308 0
M  V30 4435 C 448.347 3.14716 5.00708 0
M  V30 4436 H 447.277 0.259354 0.707991 0
M  V30 4437 H 449.928 1.23072 1.36108 0
M  V30 4438 H 448.31 0.607989 3.91305 0
M  V30 4439 H 449.484 3.36327 3.14993 0
M  V30 4440 H 447.799 2.92888 2.95983 0
M  V30 4441 H 450.396 1.27173 5.19356 0
M  V30 4442 H 450.739 -0.095149 4.16191 0
M  V30 4443 H 451.272 1.53129 3.67146 0
M  V30 4444 H 448.011 4.20347 5.02979 0
M  V30 4445 H 447.531 2.53927 5.43398 0
M  V30 4446 H 449.21 3.07426 5.69296 0
M  V30 4447 N 449.342 -1.36122 0.79427 0
M  V30 4448 C 450.753 -1.81646 0.431446 0
M  V30 4449 C 451.104 -1.66043 -1.04518 0
M  V30 4450 O 450.229 -1.1841 -1.8113 0
M  V30 4451 C 450.824 -3.29785 0.776341 0
M  V30 4452 C 449.383 -3.73501 0.466282 0
M  V30 4453 C 448.53 -2.58313 1.00844 0
M  V30 4454 H 451.481 -1.24274 0.986995 0
M  V30 4455 H 451.502 -3.80437 0.0692413 0
M  V30 4456 H 451.014 -3.4111 1.8511 0
M  V30 4457 H 449.115 -3.67733 -0.600245 0
M  V30 4458 H 449.228 -4.68754 0.990288 0
M  V30 4459 H 447.592 -2.5102 0.431406 0
M  V30 4460 H 448.375 -2.72421 2.08906 0
M  V30 4461 N 450.82 -0.546701 -1.47814 0
M  V30 4462 C 452.067 -0.0187407 -2.02491 0
M  V30 4463 C 452.395 1.32685 -1.42215 0
M  V30 4464 O 451.65 1.87413 -0.563454 0
M  V30 4465 C 451.949 0.134869 -3.57145 0
M  V30 4466 C 451.615 -1.13849 -4.3629 0
M  V30 4467 C 450.277 -1.48743 -4.57634 0
M  V30 4468 C 452.629 -1.98277 -4.82012 0
M  V30 4469 C 449.957 -2.67932 -5.21948 0
M  V30 4470 C 452.309 -3.16659 -5.4764 0
M  V30 4471 C 450.973 -3.51879 -5.67219 0
M  V30 4472 H 450.243 -0.0068577 -0.740968 0
M  V30 4473 H 452.89 -0.716097 -1.77607 0
M  V30 4474 H 451.195 0.915118 -3.80963 0
M  V30 4475 H 452.892 0.558556 -3.97091 0
M  V30 4476 H 449.482 -0.856767 -4.19949 0
M  V30 4477 H 453.666 -1.72628 -4.6531 0
M  V30 4478 H 448.922 -2.95401 -5.35302 0
M  V30 4479 H 453.096 -3.82374 -5.82033 0
M  V30 4480 H 450.723 -4.44331 -6.16825 0
M  V30 4481 N 452.299 1.55045 -0.282633 0
M  V30 4482 C 453.527 2.04168 0.33512 0
M  V30 4483 C 453.942 1.16071 1.48906 0
M  V30 4484 O 453.299 0.182391 1.81586 0
M  V30 4485 C 453.35 3.52332 0.808957 0
M  V30 4486 O 453.071 4.37078 -0.299038 0
M  V30 4487 C 454.572 4.17375 1.49375 0
M  V30 4488 H 451.792 0.666744 0.0754543 0
M  V30 4489 H 454.336 2.00205 -0.416918 0
M  V30 4490 H 452.491 3.56715 1.51106 0
M  V30 4491 H 452.905 5.24458 0.0665514 0
M  V30 4492 H 454.379 5.22627 1.77664 0
M  V30 4493 H 454.856 3.65999 2.42778 0
M  V30 4494 H 455.462 4.17016 0.835305 0
M  V30 4495 N 453.777 0.010035 1.57597 0
M  V30 4496 C 455.023 -0.673697 1.91283 0
M  V30 4497 C 455.356 -1.72863 0.884979 0
M  V30 4498 O 454.631 -1.94268 -0.0949487 0
M  V30 4499 C 454.914 -1.30766 3.35518 0
M  V30 4500 C 454.767 -0.263578 4.49027 0
M  V30 4501 C 456.086 -2.23105 3.79358 0
M  V30 4502 H 453.205 -0.243439 0.695634 0
M  V30 4503 H 455.847 0.0633864 1.89894 0
M  V30 4504 H 453.997 -1.93588 3.36832 0
M  V30 4505 H 455.669 0.365738 4.59848 0
M  V30 4506 H 453.912 0.413077 4.31829 0
M  V30 4507 H 454.583 -0.746398 5.4693 0
M  V30 4508 H 457.059 -1.70289 3.79659 0
M  V30 4509 H 455.935 -2.64424 4.81011 0
M  V30 4510 H 456.196 -3.11433 3.13787 0
M  V30 4511 N 455.255 -1.55392 -0.262866 0
M  V30 4512 C 456.203 -1.8977 -1.345 0
M  V30 4513 C 457.197 -0.775063 -1.50629 0
M  V30 4514 O 458.403 -0.959519 -1.52293 0
M  V30 4515 H 454.778 -0.602467 -0.450041 0
M  V30 4516 H 456.749 -2.80147 -1.02762 0
M  V30 4517 C 455.498 -2.19501 -2.69657 0
M  V30 4518 H 454.821 -3.05378 -2.5804 0
M  V30 4519 H 456.261 -2.47469 -3.44289 0
M  V30 4520 C 454.72 -1.00597 -3.21531 0
M  V30 4521 O 455.25 -0.245768 -4.00947 0
M  V30 4522 N 453.456 -0.800911 -2.79345 0
M  V30 4523 H 453.003 -1.42079 -2.14875 0
M  V30 4524 H 452.961 -0.00697996 -3.14399 0
M  V30 4525 N 456.733 0.527833 -1.48498 0
M  V30 4526 C 457.961 1.30823 -1.6029 0
M  V30 4527 C 458.376 1.86945 -0.263974 0
M  V30 4528 O 457.733 1.6651 0.747034 0
M  V30 4529 C 457.784 2.45756 -2.65116 0
M  V30 4530 O 457.505 1.91946 -3.93813 0
M  V30 4531 C 459.006 3.37543 -2.87367 0
M  V30 4532 H 456.226 0.397763 -0.540394 0
M  V30 4533 H 458.77 0.636529 -1.94341 0
M  V30 4534 H 456.925 3.08806 -2.33917 0
M  V30 4535 H 457.339 2.67195 -4.51339 0
M  V30 4536 H 458.813 4.14532 -3.6451 0
M  V30 4537 H 459.29 3.92905 -1.9627 0
M  V30 4538 H 459.896 2.80283 -3.19878 0
M  V30 4539 N 458.211 1.37122 0.776871 0
M  V30 4540 C 459.121 1.34651 1.9211 0
M  V30 4541 C 460.137 0.246824 1.7224 0
M  V30 4542 O 461.313 0.48134 1.95563 0
M  V30 4543 C 458.378 1.14748 3.2716 0
M  V30 4544 C 457.439 2.34308 3.5972 0
M  V30 4545 C 456.672 2.15345 4.88326 0
M  V30 4546 O 456.895 1.13507 5.58992 0
M  V30 4547 O 455.829 3.03414 5.1983 0
M  V30 4548 H 459.655 2.31013 1.97146 0
M  V30 4549 H 457.24 1.17799 0.918901 0
M  V30 4550 H 459.122 1.05616 4.0795 0
M  V30 4551 H 457.797 0.214562 3.22988 0
M  V30 4552 H 456.704 2.49011 2.79185 0
M  V30 4553 H 458.037 3.26149 3.68629 0
M  V30 4554 N 459.689 -1.00246 1.21608 0
M  V30 4555 C 460.652 -2.07233 0.979133 0
M  V30 4556 C 461.652 -1.6072 -0.0508219 0
M  V30 4557 O 462.842 -1.73196 0.186712 0
M  V30 4558 C 459.974 -3.37546 0.477016 0
M  V30 4559 H 461.167 -2.29687 1.92831 0
M  V30 4560 H 458.72 -1.17261 1.03342 0
M  V30 4561 H 459.455 -3.20773 -0.476966 0
M  V30 4562 H 459.24 -3.72638 1.21997 0
M  V30 4563 H 460.73 -4.16285 0.331181 0
M  V30 4564 N 461.167 -1.02423 -1.1978 0
M  V30 4565 C 462.077 -0.610919 -2.26506 0
M  V30 4566 C 463.093 0.355152 -1.70337 0
M  V30 4567 O 464.269 0.214195 -2.00258 0
M  V30 4568 C 461.334 0.0365921 -3.46681 0
M  V30 4569 C 460.395 -0.976389 -4.18049 0
M  V30 4570 C 459.628 -0.359683 -5.32487 0
M  V30 4571 O 459.851 0.838601 -5.64202 0
M  V30 4572 O 458.785 -1.08022 -5.92127 0
M  V30 4573 H 462.611 -1.49965 -2.64091 0
M  V30 4574 H 460.196 -0.794156 -1.26545 0
M  V30 4575 H 462.078 0.39786 -4.19518 0
M  V30 4576 H 460.753 0.899398 -3.10954 0
M  V30 4577 H 459.66 -1.38916 -3.47352 0
M  V30 4578 H 460.993 -1.80941 -4.57735 0
M  V30 4579 N 462.645 1.35699 -0.801477 0
M  V30 4580 C 463.595 2.2728 -0.181073 0
M  V30 4581 C 464.579 1.47533 0.642098 0
M  V30 4582 O 465.771 1.69785 0.500193 0
M  V30 4583 C 462.9 3.36626 0.673612 0
M  V30 4584 C 461.986 4.23802 -0.159008 0
M  V30 4585 N 462.377 4.90879 -1.2195 0
M  V30 4586 C 460.675 4.45959 0.0602005 0
M  V30 4587 C 461.376 5.5546 -1.72738 0
M  V30 4588 N 460.352 5.33663 -1.03465 0
M  V30 4589 H 464.154 2.76632 -0.992582 0
M  V30 4590 H 461.668 1.49166 -0.642127 0
M  V30 4591 H 463.665 4.01179 1.13408 0
M  V30 4592 H 462.325 2.88828 1.48353 0
M  V30 4593 H 463.336 4.92497 -1.60209 0
M  V30 4594 H 460.013 4.08969 0.839664 0
M  V30 4595 H 461.403 6.18991 -2.61342 0
M  V30 4596 N 464.123 0.554532 1.47522 0
M  V30 4597 C 465.056 -0.242442 2.26908 0
M  V30 4598 C 466.034 -0.922722 1.33883 0
M  V30 4599 O 467.218 -0.942244 1.63261 0
M  V30 4600 C 464.345 -1.34525 3.10839 0
M  V30 4601 C 463.391 -0.773805 4.19422 0
M  V30 4602 S 464.224 0.377525 5.34168 0
M  V30 4603 C 465.38 -0.727164 6.21662 0
M  V30 4604 H 465.613 0.431218 2.94156 0
M  V30 4605 H 463.146 0.3408 1.50592 0
M  V30 4606 H 465.104 -1.97683 3.59766 0
M  V30 4607 H 463.765 -1.99073 2.42958 0
M  V30 4608 H 462.958 -1.60187 4.77866 0
M  V30 4609 H 462.56 -0.218448 3.73361 0
M  V30 4610 H 464.852 -1.61992 6.57849 0
M  V30 4611 H 465.795 -0.180135 7.07871 0
M  V30 4612 H 466.203 -1.01863 5.55233 0
M  V30 4613 N 465.601 -1.54893 0.290851 0
M  V30 4614 C 466.878 -1.91991 -0.373989 0
M  V30 4615 C 467.258 -1.21694 -1.72493 0
M  V30 4616 O 466.606 -0.34917 -2.25816 0
M  V30 4617 C 466.816 -3.45419 -0.498703 0
M  V30 4618 C 468.164 -4.1748 -0.774298 0
M  V30 4619 O 469.188 -3.51398 -0.582908 0
M  V30 4620 O 468.047 -5.3445 -1.14129 0
M  V30 4621 H 465.141 -0.800593 -0.207315 0
M  V30 4622 H 467.687 -1.66297 0.338164 0
M  V30 4623 H 466.459 -3.88688 0.451392 0
M  V30 4624 H 466.082 -3.77117 -1.25972 0
M  V30 4625 N 467.08 -0.0183926 -1.57589 0
M  V30 4626 C 468.013 1.00148 -2.0505 0
M  V30 4627 C 468.991 1.32387 -0.944058 0
M  V30 4628 O 470.175 1.44237 -1.21358 0
M  V30 4629 C 467.302 2.32435 -2.46357 0
M  V30 4630 C 466.348 2.15731 -3.67916 0
M  V30 4631 S 467.181 1.46613 -5.15039 0
M  V30 4632 C 468.337 2.80293 -5.59631 0
M  V30 4633 H 468.57 0.597429 -2.91235 0
M  V30 4634 H 466.103 0.193002 -1.53189 0
M  V30 4635 H 468.061 3.0849 -2.70822 0
M  V30 4636 H 466.722 2.69975 -1.60537 0
M  V30 4637 H 465.915 3.13502 -3.9463 0
M  V30 4638 H 465.517 1.4782 -3.43548 0
M  V30 4639 H 467.809 3.76557 -5.63215 0
M  V30 4640 H 468.752 2.58256 -6.59325 0
M  V30 4641 H 469.16 2.85047 -4.87246 0
M  V30 4642 N 468.558 1.5553 0.254621 0
M  V30 4643 C 469.488 1.9268 1.31897 0
M  V30 4644 C 470.469 0.790797 1.506 0
M  V30 4645 O 471.654 1.05045 1.63337 0
M  V30 4646 C 468.784 2.21477 2.67517 0
M  V30 4647 C 467.738 3.37256 2.63519 0
M  V30 4648 C 467.064 3.51576 4.02862 0
M  V30 4649 C 468.364 4.73157 2.21179 0
M  V30 4650 H 470.058 2.81832 1.01051 0
M  V30 4651 H 467.604 1.35599 0.484662 0
M  V30 4652 H 469.557 2.46055 3.42104 0
M  V30 4653 H 468.281 1.29144 2.99982 0
M  V30 4654 H 466.94 3.12675 1.9139 0
M  V30 4655 H 466.588 2.56676 4.32581 0
M  V30 4656 H 466.288 4.2943 4.01078 0
M  V30 4657 H 467.812 3.78467 4.79161 0
M  V30 4658 H 469.226 4.97158 2.85494 0
M  V30 4659 H 467.623 5.54058 2.30521 0
M  V30 4660 H 468.693 4.70739 1.16332 0
M  V30 4661 N 470.036 -0.519951 1.48776 0
M  V30 4662 C 470.969 -1.64053 1.58625 0
M  V30 4663 C 471.947 -1.5664 0.43618 0
M  V30 4664 O 473.131 -1.76969 0.649159 0
M  V30 4665 C 470.258 -3.02497 1.52359 0
M  V30 4666 C 469.304 -3.28235 2.72331 0
M  V30 4667 S 470.137 -3.13414 4.34203 0
M  V30 4668 C 471.293 -4.54287 4.30551 0
M  V30 4669 H 471.526 -1.5545 2.53422 0
M  V30 4670 H 469.059 -0.703681 1.37433 0
M  V30 4671 H 471.017 -3.82336 1.4943 0
M  V30 4672 H 469.678 -3.08531 0.588824 0
M  V30 4673 H 468.871 -4.29256 2.64113 0
M  V30 4674 H 468.473 -2.56085 2.72574 0
M  V30 4675 H 470.765 -5.46006 4.01103 0
M  V30 4676 H 471.708 -4.67558 5.31785 0
M  V30 4677 H 472.116 -4.34079 3.60881 0
M  V30 4678 N 471.514 -1.37532 -0.769588 0
M  V30 4679 C 472.76 -1.33057 -1.53048 0
M  V30 4680 C 473.093 0.0841865 -1.94017 0
M  V30 4681 O 472.368 1.04198 -1.64235 0
M  V30 4682 C 472.651 -2.27166 -2.79406 0
M  V30 4683 C 472.504 -3.77429 -2.44677 0
M  V30 4684 C 473.823 -2.19683 -3.81349 0
M  V30 4685 H 470.942 -0.484655 -0.555228 0
M  V30 4686 H 473.584 -1.68251 -0.882702 0
M  V30 4687 H 471.734 -1.97283 -3.34682 0
M  V30 4688 H 473.406 -4.17918 -1.953 0
M  V30 4689 H 471.649 -3.95892 -1.77346 0
M  V30 4690 H 472.32 -4.38716 -3.35011 0
M  V30 4691 H 474.796 -2.46029 -3.35573 0
M  V30 4692 H 473.672 -2.87668 -4.67481 0
M  V30 4693 H 473.933 -1.19045 -4.25771 0
M  V30 4694 N 472.992 0.995999 -1.22138 0
M  V30 4695 C 474.232 1.75032 -1.05561 0
M  V30 4696 C 474.596 1.87729 0.402698 0
M  V30 4697 O 475.797 2.59813 0.689234 0
M  V30 4698 C 474.068 3.11973 -1.74379 0
M  V30 4699 S 475.627 4.03182 -1.73175 0
M  V30 4700 H 472.445 0.602137 -0.37809 0
M  V30 4701 H 475.047 1.19107 -1.55028 0
M  V30 4702 H 473.751 3.00371 -2.79652 0
M  V30 4703 H 473.282 3.7297 -1.25128 0
M  V30 4704 H 475.297 4.90043 -0.77923 0
M  V30 4705 N 474.47 1.03057 1.19235 0
M  V30 4706 C 475.42 0.583386 2.2041 0
M  V30 4707 C 476.404 -0.368776 1.56617 0
M  V30 4708 O 477.596 -0.189471 1.75983 0
M  V30 4709 C 474.725 -0.0626534 3.43243 0
M  V30 4710 C 473.811 0.91205 4.14177 0
M  V30 4711 N 474.202 2.07514 4.61272 0
M  V30 4712 C 472.5 0.735859 4.39888 0
M  V30 4713 C 473.201 2.69003 5.15764 0
M  V30 4714 N 472.177 1.96954 5.06666 0
M  V30 4715 H 475.979 1.46988 2.54503 0
M  V30 4716 H 473.493 0.897785 1.35328 0
M  V30 4717 H 475.49 -0.400653 4.1497 0
M  V30 4718 H 474.15 -0.944813 3.1065 0
M  V30 4719 H 475.161 2.45448 4.56043 0
M  V30 4720 H 471.838 -0.0970656 4.17387 0
M  V30 4721 H 473.228 3.67514 5.6248 0
M  V30 4722 N 475.948 -1.35272 0.808662 0
M  V30 4723 C 476.898 -2.27181 0.193124 0
M  V30 4724 C 477.882 -1.47871 -0.634265 0
M  V30 4725 O 479.074 -1.70048 -0.491182 0
M  V30 4726 C 476.203 -3.36979 -0.655751 0
M  V30 4727 C 475.289 -4.23712 0.181481 0
M  V30 4728 N 475.68 -4.90225 1.24551 0
M  V30 4729 C 473.978 -4.45985 -0.0365493 0
M  V30 4730 C 474.679 -5.54537 1.75682 0
M  V30 4731 N 473.655 -5.33107 1.06294 0
M  V30 4732 H 477.457 -2.76101 1.00724 0
M  V30 4733 H 474.971 -1.48823 0.650029 0
M  V30 4734 H 476.968 -4.01774 -1.11279 0
M  V30 4735 H 475.628 -2.89611 -1.46819 0
M  V30 4736 H 476.639 -4.91641 1.62818 0
M  V30 4737 H 473.316 -4.09409 -0.817964 0
M  V30 4738 H 474.706 -6.17597 2.64621 0
M  V30 4739 N 477.426 -0.562348 -1.47226 0
M  V30 4740 C 478.356 0.170627 -2.32876 0
M  V30 4741 C 479.337 0.903748 -1.44106 0
M  V30 4742 O 480.522 0.883206 -1.72954 0
M  V30 4743 C 477.652 1.19786 -3.25989 0
M  V30 4744 C 476.606 0.580875 -4.2404 0
M  V30 4745 C 475.932 1.71311 -5.06514 0
M  V30 4746 C 477.232 -0.468714 -5.20193 0
M  V30 4747 H 478.926 -0.544441 -2.94408 0
M  V30 4748 H 476.472 -0.263271 -1.41573 0
M  V30 4749 H 478.425 1.71884 -3.84752 0
M  V30 4750 H 477.149 1.94294 -2.62521 0
M  V30 4751 H 475.808 0.0811538 -3.6651 0
M  V30 4752 H 475.456 2.44736 -4.39447 0
M  V30 4753 H 475.156 1.30604 -5.72902 0
M  V30 4754 H 476.68 2.23725 -5.68137 0
M  V30 4755 H 478.094 -0.0336028 -5.7329 0
M  V30 4756 H 476.491 -0.794957 -5.94811 0
M  V30 4757 H 477.561 -1.36269 -4.65359 0
M  V30 4758 N 478.904 1.54736 -0.299062 0
M  V30 4759 C 480.181 1.92187 0.363802 0
M  V30 4760 C 480.561 1.22607 1.71845 0
M  V30 4761 O 479.909 0.361141 2.25628 0
M  V30 4762 C 480.119 3.45678 0.480377 0
M  V30 4763 C 481.467 4.17885 0.752147 0
M  V30 4764 O 482.491 3.51702 0.564264 0
M  V30 4765 O 481.35 5.35048 1.11294 0
M  V30 4766 H 478.444 0.801681 0.203066 0
M  V30 4767 H 480.99 1.66115 -0.346978 0
M  V30 4768 H 479.762 3.88443 -0.471999 0
M  V30 4769 H 479.385 3.77779 1.2397 0
M  V30 4770 N 480.382 0.0267497 1.57577 0
M  V30 4771 C 481.329 -0.955894 2.10075 0
M  V30 4772 C 482.299 -1.32453 1.00226 0
M  V30 4773 O 483.484 -1.41826 1.27632 0
M  V30 4774 C 480.624 -2.2338 2.6305 0
M  V30 4775 C 479.737 -1.92183 3.86898 0
M  V30 4776 C 478.872 -3.14251 4.28275 0
M  V30 4777 C 477.911 -2.78862 5.44888 0
M  V30 4778 N 477.048 -3.93548 5.81433 0
M  V30 4779 H 481.888 -0.501303 2.93753 0
M  V30 4780 H 479.425 -0.235847 1.45197 0
M  V30 4781 H 481.383 -2.98124 2.91853 0
M  V30 4782 H 480.013 -2.6646 1.82205 0
M  V30 4783 H 479.065 -1.07692 3.64838 0
M  V30 4784 H 480.377 -1.62117 4.7172 0
M  V30 4785 H 479.531 -3.97317 4.58502 0
M  V30 4786 H 478.27 -3.47476 3.42215 0
M  V30 4787 H 477.275 -1.94208 5.14357 0
M  V30 4788 H 478.5 -2.46855 6.32645 0
M  V30 4789 H 476.446 -4.2662 4.98328 0
M  V30 4790 H 476.363 -3.67098 6.6089 0
M  V30 4791 H 477.631 -4.77325 6.16264 0
M  V30 4792 N 481.861 -1.55662 -0.24637 0
M  V30 4793 C 483.086 -1.81914 -0.996093 0
M  V30 4794 C 483.511 -0.603875 -1.78143 0
M  V30 4795 O 482.869 0.447091 -1.75701 0
M  V30 4796 C 482.917 -3.05908 -1.90925 0
M  V30 4797 O 482.021 -2.82861 -3.00105 0
M  V30 4798 H 481.362 -0.600481 -0.283406 0
M  V30 4799 H 483.892 -2.02848 -0.267199 0
M  V30 4800 H 483.902 -3.35356 -2.3238 0
M  V30 4801 H 482.577 -3.93999 -1.33183 0
M  V30 4802 H 481.154 -2.64583 -2.62775 0
M  V30 4803 N 483.339 0.512053 -1.4905 0
M  V30 4804 C 484.588 1.26343 -1.57227 0
M  V30 4805 C 484.901 1.93876 -0.259155 0
M  V30 4806 O 486.107 2.70612 -0.219358 0
M  V30 4807 C 484.563 2.29343 -2.77362 0
M  V30 4808 C 484.171 1.67799 -4.15388 0
M  V30 4809 C 485.915 3.05378 -2.94864 0
M  V30 4810 C 483.822 2.68845 -5.2676 0
M  V30 4811 H 482.752 0.475231 -0.585382 0
M  V30 4812 H 485.403 0.53862 -1.75417 0
M  V30 4813 H 483.785 3.04938 -2.52643 0
M  V30 4814 H 484.959 0.982715 -4.50199 0
M  V30 4815 H 483.274 1.04194 -4.03153 0
M  V30 4816 H 485.871 3.80921 -3.75238 0
M  V30 4817 H 486.214 3.62327 -2.05 0
M  V30 4818 H 486.747 2.36898 -3.19569 0
M  V30 4819 H 483.486 2.16692 -6.18647 0
M  V30 4820 H 483.006 3.36647 -4.96416 0
M  V30 4821 H 484.685 3.31487 -5.5563 0
M  V30 4822 N 484.817 1.37938 0.762283 0
M  V30 4823 C 485.764 1.34467 1.87583 0
M  V30 4824 C 486.734 0.208633 1.64785 0
M  V30 4825 O 487.919 0.399494 1.86571 0
M  V30 4826 C 485.059 1.16692 3.24772 0
M  V30 4827 C 484.172 2.39608 3.59461 0
M  V30 4828 C 483.307 2.14631 4.85908 0
M  V30 4829 C 482.346 3.33364 5.13357 0
M  V30 4830 N 481.483 3.07877 6.30996 0
M  V30 4831 H 486.323 2.29669 1.89885 0
M  V30 4832 H 483.86 1.14116 0.928219 0
M  V30 4833 H 485.818 1.04405 4.03925 0
M  V30 4834 H 484.448 0.251333 3.2182 0
M  V30 4835 H 483.5 2.626 2.75219 0
M  V30 4836 H 484.812 3.28128 3.75678 0
M  V30 4837 H 483.966 1.99429 5.72986 0
M  V30 4838 H 482.705 1.23463 4.71814 0
M  V30 4839 H 481.71 3.49094 4.24751 0
M  V30 4840 H 482.935 4.25395 5.29354 0
M  V30 4841 H 480.881 2.19348 6.18241 0
M  V30 4842 H 480.798 3.89944 6.47673 0
M  V30 4843 H 482.066 2.96313 7.20985 0
M  V30 4844 N 486.295 -0.989507 1.22664 0
M  V30 4845 C 487.205 -2.11449 1.01619 0
M  V30 4846 C 488.221 -1.73962 -0.036545 0
M  V30 4847 O 489.397 -2.00788 0.156924 0
M  V30 4848 C 486.462 -3.41465 0.600204 0
M  V30 4849 C 485.523 -3.93033 1.72695 0
M  V30 4850 C 484.756 -5.16844 1.33071 0
M  V30 4851 O 484.979 -5.7001 0.210975 0
M  V30 4852 O 483.913 -5.6225 2.14845 0
M  V30 4853 H 487.739 -2.32088 1.9588 0
M  V30 4854 H 485.324 -1.09823 1.01289 0
M  V30 4855 H 487.206 -4.19695 0.37873 0
M  V30 4856 H 485.881 -3.22178 -0.313511 0
M  V30 4857 H 484.788 -3.15961 2.00298 0
M  V30 4858 H 486.121 -4.16758 2.61865 0
M  V30 4859 N 487.773 -1.03688 -1.18687 0
M  V30 4860 C 489.05 -0.652397 -1.84399 0
M  V30 4861 C 489.43 0.868386 -1.92412 0
M  V30 4862 O 488.778 1.76832 -1.44716 0
M  V30 4863 C 488.988 -1.3238 -3.22919 0
M  V30 4864 C 490.336 -1.45216 -3.98996 0
M  V30 4865 O 491.36 -1.2816 -3.32345 0
M  V30 4866 O 490.219 -1.72975 -5.18403 0
M  V30 4867 H 487.313 -0.227793 -0.795009 0
M  V30 4868 H 489.859 -1.13553 -1.2611 0
M  V30 4869 H 488.631 -2.36202 -3.11968 0
M  V30 4870 H 488.254 -0.829039 -3.88861 0
M  V30 4871 N 489.251 1.34841 -0.815825 0
M  V30 4872 C 490.497 1.98793 -0.401129 0
M  V30 4873 C 490.83 1.64548 1.03139 0
M  V30 4874 O 490.105 0.913487 1.71714 0
M  V30 4875 C 490.388 3.55143 -0.595409 0
M  V30 4876 C 490.241 3.99155 -2.07352 0
M  V30 4877 C 491.56 4.40092 -0.0268823 0
M  V30 4878 H 488.679 0.722146 -0.14722 0
M  V30 4879 H 491.321 1.59847 -1.02707 0
M  V30 4880 H 489.471 3.8845 -0.0625779 0
M  V30 4881 H 491.143 3.76216 -2.66945 0
M  V30 4882 H 489.386 3.49726 -2.56659 0
M  V30 4883 H 490.057 5.07971 -2.1603 0
M  V30 4884 H 492.533 4.13298 -0.482042 0
M  V30 4885 H 491.409 5.48562 -0.19267 0
M  V30 4886 H 491.67 4.29016 1.06759 0
M  V30 4887 N 490.729 0.570148 1.46925 0
M  V30 4888 C 491.661 -0.207909 2.28255 0
M  V30 4889 C 492.674 -0.867301 1.37774 0
M  V30 4890 O 493.863 -0.738976 1.62485 0
M  V30 4891 C 490.963 -1.31298 3.12433 0
M  V30 4892 C 490.136 -0.747915 4.30958 0
M  V30 4893 C 489.195 -1.7391 4.9663 0
M  V30 4894 O 488.221 -1.2801 5.54619 0
M  V30 4895 N 489.423 -3.07288 4.92498 0
M  V30 4896 H 492.188 0.489794 2.95671 0
M  V30 4897 H 489.749 0.407076 1.56699 0
M  V30 4898 H 491.741 -1.97507 3.53232 0
M  V30 4899 H 490.311 -1.91373 2.47175 0
M  V30 4900 H 489.531 0.0913066 3.94094 0
M  V30 4901 H 490.819 -0.349958 5.07595 0
M  V30 4902 H 490.217 -3.47213 4.46609 0
M  V30 4903 H 488.774 -3.69021 5.37277 0
M  V30 4904 N 492.207 -1.54576 0.307264 0
M  V30 4905 C 493.454 -2.00263 -0.300167 0
M  V30 4906 C 493.782 -1.19561 -1.53413 0
M  V30 4907 O 493.037 -0.261487 -1.93945 0
M  V30 4908 C 493.336 -3.50572 -0.695253 0
M  V30 4909 C 493.002 -4.48771 0.437679 0
M  V30 4910 C 491.664 -4.7534 0.748681 0
M  V30 4911 C 494.016 -5.0721 1.19949 0
M  V30 4912 C 491.344 -5.5761 1.8245 0
M  V30 4913 C 493.696 -5.90651 2.26527 0
M  V30 4914 C 492.36 -6.15528 2.58227 0
M  V30 4915 H 491.63 -0.732814 -0.109839 0
M  V30 4916 H 494.277 -1.86664 0.427661 0
M  V30 4917 H 492.582 -3.61814 -1.50326 0
M  V30 4918 H 494.279 -3.83352 -1.17653 0
M  V30 4919 H 490.869 -4.282 0.185187 0
M  V30 4920 H 495.053 -4.86679 0.972474 0
M  V30 4921 H 490.309 -5.75121 2.07476 0
M  V30 4922 H 494.483 -6.34957 2.86011 0
M  V30 4923 H 492.11 -6.79066 3.4172 0
M  V30 4924 N 493.685 -0.035106 -1.57561 0
M  V30 4925 C 494.648 0.929819 -2.09492 0
M  V30 4926 C 495.648 1.25026 -1.01119 0
M  V30 4927 O 496.838 1.18961 -1.27255 0
M  V30 4928 C 493.97 2.24457 -2.56577 0
M  V30 4929 H 495.163 0.479935 -2.96035 0
M  V30 4930 H 492.716 0.213033 -1.54841 0
M  V30 4931 H 493.451 2.74061 -1.73382 0
M  V30 4932 H 493.236 2.02508 -3.35757 0
M  V30 4933 H 494.726 2.93607 -2.96959 0
M  V30 4934 N 495.163 1.55791 0.238111 0
M  V30 4935 C 496.44 1.68798 0.98826 0
M  V30 4936 C 496.82 0.577562 2.03045 0
M  V30 4937 O 496.168 -0.41778 2.24648 0
M  V30 4938 C 496.378 3.09454 1.61367 0
M  V30 4939 C 497.726 3.68335 2.11221 0
M  V30 4940 O 498.75 3.1231 1.71292 0
M  V30 4941 O 497.609 4.6657 2.84561 0
M  V30 4942 H 494.703 0.686881 0.460568 0
M  V30 4943 H 497.249 1.68118 0.231202 0
M  V30 4944 H 496.021 3.81726 0.860295 0
M  V30 4945 H 495.644 3.14182 2.4367 0
M  V30 4946 N 496.642 -0.504142 1.49319 0
M  V30 4947 C 497.867 -1.28729 1.62615 0
M  V30 4948 C 498.292 -1.85752 0.296309 0
M  V30 4949 O 497.65 -1.65704 -0.735649 0
M  V30 4950 C 497.698 -2.39561 2.69524 0
M  V30 4951 O 496.802 -3.43324 2.28478 0
M  V30 4952 H 496.143 -0.380172 0.544395 0
M  V30 4953 H 498.673 -0.603872 1.95485 0
M  V30 4954 H 498.683 -2.8537 2.91595 0
M  V30 4955 H 497.358 -1.97423 3.66056 0
M  V30 4956 H 495.935 -3.03455 2.16725 0
M  V30 4957 N 498.12 -1.38341 -0.754957 0
M  V30 4958 C 499.536 -1.19508 -1.05783 0
M  V30 4959 C 499.736 -0.0428005 -2.01455 0
M  V30 4960 O 498.792 0.611861 -2.44975 0
M  V30 4961 C 500.105 -2.52091 -1.63923 0
M  V30 4962 C 501.653 -2.58762 -1.76101 0
M  V30 4963 C 502.128 -3.91517 -2.37652 0
M  V30 4964 N 503.619 -3.93049 -2.45085 0
M  V30 4965 C 504.354 -4.9253 -2.93602 0
M  V30 4966 N 503.85 -6.02408 -3.42165 0
M  V30 4967 N 505.643 -4.79921 -2.92629 0
M  V30 4968 H 497.794 -2.1206 -0.120056 0
M  V30 4969 H 500.057 -0.94089 -0.11589 0
M  V30 4970 H 499.763 -3.36858 -1.01093 0
M  V30 4971 H 499.637 -2.70388 -2.63003 0
M  V30 4972 H 502.024 -1.74391 -2.38058 0
M  V30 4973 H 502.105 -2.44333 -0.757294 0
M  V30 4974 H 501.749 -4.76309 -1.76329 0
M  V30 4975 H 501.679 -4.03256 -3.38662 0
M  V30 4976 H 504.17 -3.13685 -2.10736 0
M  V30 4977 H 504.483 -6.74248 -3.77637 0
M  V30 4978 H 502.828 -6.0603 -3.40225 0
M  V30 4979 H 506.019 -3.93194 -2.54001 0
M  V30 4980 H 506.192 -5.57601 -3.30128 0
M  V30 4981 N 499.598 0.982988 -1.23187 0
M  V30 4982 C 500.847 1.71817 -1.05649 0
M  V30 4983 C 501.16 1.91315 0.407176 0
M  V30 4984 O 502.366 2.62256 0.702436 0
M  V30 4985 C 500.822 3.09188 -1.84203 0
M  V30 4986 C 500.43 2.97586 -3.34882 0
M  V30 4987 C 502.174 3.86684 -1.75146 0
M  V30 4988 C 500.081 4.30173 -4.05839 0
M  V30 4989 H 499.011 0.644258 -0.391724 0
M  V30 4990 H 501.662 1.09659 -1.4713 0
M  V30 4991 H 500.044 3.72087 -1.35527 0
M  V30 4992 H 501.218 2.43793 -3.91026 0
M  V30 4993 H 499.533 2.33567 -3.44725 0
M  V30 4994 H 502.13 4.84836 -2.25473 0
M  V30 4995 H 502.473 4.10136 -0.713737 0
M  V30 4996 H 503.006 3.30482 -2.21419 0
M  V30 4997 H 499.745 4.11918 -5.09906 0
M  V30 4998 H 499.265 4.83841 -3.54482 0
M  V30 4999 H 500.944 4.98873 -4.11989 0
M  V30 5000 N 501.076 1.04316 1.18135 0
M  V30 5001 C 502.492 0.762858 1.40188 0
M  V30 5002 C 502.692 -0.646547 1.90846 0
M  V30 5003 O 501.748 -1.41036 2.0944 0
M  V30 5004 C 503.061 1.81106 2.40044 0
M  V30 5005 C 504.609 1.83226 2.53766 0
M  V30 5006 C 505.084 2.87044 3.56889 0
M  V30 5007 N 506.575 2.85951 3.64398 0
M  V30 5008 C 507.31 3.62932 4.43923 0
M  V30 5009 N 506.806 4.49672 5.27036 0
M  V30 5010 N 508.599 3.51411 4.38711 0
M  V30 5011 H 500.75 1.95264 0.835805 0
M  V30 5012 H 503.013 0.845017 0.429709 0
M  V30 5013 H 502.719 2.82214 2.09876 0
M  V30 5014 H 502.593 1.64529 3.39426 0
M  V30 5015 H 504.98 0.827869 2.8325 0
M  V30 5016 H 505.061 2.03879 1.54489 0
M  V30 5017 H 504.705 3.87663 3.28145 0
M  V30 5018 H 504.635 2.63645 4.5585 0
M  V30 5019 H 507.126 2.23051 3.05052 0
M  V30 5020 H 507.439 5.05116 5.84874 0
M  V30 5021 H 505.784 4.53738 5.26447 0
M  V30 5022 H 508.975 2.83047 3.72829 0
M  V30 5023 H 509.148 4.11654 5.00445 0
M  V30 5024 N 502.554 -1.34406 0.822964 0
M  V30 5025 C 503.965 -1.8069 0.469879 0
M  V30 5026 C 504.316 -1.68223 -1.00972 0
M  V30 5027 O 503.441 -1.22226 -1.78577 0
M  V30 5028 C 504.036 -3.28064 0.846118 0
M  V30 5029 C 502.595 -3.72428 0.545402 0
M  V30 5030 C 501.742 -2.56116 1.06301 0
M  V30 5031 H 504.693 -1.22153 1.01313 0
M  V30 5032 H 504.714 -3.80205 0.149922 0
M  V30 5033 H 504.226 -3.37107 1.92304 0
M  V30 5034 H 502.327 -3.68924 -0.522109 0
M  V30 5035 H 502.44 -4.66548 1.0895 0
M  V30 5036 H 500.804 -2.50048 0.484554 0
M  V30 5037 H 501.587 -2.67928 2.14638 0
M  V30 5038 N 504.032 -0.577932 -1.46621 0
M  V30 5039 C 504.964 0.195801 -2.28362 0
M  V30 5040 C 505.977 0.859983 -1.38232 0
M  V30 5041 O 507.166 0.730349 -1.62875 0
M  V30 5042 C 504.266 1.29639 -3.13124 0
M  V30 5043 C 503.439 0.725049 -4.31349 0
M  V30 5044 C 502.498 1.71274 -4.97546 0
M  V30 5045 O 501.524 1.25067 -5.5529 0
M  V30 5046 N 502.726 3.04672 -4.94121 0
M  V30 5047 H 505.491 -0.505468 -2.95407 0
M  V30 5048 H 503.052 -0.415381 -1.56481 0
M  V30 5049 H 505.044 1.95631 -3.54275 0
M  V30 5050 H 503.614 1.90059 -2.48186 0
M  V30 5051 H 502.834 -0.112205 -3.9404 0
M  V30 5052 H 504.122 0.323034 -5.07774 0
M  V30 5053 H 503.52 3.4484 -4.48444 0
M  V30 5054 H 502.077 3.66166 -5.39227 0
M  V30 5055 N 505.51 1.54411 -0.315457 0
M  V30 5056 C 506.738 2.04833 0.291738 0
M  V30 5057 C 507.153 1.19203 1.46411 0
M  V30 5058 O 506.51 0.220867 1.81159 0
M  V30 5059 C 506.561 3.53969 0.73404 0
M  V30 5060 O 506.282 4.36346 -0.391682 0
M  V30 5061 C 507.783 4.2045 1.40489 0
M  V30 5062 H 505.003 0.668195 0.0612947 0
M  V30 5063 H 507.547 1.99276 -0.45929 0
M  V30 5064 H 505.702 3.5984 1.43506 0
M  V30 5065 H 506.116 5.24481 -0.0447088 0
M  V30 5066 H 507.59 5.26278 1.66539 0
M  V30 5067 H 508.067 3.71067 2.3496 0
M  V30 5068 H 508.673 4.18694 0.746662 0
M  V30 5069 N 506.988 0.0434614 1.5754 0
M  V30 5070 C 508.237 -0.631454 1.91561 0
M  V30 5071 C 508.55 -1.72457 0.92292 0
M  V30 5072 O 509.756 -2.45712 1.15489 0
M  V30 5073 C 508.212 -1.17447 3.40197 0
M  V30 5074 C 507.82 -0.113867 4.47855 0
M  V30 5075 C 509.564 -1.82507 3.83264 0
M  V30 5076 C 507.471 -0.669326 5.876 0
M  V30 5077 H 506.401 -0.239629 0.714908 0
M  V30 5078 H 509.052 0.111097 1.83163 0
M  V30 5079 H 507.434 -1.96909 3.43574 0
M  V30 5080 H 508.608 0.659348 4.56058 0
M  V30 5081 H 506.923 0.438821 4.14081 0
M  V30 5082 H 509.52 -2.25047 4.85034 0
M  V30 5083 H 509.863 -2.67365 3.19095 0
M  V30 5084 H 510.396 -1.09712 3.82372 0
M  V30 5085 H 507.135 0.141449 6.55347 0
M  V30 5086 H 506.655 -1.4107 5.82974 0
M  V30 5087 H 508.334 -1.15463 6.36614 0
M  V30 5088 N 508.466 -1.55915 -0.229846 0
M  V30 5089 C 509.429 -1.90914 -1.26824 0
M  V30 5090 C 510.429 -0.786999 -1.40225 0
M  V30 5091 O 511.619 -1.05484 -1.38632 0
M  V30 5092 C 508.751 -2.15264 -2.64337 0
M  V30 5093 H 509.944 -2.8378 -0.969998 0
M  V30 5094 H 507.497 -1.49069 -0.4699 0
M  V30 5095 H 508.232 -1.24923 -2.99274 0
M  V30 5096 H 508.017 -2.97005 -2.55989 0
M  V30 5097 H 509.507 -2.43467 -3.39284 0
M  V30 5098 N 509.944 0.496216 -1.49584 0
M  V30 5099 C 510.907 1.57952 -1.66084 0
M  V30 5100 C 511.907 1.51729 -0.53244 0
M  V30 5101 O 513.097 1.54796 -0.79899 0
M  V30 5102 C 510.229 2.97604 -1.66268 0
M  V30 5103 H 511.422 1.44649 -2.6271 0
M  V30 5104 H 508.975 0.7208 -1.38687 0
M  V30 5105 H 509.71 3.16378 -0.712432 0
M  V30 5106 H 509.495 3.03528 -2.4822 0
M  V30 5107 H 510.985 3.76301 -1.81073 0
M  V30 5108 N 511.423 1.38739 0.74761 0
M  V30 5109 C 512.333 1.38696 1.89211 0
M  V30 5110 C 513.349 0.283303 1.71678 0
M  V30 5111 O 514.525 0.522713 1.94498 0
M  V30 5112 C 511.59 1.21662 3.24653 0
M  V30 5113 C 510.651 2.41886 3.54669 0
M  V30 5114 C 509.884 2.25655 4.83648 0
M  V30 5115 O 510.107 1.25339 5.56459 0
M  V30 5116 O 509.041 3.14372 5.13277 0
M  V30 5117 H 512.867 2.35143 1.92202 0
M  V30 5118 H 510.452 1.19721 0.893708 0
M  V30 5119 H 512.334 1.14246 4.05618 0
M  V30 5120 H 511.009 0.283024 3.2246 0
M  V30 5121 H 509.916 2.54877 2.73841 0
M  V30 5122 H 511.249 3.33895 3.61628 0
M  V30 5123 N 512.901 -0.976442 1.23707 0
M  V30 5124 C 514.178 -1.69296 0.979699 0
M  V30 5125 C 514.558 -2.0508 -0.500555 0
M  V30 5126 O 513.906 -1.74708 -1.47273 0
M  V30 5127 C 514.116 -2.93143 1.89389 0
M  V30 5128 C 515.464 -3.65572 2.15968 0
M  V30 5129 O 516.488 -3.03184 1.86971 0
M  V30 5130 O 515.347 -4.77859 2.65167 0
M  V30 5131 H 512.441 -0.739708 0.369812 0
M  V30 5132 H 514.987 -1.03131 1.34767 0
M  V30 5133 H 513.759 -2.63327 2.89439 0
M  V30 5134 H 513.382 -3.67044 1.52854 0
M  V30 5135 N 514.379 -1.04941 -1.1758 0
M  V30 5136 C 515.607 -0.778294 -1.91703 0
M  V30 5137 C 516.022 0.665697 -1.76675 0
M  V30 5138 O 515.379 1.45456 -1.10222 0
M  V30 5139 C 515.43 -1.14628 -3.42845 0
M  V30 5140 O 515.151 -2.53359 -3.57409 0
M  V30 5141 C 516.652 -0.900931 -4.34049 0
M  V30 5142 H 513.872 -0.283167 -0.608323 0
M  V30 5143 H 516.416 -1.39942 -1.49119 0
M  V30 5144 H 514.571 -0.569953 -3.83184 0
M  V30 5145 H 514.985 -2.67709 -4.51035 0
M  V30 5146 H 516.459 -1.20817 -5.38616 0
M  V30 5147 H 516.936 0.163966 -4.38894 0
M  V30 5148 H 517.542 -1.46097 -3.99419 0
M  V30 5149 N 515.857 1.33968 -0.830081 0
M  V30 5150 C 516.787 2.31911 -0.271911 0
M  V30 5151 C 517.768 1.58571 0.61556 0
M  V30 5152 O 518.953 1.86514 0.540946 0
M  V30 5153 C 516.083 3.42737 0.561146 0
M  V30 5154 C 515.037 4.27383 -0.229789 0
M  V30 5155 C 514.363 5.29742 0.726463 0
M  V30 5156 C 515.663 5.02 -1.44197 0
M  V30 5157 H 517.357 2.78844 -1.09025 0
M  V30 5158 H 514.903 1.34061 -0.52571 0
M  V30 5159 H 516.856 4.10276 0.961867 0
M  V30 5160 H 515.58 2.94471 1.41261 0
M  V30 5161 H 514.239 3.61456 -0.611964 0
M  V30 5162 H 513.887 4.77736 1.57408 0
M  V30 5163 H 513.587 5.87255 0.20142 0
M  V30 5164 H 515.111 6.00149 1.12489 0
M  V30 5165 H 516.525 5.62355 -1.11488 0
M  V30 5166 H 514.922 5.69122 -1.90317 0
M  V30 5167 H 515.992 4.31281 -2.2164 0
M  V30 5168 N 517.335 0.585699 1.46312 0
M  V30 5169 C 518.285 -0.166813 2.27389 0
M  V30 5170 C 519.269 -0.859076 1.36047 0
M  V30 5171 O 520.461 -0.752678 1.60199 0
M  V30 5172 C 517.59 -1.17791 3.2246 0
M  V30 5173 C 516.676 -0.487605 4.21288 0
M  V30 5174 N 517.067 0.45849 5.03718 0
M  V30 5175 C 515.365 -0.737971 4.39852 0
M  V30 5176 C 516.066 0.862213 5.75275 0
M  V30 5177 N 515.042 0.210707 5.43191 0
M  V30 5178 H 518.844 0.560167 2.88512 0
M  V30 5179 H 516.358 0.407715 1.57199 0
M  V30 5180 H 518.355 -1.73122 3.79255 0
M  V30 5181 H 517.015 -1.90568 2.62896 0
M  V30 5182 H 518.026 0.834163 5.11138 0
M  V30 5183 H 514.703 -1.45209 3.91434 0
M  V30 5184 H 516.093 1.64128 6.51546 0
M  V30 5185 N 518.813 -1.54241 0.323641 0
M  V30 5186 C 520.09 -1.92741 -0.333181 0
M  V30 5187 C 520.47 -1.25326 -1.69872 0
M  V30 5188 O 519.818 -0.396991 -2.25025 0
M  V30 5189 C 520.028 -3.46399 -0.425322 0
M  V30 5190 C 521.376 -4.19029 -0.68557 0
M  V30 5191 O 522.4 -3.52555 -0.50824 0
M  V30 5192 O 521.259 -5.36751 -1.02767 0
M  V30 5193 H 518.353 -0.804811 -0.190286 0
M  V30 5194 H 520.899 -1.65542 0.373361 0
M  V30 5195 H 519.671 -3.87643 0.533737 0
M  V30 5196 H 519.294 -3.79704 -1.17944 0
M  V30 5197 N 520.291 -0.0518155 -1.57515 0
M  V30 5198 C 521.224 0.957758 -2.07129 0
M  V30 5199 C 522.202 1.30355 -0.971927 0
M  V30 5200 O 523.386 1.41631 -1.2439 0
M  V30 5201 C 520.513 2.27157 -2.51232 0
M  V30 5202 C 519.559 2.07879 -3.72409 0
M  V30 5203 S 520.392 1.35656 -5.18033 0
M  V30 5204 C 521.548 2.68359 -5.65451 0
M  V30 5205 H 521.781 0.53552 -2.92437 0
M  V30 5206 H 519.314 0.160465 -1.53564 0
M  V30 5207 H 521.272 3.02676 -2.77304 0
M  V30 5208 H 519.933 2.66509 -1.66228 0
M  V30 5209 H 519.126 3.05061 -4.01191 0
M  V30 5210 H 518.728 1.40499 -3.46606 0
M  V30 5211 H 521.02 3.64526 -5.71076 0
M  V30 5212 H 521.963 2.44213 -6.64654 0
M  V30 5213 H 522.371 2.74647 -4.93183 0
M  V30 5214 N 521.769 1.56035 0.221574 0
M  V30 5215 C 523.017 1.78693 0.944102 0
M  V30 5216 C 523.338 0.620317 1.8487 0
M  V30 5217 O 522.608 -0.362784 1.92512 0
M  V30 5218 H 521.188 0.659082 0.351597 0
M  V30 5219 H 523.85 1.93497 0.233435 0
M  V30 5220 H 522.946 2.70837 1.55093 0
M  V30 5221 N 523.247 -0.488276 1.49845 0
M  V30 5222 C 524.496 -1.23826 1.59217 0
M  V30 5223 C 524.809 -1.93439 0.289966 0
M  V30 5224 O 526.015 -2.70229 0.262382 0
M  V30 5225 C 524.471 -2.24902 2.80976 0
M  V30 5226 C 524.079 -1.6117 4.18005 0
M  V30 5227 C 525.823 -3.00648 2.99685 0
M  V30 5228 C 523.73 -2.60431 5.3097 0
M  V30 5229 H 522.66 -0.465858 0.592868 0
M  V30 5230 H 525.311 -0.510645 1.76252 0
M  V30 5231 H 523.693 -3.0088 2.57463 0
M  V30 5232 H 524.867 -0.910968 4.51706 0
M  V30 5233 H 523.182 -0.97767 4.0476 0
M  V30 5234 H 525.779 -3.74903 3.81251 0
M  V30 5235 H 526.122 -3.5902 2.10738 0
M  V30 5236 H 526.655 -2.31784 3.23297 0
M  V30 5237 H 523.394 -2.06823 6.22017 0
M  V30 5238 H 522.914 -3.28707 5.01709 0
M  V30 5239 H 524.593 -3.22606 5.60834 0
M  V30 5240 N 524.725 -1.39134 -0.740242 0
M  V30 5241 C 525.972 -1.36071 -1.49969 0
M  V30 5242 C 526.3 0.0450245 -1.94448 0
M  V30 5243 O 525.555 1.02482 -1.66721 0
M  V30 5244 C 525.854 -2.27457 -2.75678 0
M  V30 5245 C 525.52 -3.75185 -2.50094 0
M  V30 5246 C 524.182 -4.15439 -2.42825 0
M  V30 5247 C 526.534 -4.68643 -2.28086 0
M  V30 5248 C 523.862 -5.4722 -2.11584 0
M  V30 5249 C 526.214 -6.00695 -1.98363 0
M  V30 5250 C 524.878 -6.40018 -1.8956 0
M  V30 5251 H 524.148 -0.497921 -0.548777 0
M  V30 5252 H 526.795 -1.71599 -0.85007 0
M  V30 5253 H 525.1 -1.8503 -3.45356 0
M  V30 5254 H 526.797 -2.22384 -3.33686 0
M  V30 5255 H 523.387 -3.43279 -2.56627 0
M  V30 5256 H 527.571 -4.3838 -2.32672 0
M  V30 5257 H 522.827 -5.76615 -2.03287 0
M  V30 5258 H 527.001 -6.72644 -1.80341 0
M  V30 5259 H 524.628 -7.42051 -1.65117 0
M  V30 5260 N 526.204 0.969867 -1.24223 0
M  V30 5261 C 527.429 1.75289 -1.10853 0
M  V30 5262 C 527.854 1.85091 0.335079 0
M  V30 5263 O 527.212 1.32024 1.24255 0
M  V30 5264 C 527.26 3.15255 -1.75062 0
M  V30 5265 O 526.364 3.99589 -1.01992 0
M  V30 5266 H 525.705 0.538904 -0.387915 0
M  V30 5267 H 528.235 1.21675 -1.64488 0
M  V30 5268 H 528.245 3.65787 -1.80731 0
M  V30 5269 H 526.92 3.07436 -2.801 0
M  V30 5270 H 525.497 3.58077 -1.04094 0
M  V30 5271 N 527.682 1.05563 1.17022 0
M  V30 5272 C 528.931 0.763036 1.8671 0
M  V30 5273 C 529.244 -0.712857 1.82147 0
M  V30 5274 O 530.45 -1.11955 2.47343 0
M  V30 5275 C 528.906 1.31474 3.35026 0
M  V30 5276 C 528.514 2.82034 3.48081 0
M  V30 5277 C 530.258 1.09935 4.10018 0
M  V30 5278 C 528.165 3.30486 4.90442 0
M  V30 5279 H 527.095 0.281747 0.699382 0
M  V30 5280 H 529.746 1.2734 1.32124 0
M  V30 5281 H 528.128 0.732171 3.89173 0
M  V30 5282 H 529.302 3.46178 3.04133 0
M  V30 5283 H 527.617 3.02156 2.86515 0
M  V30 5284 H 530.214 1.43632 5.15048 0
M  V30 5285 H 530.557 0.0373072 4.16283 0
M  V30 5286 H 531.09 1.64732 3.62089 0
M  V30 5287 H 527.829 4.36137 4.89352 0
M  V30 5288 H 527.349 2.71086 5.35044 0
M  V30 5289 H 529.028 3.25382 5.59227 0
M  V30 5290 N 529.16 -1.33526 0.837174 0
M  V30 5291 C 530.388 -2.02047 0.445494 0
M  V30 5292 C 530.803 -1.62995 -0.952788 0
M  V30 5293 O 530.16 -0.842447 -1.61892 0
M  V30 5294 C 530.211 -3.57221 0.554577 0
M  V30 5295 O 529.932 -3.94863 1.89776 0
M  V30 5296 C 531.433 -4.43012 0.159634 0
M  V30 5297 H 528.653 -0.647221 0.177048 0
M  V30 5298 H 531.197 -1.70492 1.12928 0
M  V30 5299 H 529.352 -3.87315 -0.0812781 0
M  V30 5300 H 529.766 -4.89569 1.88208 0
M  V30 5301 H 531.24 -5.51253 0.28701 0
M  V30 5302 H 531.717 -4.29916 -0.898289 0
M  V30 5303 H 532.323 -4.18274 0.769855 0
M  V30 5304 N 530.638 -0.59345 -1.46 0
M  V30 5305 C 531.863 -0.0872365 -2.07216 0
M  V30 5306 C 532.288 1.2131 -1.43755 0
M  V30 5307 O 531.646 1.73528 -0.525152 0
M  V30 5308 C 531.694 0.0538197 -3.6056 0
M  V30 5309 O 530.798 1.10765 -3.97247 0
M  V30 5310 H 530.139 -0.0676598 -0.660544 0
M  V30 5311 H 532.669 -0.819445 -1.87473 0
M  V30 5312 H 532.679 0.256567 -4.07193 0
M  V30 5313 H 531.354 -0.895739 -4.0614 0
M  V30 5314 H 529.931 0.882501 -3.62307 0
M  V30 5315 N 532.116 1.54067 -0.331816 0
M  V30 5316 C 533.341 2.05599 0.272705 0
M  V30 5317 C 533.766 1.2059 1.44359 0
M  V30 5318 O 533.124 0.216907 1.79998 0
M  V30 5319 C 533.172 3.54188 0.677021 0
M  V30 5320 O 532.276 3.72082 1.77844 0
M  V30 5321 H 531.617 0.662286 0.0476801 0
M  V30 5322 H 534.147 1.98826 -0.482624 0
M  V30 5323 H 534.157 3.96608 0.957415 0
M  V30 5324 H 532.832 4.15513 -0.179325 0
M  V30 5325 H 531.409 3.41566 1.49622 0
M  V30 5326 N 533.594 0.0601682 1.57485 0
M  V30 5327 C 534.871 -0.651956 1.84415 0
M  V30 5328 C 535.251 -1.88498 0.950361 0
M  V30 5329 O 534.599 -2.28496 0.0136719 0
M  V30 5330 C 534.809 -1.00069 3.34346 0
M  V30 5331 C 536.157 -1.37915 4.01578 0
M  V30 5332 O 537.181 -1.09277 3.39024 0
M  V30 5333 O 536.04 -1.91399 5.11887 0
M  V30 5334 H 533.134 -0.322668 0.761455 0
M  V30 5335 H 535.68 0.0902159 1.6946 0
M  V30 5336 H 534.452 -0.124463 3.91102 0
M  V30 5337 H 534.075 -1.80001 3.54521 0
M  V30 5338 N 535.072 -1.5615 -0.213296 0
M  V30 5339 C 536.297 -1.83986 -0.957282 0
M  V30 5340 C 536.722 -0.641526 -1.76822 0
M  V30 5341 O 536.08 0.409722 -1.7661 0
M  V30 5342 C 536.128 -3.09889 -1.84393 0
M  V30 5343 O 535.232 -2.89163 -2.94038 0
M  V30 5344 H 534.573 -0.606357 -0.270605 0
M  V30 5345 H 537.103 -2.03369 -0.224111 0
M  V30 5346 H 537.113 -3.40209 -2.25215 0
M  V30 5347 H 535.788 -3.96735 -1.24795 0
M  V30 5348 H 534.365 -2.70097 -2.57103 0
M  V30 5349 N 536.55 0.480323 -1.50102 0
M  V30 5350 C 537.482 1.59669 -1.64433 0
M  V30 5351 C 538.495 1.54063 -0.52615 0
M  V30 5352 O 539.684 1.59619 -0.798992 0
M  V30 5353 C 536.784 2.98527 -1.6042 0
M  V30 5354 C 535.957 3.291 -2.88117 0
M  V30 5355 C 535.016 4.47468 -2.76873 0
M  V30 5356 O 534.042 4.4823 -3.50825 0
M  V30 5357 N 535.244 5.48593 -1.89806 0
M  V30 5358 H 538.009 1.47795 -2.60723 0
M  V30 5359 H 535.57 0.66858 -1.4745 0
M  V30 5360 H 537.562 3.75666 -1.50523 0
M  V30 5361 H 536.132 3.04218 -0.719036 0
M  V30 5362 H 535.352 2.40662 -3.12211 0
M  V30 5363 H 536.64 3.46334 -3.72734 0
M  V30 5364 H 536.038 5.50791 -1.2902 0
M  V30 5365 H 534.595 6.24752 -1.85819 0
M  V30 5366 N 538.028 1.39524 0.732853 0
M  V30 5367 C 538.991 1.38189 1.82857 0
M  V30 5368 C 539.991 0.278624 1.58368 0
M  V30 5369 O 541.181 0.536639 1.65728 0
M  V30 5370 C 538.313 1.15661 3.2068 0
M  V30 5371 H 539.506 2.35692 1.85444 0
M  V30 5372 H 537.059 1.2512 0.936728 0
M  V30 5373 H 537.794 0.188482 3.23752 0
M  V30 5374 H 537.579 1.95559 3.39852 0
M  V30 5375 H 539.069 1.17472 4.00737 0
M  V30 5376 N 539.506 -0.963266 1.24736 0
M  V30 5377 C 540.439 -2.05758 0.986852 0
M  V30 5378 C 541.417 -1.62398 -0.0809272 0
M  V30 5379 O 542.601 -1.88414 0.0569347 0
M  V30 5380 C 539.728 -3.35135 0.490095 0
M  V30 5381 C 538.774 -3.97451 1.54709 0
M  V30 5382 S 539.607 -4.34519 3.12976 0
M  V30 5383 C 540.763 -5.67026 2.65014 0
M  V30 5384 H 540.996 -2.27539 1.91346 0
M  V30 5385 H 538.529 -1.10176 1.08169 0
M  V30 5386 H 540.487 -4.09962 0.21012 0
M  V30 5387 H 539.148 -3.11335 -0.415873 0
M  V30 5388 H 538.341 -4.90704 1.15003 0
M  V30 5389 H 537.943 -3.29071 1.77731 0
M  V30 5390 H 540.235 -6.44748 2.08102 0
M  V30 5391 H 541.178 -6.11594 3.56873 0
M  V30 5392 H 541.586 -5.25847 2.05294 0
M  V30 5393 N 540.985 -1.06182 -1.16461 0
M  V30 5394 C 542.233 -0.776326 -1.86595 0
M  V30 5395 C 542.554 0.69921 -1.82033 0
M  V30 5396 O 541.824 1.50579 -1.2531 0
M  V30 5397 H 540.404 -0.284184 -0.690832 0
M  V30 5398 H 543.066 -1.34308 -1.41235 0
M  V30 5399 H 542.162 -1.10022 -2.92064 0
M  V30 5400 N 542.463 1.3308 -0.844243 0
M  V30 5401 C 543.879 1.50447 -0.532729 0
M  V30 5402 C 544.079 1.78292 0.938837 0
M  V30 5403 O 543.135 1.84635 1.72239 0
M  V30 5404 C 544.448 2.65555 -1.41072 0
M  V30 5405 C 545.996 2.7944 -1.41005 0
M  V30 5406 C 546.471 3.97616 -2.27301 0
M  V30 5407 N 547.962 4.0486 -2.2504 0
M  V30 5408 C 548.697 4.95508 -2.88547 0
M  V30 5409 N 548.193 5.91236 -3.61126 0
M  V30 5410 N 549.986 4.88548 -2.77989 0
M  V30 5411 H 542.137 1.13269 -1.79677 0
M  V30 5412 H 544.4 0.55734 -0.766861 0
M  V30 5413 H 544.106 2.51675 -2.45668 0
M  V30 5414 H 543.98 3.61089 -1.09061 0
M  V30 5415 H 546.367 2.92749 -0.371784 0
M  V30 5416 H 546.448 1.8465 -1.77026 0
M  V30 5417 H 546.092 3.85066 -3.3119 0
M  V30 5418 H 546.022 4.91661 -1.88619 0
M  V30 5419 H 548.513 3.36353 -1.72264 0
M  V30 5420 H 548.826 6.57079 -4.06776 0
M  V30 5421 H 547.171 5.91295 -3.65234 0
M  V30 5422 H 550.362 4.12729 -2.20846 0
M  V30 5423 H 550.535 5.58994 -3.27765 0
M  V30 5424 N 543.941 0.601185 1.45683 0
M  V30 5425 C 545.187 0.0940202 2.02582 0
M  V30 5426 C 545.52 -1.26972 1.46941 0
M  V30 5427 O 544.795 -1.83613 0.641612 0
M  V30 5428 C 545.078 0.0481715 3.60068 0
M  V30 5429 C 544.931 1.44212 4.26055 0
M  V30 5430 C 546.25 -0.642975 4.35378 0
M  V30 5431 H 543.369 0.0356404 0.736138 0
M  V30 5432 H 546.011 0.771929 1.73612 0
M  V30 5433 H 544.161 -0.529128 3.8488 0
M  V30 5434 H 545.833 2.06601 4.12449 0
M  V30 5435 H 544.076 2.00465 3.84703 0
M  V30 5436 H 544.747 1.36234 5.34925 0
M  V30 5437 H 547.223 -0.152351 4.15821 0
M  V30 5438 H 546.099 -0.644141 5.45107 0
M  V30 5439 H 546.36 -1.70785 4.0778 0
M  V30 5440 N 545.419 -1.53889 0.339982 0
M  V30 5441 C 546.667 -2.00458 -0.257112 0
M  V30 5442 C 546.988 -1.22953 -1.51353 0
M  V30 5443 O 546.258 -0.335734 -1.93002 0
M  V30 5444 H 544.838 -0.740544 -0.0979965 0
M  V30 5445 H 547.5 -1.89386 0.460317 0
M  V30 5446 H 546.596 -3.08035 -0.502057 0
M  V30 5447 N 546.897 -0.0685191 -1.57451 0
M  V30 5448 C 547.807 0.914677 -2.16034 0
M  V30 5449 C 548.823 1.32938 -1.12265 0
M  V30 5450 O 549.999 1.40275 -1.44516 0
M  V30 5451 C 547.064 2.16519 -2.70777 0
M  V30 5452 C 546.125 1.80721 -3.89408 0
M  V30 5453 C 545.358 2.9981 -4.41531 0
M  V30 5454 O 545.581 4.13727 -3.92666 0
M  V30 5455 O 544.515 2.79817 -5.32903 0
M  V30 5456 H 548.341 0.446364 -3.00402 0
M  V30 5457 H 545.926 0.154367 -1.486 0
M  V30 5458 H 547.808 2.89856 -3.05878 0
M  V30 5459 H 546.483 2.62454 -1.89471 0
M  V30 5460 H 545.39 1.04646 -3.59166 0
M  V30 5461 H 546.723 1.39571 -4.71997 0
M  V30 5462 N 548.375 1.56261 0.205012 0
M  V30 5463 C 549.621 1.80306 0.9283 0
M  V30 5464 C 549.954 0.640932 1.83319 0
M  V30 5465 O 549.229 -0.359032 1.91158 0
M  V30 5466 C 549.512 3.14547 1.75306 0
M  V30 5467 C 549.365 4.41236 0.873562 0
M  V30 5468 C 550.684 3.45382 2.72762 0
M  V30 5469 H 547.803 0.655929 0.336044 0
M  V30 5470 H 550.445 1.88984 0.196211 0
M  V30 5471 H 548.595 3.0728 2.37721 0
M  V30 5472 H 550.267 4.60539 0.264887 0
M  V30 5473 H 548.51 4.33427 0.179773 0
M  V30 5474 H 549.181 5.31639 1.48541 0
M  V30 5475 H 551.657 3.52884 2.20481 0
M  V30 5476 H 550.533 4.40449 3.2756 0
M  V30 5477 H 550.794 2.68377 3.51321 0
M  V30 5478 N 549.853 -0.472356 1.50355 0
M  V30 5479 C 551.102 -1.2213 1.60522 0
M  V30 5480 C 551.415 -1.9312 0.310466 0
M  V30 5481 O 552.621 -2.69936 0.291029 0
M  V30 5482 C 551.077 -2.21909 2.83345 0
M  V30 5483 C 550.685 -1.56727 4.19691 0
M  V30 5484 C 552.429 -2.97453 3.02856 0
M  V30 5485 C 550.336 -2.54785 5.33703 0
M  V30 5486 H 549.266 -0.459543 0.597776 0
M  V30 5487 H 551.917 -0.491922 1.76783 0
M  V30 5488 H 550.299 -2.98133 2.60639 0
M  V30 5489 H 551.473 -0.863007 4.52646 0
M  V30 5490 H 549.788 -0.934685 4.05774 0
M  V30 5491 H 552.385 -3.70838 3.85205 0
M  V30 5492 H 552.728 -3.56764 2.14534 0
M  V30 5493 H 553.261 -2.28342 3.25737 0
M  V30 5494 H 550 -2.00214 6.24175 0
M  V30 5495 H 549.52 -3.23367 5.05167 0
M  V30 5496 H 551.199 -3.16639 5.64224 0
M  V30 5497 N 551.331 -1.39911 -0.725443 0
M  V30 5498 C 552.559 -1.40949 -1.51463 0
M  V30 5499 C 552.974 -0.0065242 -1.88799 0
M  V30 5500 O 552.331 0.967163 -1.54765 0
M  V30 5501 C 552.382 -2.29119 -2.79619 0
M  V30 5502 O 552.103 -3.63952 -2.43866 0
M  V30 5503 C 553.604 -2.38642 -3.73584 0
M  V30 5504 H 550.824 -0.481091 -0.467752 0
M  V30 5505 H 553.368 -1.83843 -0.895651 0
M  V30 5506 H 551.523 -1.89612 -3.37826 0
M  V30 5507 H 551.937 -4.10677 -3.26258 0
M  V30 5508 H 553.411 -3.04563 -4.60375 0
M  V30 5509 H 553.888 -1.40846 -4.16004 0
M  V30 5510 H 554.494 -2.78659 -3.21293 0
M  V30 5511 N 552.809 0.956637 -1.25245 0
M  V30 5512 C 554.225 1.22733 -1.02023 0
M  V30 5513 C 554.425 1.99761 0.264186 0
M  V30 5514 O 553.481 2.32814 0.977436 0
M  V30 5515 C 554.794 2.00367 -2.24217 0
M  V30 5516 C 556.342 2.13418 -2.28958 0
M  V30 5517 C 556.817 2.9445 -3.50803 0
M  V30 5518 N 558.308 3.02029 -3.51187 0
M  V30 5519 C 559.043 3.65116 -4.42129 0
M  V30 5520 N 558.539 4.2983 -5.43339 0
M  V30 5521 N 560.332 3.62237 -4.29815 0
M  V30 5522 H 552.483 0.441282 -2.07765 0
M  V30 5523 H 554.746 0.257686 -0.912306 0
M  V30 5524 H 554.452 1.51165 -3.17556 0
M  V30 5525 H 554.326 3.01077 -2.27228 0
M  V30 5526 H 556.713 2.61819 -1.36143 0
M  V30 5527 H 556.794 1.1202 -2.29968 0
M  V30 5528 H 556.438 2.46741 -4.43939 0
M  V30 5529 H 556.368 3.9607 -3.47039 0
M  V30 5530 H 558.859 2.56007 -2.77973 0
M  V30 5531 H 559.172 4.75819 -6.08947 0
M  V30 5532 H 557.517 4.28465 -5.47214 0
M  V30 5533 H 560.708 3.10863 -3.49974 0
M  V30 5534 H 560.881 4.11117 -5.00886 0
M  V30 5535 N 554.287 1.06798 1.15896 0
M  V30 5536 C 555.515 0.808694 1.90441 0
M  V30 5537 C 555.93 -0.637506 1.77711 0
M  V30 5538 O 555.287 -1.43684 1.12522 0
M  V30 5539 C 555.338 1.20068 3.40978 0
M  V30 5540 O 555.059 2.59013 3.53333 0
M  V30 5541 C 556.56 0.96987 4.3256 0
M  V30 5542 H 553.78 0.292809 0.603742 0
M  V30 5543 H 556.324 1.42296 1.46874 0
M  V30 5544 H 554.479 0.630842 3.82229 0
M  V30 5545 H 554.893 2.7485 4.46719 0
M  V30 5546 H 556.367 1.29371 5.36626 0
M  V30 5547 H 556.844 -0.0941209 4.39099 0
M  V30 5548 H 557.45 1.52433 3.97044 0
M  V30 5549 N 555.766 -1.3263 0.851289 0
M  V30 5550 C 557.012 -1.98061 0.462963 0
M  V30 5551 C 557.367 -1.66162 -0.969948 0
M  V30 5552 O 556.66 -0.937723 -1.67085 0
M  V30 5553 C 556.854 -3.51713 0.635015 0
M  V30 5554 C 556.683 -3.98544 2.0831 0
M  V30 5555 C 555.453 -4.25787 2.72091 0
M  V30 5556 C 557.651 -4.13858 3.0533 0
M  V30 5557 N 555.633 -4.58842 4.07845 0
M  V30 5558 C 557.004 -4.50412 4.26063 0
M  V30 5559 C 559.059 -3.96182 3.0157 0
M  V30 5560 C 557.762 -4.71136 5.43529 0
M  V30 5561 C 559.788 -4.18088 4.18278 0
M  V30 5562 C 559.15 -4.54956 5.37768 0
M  V30 5563 H 555.249 -0.750976 0.218082 0
M  V30 5564 H 557.833 -1.60514 1.10197 0
M  V30 5565 H 556.004 -3.88391 0.0257298 0
M  V30 5566 H 557.736 -4.04118 0.216915 0
M  V30 5567 H 554.491 -4.17734 2.23149 0
M  V30 5568 H 554.915 -4.7956 4.77862 0
M  V30 5569 H 559.557 -3.66783 2.1031 0
M  V30 5570 H 557.275 -4.9939 6.35323 0
M  V30 5571 H 560.861 -4.05918 4.168 0
M  V30 5572 H 559.741 -4.71567 6.26573 0
M  V30 5573 O 557.283 -0.749239 -1.43069 0
M  V30 5574 H 557.974 -0.305579 -1.91274 0
M  V30 END ATOM
M  V30 BEGIN BOND
M  V30 END BOND
M  V30 END CTAB
M  END
$$$$
