drugbank_target|P07202 Thyroid peroxidase (DB00389; DB00509; DB00550; DB00763; DB08604; DB11085; DB11496)
 OpenBabel12092119333D

  0  0  0     0  0            999 V3000
M  V30 BEGIN CTAB
M  V30 COUNTS 14295 14478 0 0 0
M  V30 BEGIN ATOM
M  V30 1 H -0.908 1.98254 -0.117106 0
M  V30 2 N 0 1.576 0 0
M  V30 3 C 0.933 2.03868 1.02534 0
M  V30 4 C 1.911 0.928543 1.3348 0
M  V30 5 O 3.095 1.19667 1.45644 0
M  V30 6 C 0.222 2.43627 2.35294 0
M  V30 7 C -0.732 3.65373 2.2001 0
M  V30 8 S 0.101 5.13292 1.52614 0
M  V30 9 C 1.257 5.56322 2.86805 0
M  V30 10 H 1.49 2.90518 0.631377 0
M  V30 11 H -0.977 1.52953 0.210867 0
M  V30 12 H 0.981 2.67203 3.11629 0
M  V30 13 H -0.358 1.57376 2.7183 0
M  V30 14 H -1.165 3.90944 3.18086 0
M  V30 15 H -1.563 3.418 1.51819 0
M  V30 16 H 0.729 5.58782 3.83104 0
M  V30 17 H 1.672 6.56266 2.65933 0
M  V30 18 H 2.08 4.83886 2.90714 0
M  V30 19 N 1.4781 -0.272755 1.55222 0
M  V30 20 C 2.8941 -0.619959 1.47067 0
M  V30 21 C 3.0941 -1.895 0.684978 0
M  V30 22 O 2.1501 -2.51675 0.203931 0
M  V30 23 C 3.4631 -0.746693 2.91282 0
M  V30 24 C 5.0111 -0.840731 3.01497 0
M  V30 25 C 5.4861 -0.99924 4.46967 0
M  V30 26 N 6.9771 -1.06476 4.50796 0
M  V30 27 C 7.7121 -1.20621 5.6057 0
M  V30 28 N 7.2081 -1.31483 6.80209 0
M  V30 29 N 9.0011 -1.23733 5.48312 0
M  V30 30 H 1.1521 0.564606 2.04758 0
M  V30 31 H 3.4151 0.191177 0.928523 0
M  V30 32 H 3.1211 0.119753 3.51496 0
M  V30 33 H 2.9951 -1.6269 3.40311 0
M  V30 34 H 5.3821 -1.69764 2.41379 0
M  V30 35 H 5.4631 0.0640874 2.5572 0
M  V30 36 H 5.1071 -0.146984 5.07687 0
M  V30 37 H 5.0371 -1.91871 4.90401 0
M  V30 38 H 7.5281 -0.993196 3.64615 0
M  V30 39 H 7.8411 -1.42111 7.59621 0
M  V30 40 H 6.1861 -1.28487 6.8302 0
M  V30 41 H 9.3771 -1.14877 4.53785 0
M  V30 42 H 9.5501 -1.34412 6.33906 0
M  V30 43 N 2.9562 -1.48159 -0.537278 0
M  V30 44 C 3.9192 -1.61665 -1.62472 0
M  V30 45 C 4.9192 -0.490395 -1.5314 0
M  V30 46 O 6.1092 -0.755998 -1.5694 0
M  V30 47 C 3.2412 -1.57997 -3.02076 0
M  V30 48 H 4.4342 -2.58621 -1.51839 0
M  V30 49 H 1.9872 -1.36647 -0.758771 0
M  V30 50 H 2.7222 -0.624913 -3.18222 0
M  V30 51 H 2.5072 -2.39755 -3.10258 0
M  V30 52 H 3.9972 -1.70627 -3.81151 0
M  V30 53 N 4.4343 0.785586 -1.36625 0
M  V30 54 C 5.3643 1.91259 -1.33949 0
M  V30 55 C 6.3453 1.68795 -0.210325 0
M  V30 56 O 7.5303 1.89854 -0.408561 0
M  V30 57 C 4.6603 3.28339 -1.13186 0
M  V30 58 C 3.6143 3.65335 -2.22967 0
M  V30 59 C 2.9403 5.00806 -1.87342 0
M  V30 60 C 4.2403 3.7352 -3.65075 0
M  V30 61 H 5.9343 1.93755 -2.28253 0
M  V30 62 H 3.4803 0.930788 -1.09874 0
M  V30 63 H 5.4333 4.06804 -1.09948 0
M  V30 64 H 4.1573 3.2624 -0.153332 0
M  V30 65 H 2.8163 2.89169 -2.25337 0
M  V30 66 H 2.4643 4.95233 -0.880545 0
M  V30 67 H 2.1643 5.26529 -2.60846 0
M  V30 68 H 3.6883 5.81687 -1.85667 0
M  V30 69 H 5.1023 4.42168 -3.64911 0
M  V30 70 H 3.4993 4.10731 -4.37516 0
M  V30 71 H 4.5693 2.74527 -3.99703 0
M  V30 72 N 5.9124 1.20967 1.01018 0
M  V30 73 C 6.8754 0.965918 2.07853 0
M  V30 74 C 7.8754 -0.0610545 1.60684 0
M  V30 75 O 9.0654 0.175681 1.73312 0
M  V30 76 C 6.1974 0.455513 3.37843 0
M  V30 77 H 7.3904 1.91365 2.3091 0
M  V30 78 H 4.9434 1.02594 1.17916 0
M  V30 79 H 5.6784 -0.497381 3.20463 0
M  V30 80 H 5.4634 1.19622 3.73407 0
M  V30 81 H 6.9534 0.304667 4.16487 0
M  V30 82 N 7.3905 -1.2043 1.01659 0
M  V30 83 C 8.6365 -1.90079 0.706963 0
M  V30 84 C 8.9695 -1.78648 -0.761474 0
M  V30 85 O 8.2445 -1.17069 -1.55323 0
M  V30 86 C 8.5275 -3.41469 1.14327 0
M  V30 87 C 8.3805 -3.61833 2.67201 0
M  V30 88 C 9.6995 -4.34261 0.714529 0
M  V30 89 H 6.8185 -0.690254 0.2583 0
M  V30 90 H 9.4605 -1.41826 1.26433 0
M  V30 91 H 7.6105 -3.82696 0.669056 0
M  V30 92 H 9.2825 -3.2986 3.22475 0
M  V30 93 H 7.5255 -3.05304 3.08175 0
M  V30 94 H 8.1965 -4.67955 2.92783 0
M  V30 95 H 10.6725 -4.00682 1.12221 0
M  V30 96 H 9.5485 -5.38806 1.04784 0
M  V30 97 H 9.8095 -4.40431 -0.383799 0
M  V30 98 N 8.8686 -0.792821 -1.36206 0
M  V30 99 C 9.7986 -0.207853 -2.32573 0
M  V30 100 C 10.7796 0.659055 -1.56813 0
M  V30 101 O 11.9646 0.592176 -1.84951 0
M  V30 102 C 9.0946 0.655449 -3.41059 0
M  V30 103 C 8.0486 -0.111842 -4.27854 0
M  V30 104 C 7.3746 0.872274 -5.27537 0
M  V30 105 C 8.6746 -1.30299 -5.05786 0
M  V30 106 H 10.3686 -1.01294 -2.81744 0
M  V30 107 H 7.9146 -0.48854 -1.3546 0
M  V30 108 H 9.8676 1.07464 -4.07467 0
M  V30 109 H 8.5916 1.49328 -2.90463 0
M  V30 110 H 7.2506 -0.512053 -3.63006 0
M  V30 111 H 6.8986 1.70523 -4.73214 0
M  V30 112 H 6.5986 0.363291 -5.86476 0
M  V30 113 H 8.1226 1.28996 -5.96818 0
M  V30 114 H 9.5366 -0.959379 -5.65216 0
M  V30 115 H 7.9336 -1.7455 -5.74154 0
M  V30 116 H 9.0036 -2.09663 -4.37229 0
M  V30 117 N 10.3467 1.47872 -0.545128 0
M  V30 118 C 11.5717 2.07391 -0.0190611 0
M  V30 119 C 11.9967 1.39688 1.25971 0
M  V30 120 O 11.3547 0.467816 1.7516 0
M  V30 121 C 11.4027 3.60188 0.172335 0
M  V30 122 O 10.5067 3.9339 1.23766 0
M  V30 123 H 9.8477 0.662411 -0.0459059 0
M  V30 124 H 12.3777 1.90066 -0.757365 0
M  V30 125 H 12.3877 4.06129 0.390305 0
M  V30 126 H 11.0627 4.08865 -0.761725 0
M  V30 127 H 9.6397 3.5921 1.00114 0
M  V30 128 N 11.8248 0.280983 1.55075 0
M  V30 129 C 13.0708 -0.33461 2.00021 0
M  V30 130 C 13.4038 -1.55063 1.16915 0
M  V30 131 O 12.6788 -1.93006 0.240646 0
M  V30 132 C 12.9618 -0.711007 3.53011 0
M  V30 133 C 12.8148 0.512766 4.46868 0
M  V30 134 C 14.1338 -1.54522 4.12081 0
M  V30 135 H 11.2528 -0.120147 0.727141 0
M  V30 136 H 13.8948 0.389097 1.85973 0
M  V30 137 H 12.0448 -1.32761 3.65112 0
M  V30 138 H 13.7168 1.15131 4.46702 0
M  V30 139 H 11.9598 1.14975 4.18286 0
M  V30 140 H 12.6308 0.205556 5.51617 0
M  V30 141 H 15.1068 -1.02442 4.03293 0
M  V30 142 H 13.9828 -1.77739 5.19327 0
M  V30 143 H 14.2438 -2.52813 3.62682 0
M  V30 144 N 13.3029 -1.57598 0.00835791 0
M  V30 145 C 14.5309 -1.95214 -0.68549 0
M  V30 146 C 14.9459 -0.883706 -1.66841 0
M  V30 147 O 14.3029 0.136565 -1.81988 0
M  V30 148 C 14.3539 -3.32865 -1.41007 0
M  V30 149 O 14.0749 -4.35609 -0.466552 0
M  V30 150 C 15.5759 -3.84991 -2.19765 0
M  V30 151 H 12.7959 -0.643422 -0.190392 0
M  V30 152 H 15.3399 -2.04406 0.0619607 0
M  V30 153 H 13.4949 -3.24956 -2.10908 0
M  V30 154 H 13.9089 -5.15288 -0.978699 0
M  V30 155 H 15.3829 -4.8371 -2.65948 0
M  V30 156 H 15.8599 -3.18137 -3.02796 0
M  V30 157 H 16.4659 -3.96103 -1.54864 0
M  V30 158 N 14.781 0.264519 -1.55364 0
M  V30 159 C 15.711 1.33121 -1.91836 0
M  V30 160 C 16.692 1.51101 -0.781192 0
M  V30 161 O 17.877 1.64003 -1.04003 0
M  V30 162 C 15.007 2.68921 -2.19769 0
M  V30 163 C 13.961 2.65661 -3.35571 0
M  V30 164 C 13.287 4.05093 -3.49004 0
M  V30 165 C 14.587 2.24187 -4.71739 0
M  V30 166 H 16.281 1.02844 -2.81182 0
M  V30 167 H 13.827 0.493286 -1.35287 0
M  V30 168 H 15.78 3.43663 -2.43872 0
M  V30 169 H 14.504 3.00799 -1.27231 0
M  V30 170 H 13.163 1.93377 -3.1145 0
M  V30 171 H 12.811 4.34206 -2.53917 0
M  V30 172 H 12.511 4.03804 -4.26868 0
M  V30 173 H 14.035 4.81561 -3.75408 0
M  V30 174 H 15.449 2.88654 -4.9533 0
M  V30 175 H 13.846 2.34044 -5.52579 0
M  V30 176 H 14.916 1.19327 -4.69988 0
M  V30 177 N 16.2591 1.48442 0.529413 0
M  V30 178 C 17.5051 1.5672 1.28711 0
M  V30 179 C 17.8381 0.2406 1.92704 0
M  V30 180 O 17.1131 -0.753454 1.79313 0
M  V30 181 C 17.3961 2.70587 2.37603 0
M  V30 182 C 17.2491 4.12953 1.78297 0
M  V30 183 C 18.5681 2.80212 3.39366 0
M  V30 184 H 15.6871 0.570474 0.466613 0
M  V30 185 H 18.3291 1.80617 0.589706 0
M  V30 186 H 16.4791 2.50342 2.97088 0
M  V30 187 H 18.1511 4.44639 1.22858 0
M  V30 188 H 16.3941 4.19927 1.0883 0
M  V30 189 H 17.0651 4.88448 2.57144 0
M  V30 190 H 19.5411 2.98553 2.89836 0
M  V30 191 H 18.4171 3.61611 4.12951 0
M  V30 192 H 18.6781 1.88393 3.99951 0
M  V30 193 N 17.7372 -0.778329 1.37039 0
M  V30 194 C 18.6702 -1.8984 1.26633 0
M  V30 195 C 19.6482 -1.61923 0.148197 0
M  V30 196 O 20.8322 -1.85742 0.321265 0
M  V30 197 C 17.9592 -3.24916 0.956403 0
M  V30 198 C 17.0052 -3.71752 2.09051 0
M  V30 199 S 17.8382 -3.86201 3.70957 0
M  V30 200 C 18.9942 -5.24135 3.42101 0
M  V30 201 H 19.2272 -1.98377 2.21436 0
M  V30 202 H 16.7602 -0.938738 1.22585 0
M  V30 203 H 18.7182 -4.02936 0.784409 0
M  V30 204 H 17.3792 -3.14089 0.0259713 0
M  V30 205 H 16.5722 -4.69661 1.8285 0
M  V30 206 H 16.1742 -3.00815 2.2223 0
M  V30 207 H 18.4662 -6.09086 2.96682 0
M  V30 208 H 19.4092 -5.55346 4.39314 0
M  V30 209 H 19.8172 -4.91761 2.77185 0
M  V30 210 N 19.2153 -1.21501 -1.00376 0
M  V30 211 C 20.1783 -0.976927 -2.07337 0
M  V30 212 C 21.1783 0.0525322 -1.60714 0
M  V30 213 O 22.3683 -0.184869 -1.73216 0
M  V30 214 C 19.5003 -0.473423 -3.37597 0
M  V30 215 H 20.6933 -1.92587 -2.29892 0
M  V30 216 H 18.2463 -1.03217 -1.17371 0
M  V30 217 H 18.9813 0.480379 -3.20722 0
M  V30 218 H 18.7663 -1.216 -3.72768 0
M  V30 219 H 20.2563 -0.32675 -4.1632 0
M  V30 220 N 20.6934 1.19889 -1.02296 0
M  V30 221 C 21.9334 1.91125 -0.724602 0
M  V30 222 C 22.2974 1.77464 0.732835 0
M  V30 223 O 23.4984 2.43241 1.144 0
M  V30 224 C 21.7694 3.38187 -1.15604 0
M  V30 225 S 23.3284 4.27702 -0.980621 0
M  V30 226 H 20.1464 0.66018 -0.263976 0
M  V30 227 H 22.7484 1.44978 -1.31155 0
M  V30 228 H 21.4524 3.45653 -2.21251 0
M  V30 229 H 20.9834 3.89363 -0.562131 0
M  V30 230 H 22.9984 4.96073 0.112225 0
M  V30 231 N 22.1715 0.800033 1.35784 0
M  V30 232 C 23.3995 0.389606 2.03199 0
M  V30 233 C 23.8145 -0.997375 1.60306 0
M  V30 234 O 23.1715 -1.64154 0.797481 0
M  V30 235 C 23.2225 0.455855 3.58614 0
M  V30 236 O 22.9435 1.78815 3.99946 0
M  V30 237 C 24.4445 0.0374032 4.43284 0
M  V30 238 H 21.6645 0.159132 0.651857 0
M  V30 239 H 24.2085 1.08183 1.73541 0
M  V30 240 H 22.3635 -0.188057 3.86943 0
M  V30 241 H 22.7775 1.74636 4.94573 0
M  V30 242 H 24.2515 0.134882 5.51835 0
M  V30 243 H 24.7285 -1.01651 4.27275 0
M  V30 244 H 25.3345 0.654215 4.20238 0
M  V30 245 N 23.6496 -1.47581 0.552962 0
M  V30 246 C 24.5596 -2.33743 -0.200353 0
M  V30 247 C 25.5756 -1.47928 -0.916151 0
M  V30 248 O 26.7516 -1.80865 -0.885993 0
M  V30 249 C 23.8166 -3.24536 -1.21973 0
M  V30 250 C 22.8776 -4.26238 -0.511819 0
M  V30 251 C 22.1106 -5.12693 -1.48263 0
M  V30 252 O 22.3336 -5.01525 -2.71714 0
M  V30 253 O 21.2676 -5.93375 -1.00945 0
M  V30 254 H 25.0936 -2.9945 0.506304 0
M  V30 255 H 22.6786 -1.46071 0.313622 0
M  V30 256 H 24.5606 -3.80631 -1.80827 0
M  V30 257 H 23.2356 -2.61462 -1.90839 0
M  V30 258 H 22.1426 -3.73914 0.117799 0
M  V30 259 H 23.4756 -4.92014 0.135308 0
M  V30 260 N 25.1277 -0.289203 -1.54924 0
M  V30 261 C 26.0907 0.579144 -2.21762 0
M  V30 262 C 27.0907 1.07047 -1.1999 0
M  V30 263 O 28.2807 0.968384 -1.44803 0
M  V30 264 C 25.4127 1.80055 -2.8947 0
M  V30 265 H 26.6057 -0.00464908 -2.999 0
M  V30 266 H 24.1587 -0.0399306 -1.56249 0
M  V30 267 H 24.8937 2.42449 -2.15381 0
M  V30 268 H 24.6787 1.45602 -3.64064 0
M  V30 269 H 26.1687 2.41773 -3.40493 0
M  V30 270 N 26.6058 1.57591 -0.0167156 0
M  V30 271 C 27.8528 1.91283 0.664597 0
M  V30 272 C 28.1808 0.891949 1.72842 0
M  V30 273 O 27.4358 -0.100931 1.9544 0
M  V30 274 C 27.7348 3.3172 1.33029 0
M  V30 275 C 27.4008 4.4914 0.398047 0
M  V30 276 C 26.0628 4.80992 0.141421 0
M  V30 277 C 28.4148 5.20634 -0.242825 0
M  V30 278 C 25.7428 5.81703 -0.764092 0
M  V30 279 C 28.0948 6.22311 -1.13632 0
M  V30 280 C 26.7588 6.52611 -1.40196 0
M  V30 281 H 26.0288 0.699956 0.243193 0
M  V30 282 H 28.6758 1.9135 -0.0758267 0
M  V30 283 H 26.9808 3.27856 2.14517 0
M  V30 284 H 28.6778 3.55055 1.86379 0
M  V30 285 H 25.2678 4.24262 0.608238 0
M  V30 286 H 29.4518 4.96267 -0.0576019 0
M  V30 287 H 24.7078 6.03532 -0.977732 0
M  V30 288 H 28.8818 6.76834 -1.63917 0
M  V30 289 H 26.5088 7.30467 -2.10529 0
M  V30 290 N 28.0839 -0.256276 1.55502 0
M  V30 291 C 29.3309 -0.985619 1.76895 0
M  V30 292 C 29.6589 -1.85671 0.579355 0
M  V30 293 O 28.9139 -1.90744 -0.437651 0
M  V30 294 C 29.2129 -1.88432 3.03691 0
M  V30 295 C 28.8789 -1.16936 4.35473 0
M  V30 296 C 27.5409 -0.97173 4.71286 0
M  V30 297 C 29.8929 -0.661889 5.1698 0
M  V30 298 C 27.2209 -0.254179 5.86149 0
M  V30 299 C 29.5729 0.042149 6.32586 0
M  V30 300 C 28.2369 0.25134 6.67027 0
M  V30 301 H 27.5069 -0.360663 0.647304 0
M  V30 302 H 30.1539 -0.256483 1.89775 0
M  V30 303 H 28.4589 -2.68021 2.85783 0
M  V30 304 H 30.1559 -2.45015 3.1744 0
M  V30 305 H 26.7459 -1.33332 4.07333 0
M  V30 306 H 30.9299 -0.802145 4.89775 0
M  V30 307 H 26.1859 -0.0815408 6.11346 0
M  V30 308 H 30.3599 0.443049 6.94989 0
M  V30 309 H 27.9869 0.809314 7.5588 0
M  V30 310 N 29.562 -1.4872 -0.521534 0
M  V30 311 C 30.973 -1.50607 -1.10337 0
M  V30 312 C 31.324 -0.280612 -1.94183 0
M  V30 313 O 30.449 0.611507 -2.0758 0
M  V30 314 C 31.044 -2.72903 -2.00772 0
M  V30 315 C 29.603 -2.77634 -2.54158 0
M  V30 316 C 28.75 -2.44241 -1.31307 0
M  V30 317 H 31.701 -1.55714 -0.306388 0
M  V30 318 H 31.722 -2.519 -2.85178 0
M  V30 319 H 31.234 -3.62077 -1.39721 0
M  V30 320 H 29.335 -1.92689 -3.18907 0
M  V30 321 H 29.448 -3.79283 -2.92714 0
M  V30 322 H 27.812 -1.95577 -1.63161 0
M  V30 323 H 28.595 -3.35666 -0.719943 0
M  V30 324 N 31.0401 0.771051 -1.3745 0
M  V30 325 C 32.2871 1.52963 -1.32697 0
M  V30 326 C 32.6151 1.94299 0.0883274 0
M  V30 327 O 31.8701 1.64397 1.0617 0
M  V30 328 C 32.1691 2.80676 -2.2126 0
M  V30 329 C 31.8351 2.58389 -3.69521 0
M  V30 330 C 30.4971 2.52019 -4.09927 0
M  V30 331 C 32.8491 2.38469 -4.63446 0
M  V30 332 C 30.1771 2.23721 -5.42371 0
M  V30 333 C 32.5291 2.11694 -5.96128 0
M  V30 334 C 31.1931 2.03769 -6.35637 0
M  V30 335 H 30.4631 0.559732 -0.485573 0
M  V30 336 H 33.1101 0.888083 -1.69662 0
M  V30 337 H 31.4151 3.49392 -1.77291 0
M  V30 338 H 33.1121 3.38557 -2.14895 0
M  V30 339 H 29.7021 2.6421 -3.37478 0
M  V30 340 H 33.8861 2.4238 -4.33089 0
M  V30 341 H 29.1421 2.16081 -5.71943 0
M  V30 342 H 33.3161 1.9528 -6.6846 0
M  V30 343 H 30.9431 1.81606 -7.38189 0
M  V30 344 N 32.5182 1.22032 0.997298 0
M  V30 345 C 33.7672 1.03637 1.73038 0
M  V30 346 C 34.0802 -0.429475 1.90827 0
M  V30 347 O 35.2862 -0.732995 2.61418 0
M  V30 348 C 33.7422 1.80582 3.11317 0
M  V30 349 C 33.3502 3.31387 3.01474 0
M  V30 350 C 35.0942 1.70621 3.88701 0
M  V30 351 C 33.0012 4.00791 4.3488 0
M  V30 352 H 31.9312 0.384179 0.648785 0
M  V30 353 H 34.5822 1.4584 1.11368 0
M  V30 354 H 32.9642 1.31175 3.73643 0
M  V30 355 H 34.1382 3.88155 2.4834 0
M  V30 356 H 32.4532 3.41976 2.37575 0
M  V30 357 H 35.0502 2.19799 4.87434 0
M  V30 358 H 35.3932 0.665823 4.10941 0
M  V30 359 H 35.9262 2.17547 3.33044 0
M  V30 360 H 32.6652 5.05064 4.1784 0
M  V30 361 H 32.1852 3.48811 4.87945 0
M  V30 362 H 33.8642 4.06139 5.03647 0
M  V30 363 N 33.9963 -1.19345 1.0293 0
M  V30 364 C 35.2213 -1.93538 0.745511 0
M  V30 365 C 35.6463 -1.75007 -0.689511 0
M  V30 366 O 35.0043 -1.05265 -1.47611 0
M  V30 367 C 35.0523 -3.43336 1.10239 0
M  V30 368 O 34.1563 -4.11806 0.221289 0
M  V30 369 H 33.4973 -0.604193 0.275404 0
M  V30 370 H 36.0273 -1.5141 1.37609 0
M  V30 371 H 36.0373 -3.94004 1.05947 0
M  V30 372 H 34.7123 -3.56146 2.14786 0
M  V30 373 H 33.2893 -3.715 0.322842 0
M  V30 374 N 35.4744 -0.807222 -1.35358 0
M  V30 375 C 36.8904 -0.491038 -1.51858 0
M  V30 376 C 37.0904 0.987648 -1.75635 0
M  V30 377 O 36.1464 1.77265 -1.79815 0
M  V30 378 C 37.4594 -1.33695 -2.69344 0
M  V30 379 C 39.0074 -1.33246 -2.83222 0
M  V30 380 C 39.4824 -2.1625 -4.03733 0
M  V30 381 N 40.9734 -2.1379 -4.10911 0
M  V30 382 C 41.7084 -2.74772 -5.03277 0
M  V30 383 N 41.2044 -3.44684 -6.0097 0
M  V30 384 N 42.9974 -2.6441 -4.96028 0
M  V30 385 H 35.1484 -1.76485 -1.18181 0
M  V30 386 H 37.4114 -0.751199 -0.578276 0
M  V30 387 H 37.1174 -2.38634 -2.58354 0
M  V30 388 H 36.9914 -0.990618 -3.6396 0
M  V30 389 H 39.3784 -0.290911 -2.93663 0
M  V30 390 H 39.4594 -1.71866 -1.89461 0
M  V30 391 H 39.1034 -3.20445 -3.94052 0
M  V30 392 H 39.0334 -1.74989 -4.96675 0
M  V30 393 H 41.5244 -1.62923 -3.40976 0
M  V30 394 H 41.8374 -3.88501 -6.68047 0
M  V30 395 H 40.1824 -3.48788 -6.01142 0
M  V30 396 H 43.3734 -2.0938 -4.18662 0
M  V30 397 H 43.5464 -3.12225 -5.6782 0
M  V30 398 N 36.9525 1.47285 -0.560781 0
M  V30 399 C 38.2005 2.02064 -0.0379868 0
M  V30 400 C 38.5215 1.43711 1.31803 0
M  V30 401 O 37.7915 0.61362 1.86042 0
M  V30 402 H 36.3715 0.746918 -0.0110531 0
M  V30 403 H 39.0335 1.80648 -0.731598 0
M  V30 404 H 38.1295 3.12064 0.0474463 0
M  V30 405 N 38.4306 0.297415 1.54768 0
M  V30 406 C 39.3776 -0.580276 2.23386 0
M  V30 407 C 40.3476 -1.13238 1.21517 0
M  V30 408 O 41.5326 -1.17757 1.50126 0
M  V30 409 C 38.6726 -1.74801 2.97555 0
M  V30 410 C 37.7856 -1.22764 4.1419 0
M  V30 411 C 36.9206 -2.35895 4.75949 0
M  V30 412 C 35.9596 -1.80974 5.84735 0
M  V30 413 N 35.0966 -2.87664 6.40464 0
M  V30 414 H 39.9366 0.0114833 2.97998 0
M  V30 415 H 37.4736 0.0174361 1.4709 0
M  V30 416 H 39.4316 -2.43475 3.38786 0
M  V30 417 H 38.0616 -2.31145 2.25326 0
M  V30 418 H 37.1136 -0.433271 3.77924 0
M  V30 419 H 38.4256 -0.785551 4.92575 0
M  V30 420 H 37.5796 -3.12523 5.20014 0
M  V30 421 H 36.3186 -2.83429 3.96887 0
M  V30 422 H 35.3236 -1.02834 5.40097 0
M  V30 423 H 36.5486 -1.34348 6.65678 0
M  V30 424 H 34.4946 -3.34538 5.64287 0
M  V30 425 H 34.4116 -2.4794 7.14186 0
M  V30 426 H 35.6796 -3.642 6.89187 0
M  V30 427 N 39.9087 -1.5758 0.0250728 0
M  V30 428 C 40.8187 -2.1343 -0.973905 0
M  V30 429 C 41.8347 -1.08556 -1.35984 0
M  V30 430 O 43.0107 -1.40592 -1.44207 0
M  V30 431 C 40.0757 -2.64703 -2.23904 0
M  V30 432 C 39.1367 -3.84276 -1.91391 0
M  V30 433 C 38.3697 -4.33095 -3.11873 0
M  V30 434 O 38.5927 -3.81107 -4.24398 0
M  V30 435 O 37.5267 -5.24984 -2.94406 0
M  V30 436 H 41.3527 -2.99057 -0.529036 0
M  V30 437 H 38.9377 -1.48118 -0.195288 0
M  V30 438 H 40.8197 -2.97769 -2.98181 0
M  V30 439 H 39.4947 -1.82161 -2.6758 0
M  V30 440 H 38.4017 -3.56143 -1.14511 0
M  V30 441 H 39.7347 -4.67968 -1.52534 0
M  V30 442 N 41.3868 0.248026 -1.55636 0
M  V30 443 C 42.3168 1.31079 -1.93237 0
M  V30 444 C 43.2978 1.50264 -0.797174 0
M  V30 445 O 44.4828 1.62891 -1.05737 0
M  V30 446 C 41.6128 2.66575 -2.22609 0
M  V30 447 C 40.5668 2.62087 -3.3837 0
M  V30 448 C 39.8928 4.01369 -3.53281 0
M  V30 449 C 41.1928 2.19171 -4.7409 0
M  V30 450 H 42.8868 0.998556 -2.82257 0
M  V30 451 H 40.4328 0.47891 -1.35803 0
M  V30 452 H 42.3858 3.41057 -2.47503 0
M  V30 453 H 41.1098 2.99432 -1.30414 0
M  V30 454 H 39.7688 1.90063 -3.13483 0
M  V30 455 H 39.4168 4.31489 -2.58508 0
M  V30 456 H 39.1168 3.99254 -4.31127 0
M  V30 457 H 40.6408 4.77552 -3.80495 0
M  V30 458 H 42.0548 2.83384 -4.98363 0
M  V30 459 H 40.4518 2.2817 -5.5503 0
M  V30 460 H 41.5218 1.14336 -4.71227 0
M  V30 461 N 42.8649 1.48995 0.513639 0
M  V30 462 C 43.7949 1.67636 1.62544 0
M  V30 463 C 44.7759 0.525087 1.61793 0
M  V30 464 O 45.9609 0.759502 1.78732 0
M  V30 465 C 43.0909 1.73114 3.01079 0
M  V30 466 C 42.0449 2.87905 3.16693 0
M  V30 467 C 41.3709 2.78486 4.56453 0
M  V30 468 C 42.6709 4.29005 2.97913 0
M  V30 469 H 44.3649 2.60716 1.47198 0
M  V30 470 H 41.9109 1.25465 0.706714 0
M  V30 471 H 43.8639 1.84742 3.78746 0
M  V30 472 H 42.5879 0.766241 3.17484 0
M  V30 473 H 41.2469 2.75859 2.41448 0
M  V30 474 H 40.8949 1.7993 4.69717 0
M  V30 475 H 40.5949 3.55523 4.67843 0
M  V30 476 H 42.1189 2.92104 5.36197 0
M  V30 477 H 43.5329 4.41798 3.65359 0
M  V30 478 H 41.9299 5.07166 3.20785 0
M  V30 479 H 42.9999 4.44329 1.94165 0
M  V30 480 N 44.343 -0.763751 1.37857 0
M  V30 481 C 45.589 -1.52396 1.3471 0
M  V30 482 C 45.944 -1.92288 -0.0656435 0
M  V30 483 O 45.237 -1.6181 -1.02606 0
M  V30 484 C 45.431 -2.79499 2.22745 0
M  V30 485 C 45.26 -2.52031 3.72438 0
M  V30 486 C 44.03 -2.45759 4.4151 0
M  V30 487 C 46.228 -2.19489 4.65112 0
M  V30 488 N 44.21 -2.1046 5.76697 0
M  V30 489 C 45.581 -1.94396 5.88736 0
M  V30 490 C 47.636 -2.05712 4.53417 0
M  V30 491 C 46.339 -1.56917 7.01975 0
M  V30 492 C 48.365 -1.69634 5.66549 0
M  V30 493 C 47.727 -1.45407 6.89229 0
M  V30 494 H 43.826 -0.55765 0.548225 0
M  V30 495 H 46.41 -0.890302 1.73152 0
M  V30 496 H 44.581 -3.4069 1.86507 0
M  V30 497 H 46.313 -3.45465 2.10798 0
M  V30 498 H 43.068 -2.61885 3.94605 0
M  V30 499 H 43.492 -1.95484 6.48163 0
M  V30 500 H 48.134 -2.23123 3.59133 0
M  V30 501 H 45.852 -1.38246 7.96187 0
M  V30 502 H 49.438 -1.59621 5.59475 0
M  V30 503 H 48.318 -1.17904 7.75286 0
M  V30 504 N 45.8211 -1.22559 -0.990812 0
M  V30 505 C 47.0691 -1.04933 -1.72724 0
M  V30 506 C 47.3901 0.416158 -1.90508 0
M  V30 507 O 46.6601 1.29918 -1.46622 0
M  V30 508 H 45.2401 -0.385296 -0.639965 0
M  V30 509 H 47.9021 -1.54105 -1.19322 0
M  V30 510 H 46.9981 -1.52886 -2.72089 0
M  V30 511 N 47.2992 1.18797 -1.03562 0
M  V30 512 C 48.2462 2.22253 -0.622259 0
M  V30 513 C 49.2162 1.61987 0.36736 0
M  V30 514 O 50.4012 1.88986 0.262492 0
M  V30 515 C 47.5412 3.45097 0.0138462 0
M  V30 516 C 46.6542 4.19722 -1.02263 0
M  V30 517 C 45.7892 5.30009 -0.355573 0
M  V30 518 C 44.8282 5.96399 -1.37749 0
M  V30 519 N 43.9652 6.98234 -0.735766 0
M  V30 520 H 48.8052 2.56968 -1.50903 0
M  V30 521 H 46.3422 1.26245 -0.755017 0
M  V30 522 H 48.3002 4.15279 0.399948 0
M  V30 523 H 46.9302 3.11018 0.864158 0
M  V30 524 H 45.9822 3.48418 -1.52673 0
M  V30 525 H 47.2942 4.65227 -1.79903 0
M  V30 526 H 46.4482 6.0664 0.0850095 0
M  V30 527 H 45.1872 4.85592 0.452967 0
M  V30 528 H 44.1922 5.18512 -1.82826 0
M  V30 529 H 45.4172 6.42899 -2.18764 0
M  V30 530 H 43.3632 6.55979 0.0525597 0
M  V30 531 H 43.2802 7.41965 -1.44995 0
M  V30 532 H 44.5482 7.78845 -0.31941 0
M  V30 533 N 48.7773 0.814389 1.34928 0
M  V30 534 C 50.1883 0.458364 1.80986 0
M  V30 535 C 50.5393 -1.02042 1.67577 0
M  V30 536 O 49.6643 -1.79352 1.21086 0
M  V30 537 C 50.2593 0.825212 3.28597 0
M  V30 538 C 48.8183 0.521677 3.72767 0
M  V30 539 C 47.9653 1.04668 2.56788 0
M  V30 540 H 50.9163 1.00533 1.22795 0
M  V30 541 H 50.9373 0.12571 3.80292 0
M  V30 542 H 50.4493 1.90154 3.38324 0
M  V30 543 H 48.5503 -0.545589 3.68584 0
M  V30 544 H 48.6633 1.05977 4.67232 0
M  V30 545 H 47.0273 0.468622 2.50352 0
M  V30 546 H 47.8103 2.12927 2.6929 0
M  V30 547 N 50.2554 -1.46986 0.568584 0
M  V30 548 C 51.1654 -2.33942 -0.17555 0
M  V30 549 C 52.1814 -1.48891 -0.90041 0
M  V30 550 O 53.3574 -1.81794 -0.86676 0
M  V30 551 C 50.4224 -3.25811 -1.18524 0
M  V30 552 C 49.4834 -4.26757 -0.466582 0
M  V30 553 C 48.7164 -5.14236 -1.42817 0
M  V30 554 O 48.9394 -5.04379 -2.66379 0
M  V30 555 O 47.8734 -5.94412 -0.946453 0
M  V30 556 H 51.6994 -2.98896 0.538036 0
M  V30 557 H 49.2844 -1.4573 0.329097 0
M  V30 558 H 51.1664 -3.82527 -1.76779 0
M  V30 559 H 49.8414 -2.63471 -1.88055 0
M  V30 560 H 48.7484 -3.73769 0.157451 0
M  V30 561 H 50.0814 -4.91843 0.187485 0
M  V30 562 N 51.7335 -0.305618 -1.54608 0
M  V30 563 C 52.6435 0.57778 -2.27374 0
M  V30 564 C 53.6595 1.14451 -1.31061 0
M  V30 565 O 54.8355 1.16831 -1.6405 0
M  V30 566 C 51.9005 1.73123 -3.00382 0
M  V30 567 C 50.9615 1.19812 -4.12242 0
M  V30 568 C 50.1945 2.2966 -4.81759 0
M  V30 569 O 50.4175 3.49651 -4.50666 0
M  V30 570 O 49.3515 1.96091 -5.69062 0
M  V30 571 H 53.1775 -0.012624 -3.03697 0
M  V30 572 H 50.7625 -0.0719184 -1.49227 0
M  V30 573 H 52.6445 2.40315 -3.4616 0
M  V30 574 H 51.3195 2.30815 -2.26949 0
M  V30 575 H 50.2265 0.491798 -3.70853 0
M  V30 576 H 51.5595 0.666566 -4.87666 0
M  V30 577 N 53.2116 1.57565 -0.0334293 0
M  V30 578 C 54.4366 1.96689 0.657895 0
M  V30 579 C 54.8616 0.910057 1.64619 0
M  V30 580 O 54.2196 -0.128598 1.80843 0
M  V30 581 C 54.2676 3.34905 1.33683 0
M  V30 582 O 53.3716 3.31574 2.45219 0
M  V30 583 H 52.7126 0.641205 0.172489 0
M  V30 584 H 55.2426 2.04372 -0.0965621 0
M  V30 585 H 55.2526 3.71234 1.69262 0
M  V30 586 H 53.9276 4.11366 0.612411 0
M  V30 587 H 52.5046 3.06968 2.11719 0
M  V30 588 N 54.6897 -0.239769 1.55765 0
M  V30 589 C 56.1057 -0.588624 1.48349 0
M  V30 590 C 56.3057 -1.88005 0.72502 0
M  V30 591 O 55.3617 -2.51186 0.257269 0
M  V30 592 C 56.6747 -0.68474 2.928 0
M  V30 593 C 58.2227 -0.77659 3.03213 0
M  V30 594 C 58.6977 -0.904207 4.48986 0
M  V30 595 N 60.1887 -0.968896 4.52953 0
M  V30 596 C 60.9237 -1.08703 5.63002 0
M  V30 597 N 60.4197 -1.17026 6.82845 0
M  V30 598 N 62.2127 -1.12074 5.50814 0
M  V30 599 H 54.3637 0.607911 2.03515 0
M  V30 600 H 56.6267 0.21083 0.924259 0
M  V30 601 H 56.3327 0.194284 3.51163 0
M  V30 602 H 56.2067 -1.55435 3.43686 0
M  V30 603 H 58.5937 -1.64606 2.44926 0
M  V30 604 H 58.6747 0.118315 2.55526 0
M  V30 605 H 58.3187 -0.0392633 5.07885 0
M  V30 606 H 58.2487 -1.81426 4.9436 0
M  V30 607 H 60.7397 -0.915633 3.6664 0
M  V30 608 H 61.0527 -1.25966 7.62465 0
M  V30 609 H 59.3977 -1.13971 6.85591 0
M  V30 610 H 62.5887 -1.05226 4.5612 0
M  V30 611 H 62.7617 -1.20936 6.36615 0
M  V30 612 N 56.1678 -1.49265 -0.50573 0
M  V30 613 C 57.4138 -1.58748 -1.26202 0
M  V30 614 C 57.7468 -0.271227 -1.92297 0
M  V30 615 O 57.0218 0.724831 -1.80489 0
M  V30 616 C 57.3048 -2.74332 -2.33268 0
M  V30 617 C 57.1578 -4.15737 -1.71705 0
M  V30 618 C 58.4768 -2.85576 -3.34865 0
M  V30 619 H 55.5958 -0.577826 -0.457478 0
M  V30 620 H 58.2378 -1.81532 -0.560897 0
M  V30 621 H 56.3878 -2.55036 -2.93068 0
M  V30 622 H 58.0598 -4.46537 -1.15769 0
M  V30 623 H 56.3028 -4.21605 -1.02135 0
M  V30 624 H 56.9738 -4.92477 -2.49341 0
M  V30 625 H 59.4498 -3.03127 -2.8505 0
M  V30 626 H 58.3258 -3.68135 -4.07146 0
M  V30 627 H 58.5868 -1.94732 -3.96903 0
M  V30 628 N 57.6459 0.756429 -1.3826 0
M  V30 629 C 58.8709 1.55077 -1.37717 0
M  V30 630 C 59.2959 1.88073 0.03164 0
M  V30 631 O 58.6539 1.50364 1.01293 0
M  V30 632 C 58.7019 2.8283 -2.23695 0
M  V30 633 O 57.8059 3.77862 -1.6521 0
M  V30 634 H 57.1469 0.469152 -0.469885 0
M  V30 635 H 59.6769 0.935019 -1.81985 0
M  V30 636 H 59.6869 3.31783 -2.37453 0
M  V30 637 H 58.3619 2.58144 -3.2609 0
M  V30 638 H 56.9389 3.36555 -1.60578 0
M  V30 639 N 59.124 1.23083 0.984299 0
M  V30 640 C 60.349 1.088 1.76571 0
M  V30 641 C 60.774 -0.356657 1.84688 0
M  V30 642 O 60.132 -1.25788 1.30565 0
M  V30 643 C 60.18 1.71371 3.17277 0
M  V30 644 O 59.284 0.973213 4.00752 0
M  V30 645 H 58.625 0.381599 0.543395 0
M  V30 646 H 61.155 1.63057 1.23587 0
M  V30 647 H 61.165 1.76449 3.67872 0
M  V30 648 H 59.84 2.76493 3.10684 0
M  V30 649 H 58.417 0.999078 3.59267 0
M  V30 650 N 60.6021 -1.18246 1.0419 0
M  V30 651 C 61.8481 -1.88536 0.747122 0
M  V30 652 C 62.1811 -1.80223 -0.723409 0
M  V30 653 O 61.4561 -1.20337 -1.52804 0
M  V30 654 C 61.7391 -3.38968 1.21544 0
M  V30 655 C 61.5921 -3.56084 2.74816 0
M  V30 656 C 62.9111 -4.32648 0.806482 0
M  V30 657 H 60.0301 -0.684619 0.272883 0
M  V30 658 H 62.6721 -1.39113 1.29413 0
M  V30 659 H 60.8221 -3.8119 0.750081 0
M  V30 660 H 62.4941 -3.22946 3.29399 0
M  V30 661 H 60.7371 -2.98699 3.14582 0
M  V30 662 H 61.4081 -4.61639 3.02644 0
M  V30 663 H 63.8841 -3.98211 1.20695 0
M  V30 664 H 62.7601 -5.36462 1.1619 0
M  V30 665 H 63.0211 -4.41146 -0.29029 0
M  V30 666 N 62.0802 -0.821533 -1.34494 0
M  V30 667 C 63.0102 -0.257138 -2.3208 0
M  V30 668 C 63.9912 0.625645 -1.58176 0
M  V30 669 O 65.1762 0.552811 -1.86166 0
M  V30 670 C 62.3062 0.582958 -3.42372 0
M  V30 671 C 61.2602 -0.202571 -4.2752 0
M  V30 672 C 60.5862 0.760179 -5.29269 0
M  V30 673 C 61.8862 -1.40998 -5.02908 0
M  V30 674 H 63.5802 -1.07247 -2.79532 0
M  V30 675 H 61.1262 -0.517163 -1.34393 0
M  V30 676 H 63.0792 0.987972 -4.09655 0
M  V30 677 H 61.8032 1.43133 -2.93565 0
M  V30 678 H 60.4622 -0.588936 -3.61838 0
M  V30 679 H 60.1102 1.60447 -4.76724 0
M  V30 680 H 59.8102 0.238809 -5.87115 0
M  V30 681 H 61.3342 1.16308 -5.9942 0
M  V30 682 H 62.7482 -1.07905 -5.63054 0
M  V30 683 H 61.1452 -1.86689 -5.70322 0
M  V30 684 H 62.2152 -2.1889 -4.32684 0
M  V30 685 N 63.5583 1.46682 -0.576371 0
M  V30 686 C 64.4683 2.34032 0.163141 0
M  V30 687 C 65.4843 1.49367 0.892501 0
M  V30 688 O 66.6603 1.82252 0.857106 0
M  V30 689 C 63.7253 3.26435 1.16795 0
M  V30 690 C 62.7863 4.26998 0.443944 0
M  V30 691 C 62.0193 5.14986 1.40088 0
M  V30 692 O 62.2423 5.05785 2.637 0
M  V30 693 O 61.1763 5.94906 0.914917 0
M  V30 694 H 65.0023 2.98607 -0.55388 0
M  V30 695 H 62.5873 1.45554 -0.336821 0
M  V30 696 H 64.4693 3.83459 1.74748 0
M  V30 697 H 63.1443 2.64465 1.86655 0
M  V30 698 H 62.0513 3.7368 -0.177271 0
M  V30 699 H 63.3843 4.91736 -0.213566 0
M  V30 700 N 65.0364 0.313813 1.54444 0
M  V30 701 C 65.9464 -0.565714 2.27677 0
M  V30 702 C 66.9624 -1.13754 1.31666 0
M  V30 703 O 68.1384 -1.15959 1.64668 0
M  V30 704 C 65.2034 -1.71528 3.01296 0
M  V30 705 C 64.2644 -1.17624 4.12872 0
M  V30 706 C 63.4974 -2.27102 4.8297 0
M  V30 707 O 63.7204 -3.47256 4.52514 0
M  V30 708 O 62.6544 -1.9307 5.70094 0
M  V30 709 H 66.4804 0.0287296 3.03686 0
M  V30 710 H 64.0654 0.0798312 1.49187 0
M  V30 711 H 65.9474 -2.38476 3.4743 0
M  V30 712 H 64.6224 -2.29608 2.2817 0
M  V30 713 H 63.5294 -0.472124 3.71109 0
M  V30 714 H 64.8624 -0.640695 4.88012 0
M  V30 715 N 66.5145 -1.57545 0.0417849 0
M  V30 716 C 67.7395 -1.97035 -0.647455 0
M  V30 717 C 68.1645 -0.918775 -1.64135 0
M  V30 718 O 67.5225 0.119006 -1.80909 0
M  V30 719 C 67.5705 -3.35609 -1.31905 0
M  V30 720 O 66.6745 -3.3287 -2.43457 0
M  V30 721 H 66.0155 -0.64211 -0.169086 0
M  V30 722 H 68.5455 -2.04318 0.107399 0
M  V30 723 H 68.5555 -3.72126 -1.67291 0
M  V30 724 H 67.2305 -4.11685 -0.590586 0
M  V30 725 H 65.8075 -3.08087 -2.10088 0
M  V30 726 N 67.9926 0.231505 -1.5589 0
M  V30 727 C 68.9396 1.28682 -1.91598 0
M  V30 728 C 69.9096 1.47071 -0.771974 0
M  V30 729 O 71.0946 1.60802 -1.027 0
M  V30 730 C 68.2346 2.6342 -2.22944 0
M  V30 731 C 67.3476 2.52912 -3.50228 0
M  V30 732 C 66.4826 3.80106 -3.7107 0
M  V30 733 C 65.5216 3.64279 -4.91902 0
M  V30 734 N 64.6586 4.834 -5.09184 0
M  V30 735 H 69.4986 0.975305 -2.81588 0
M  V30 736 H 67.0356 0.470299 -1.39379 0
M  V30 737 H 68.9936 3.41869 -2.39126 0
M  V30 738 H 67.6236 2.92687 -1.36139 0
M  V30 739 H 66.6756 1.6595 -3.42294 0
M  V30 740 H 67.9876 2.37133 -4.38827 0
M  V30 741 H 67.1416 4.66999 -3.87295 0
M  V30 742 H 65.8806 3.98799 -2.80733 0
M  V30 743 H 64.8856 2.7577 -4.75637 0
M  V30 744 H 66.1106 3.47067 -5.83714 0
M  V30 745 H 64.0566 5.02425 -4.21788 0
M  V30 746 H 63.9736 4.70311 -5.91898 0
M  V30 747 H 65.2416 5.71747 -5.29835 0
M  V30 748 N 69.4707 1.49531 0.497807 0
M  V30 749 C 70.8867 1.36365 0.829266 0
M  V30 750 C 71.0867 0.399184 1.97506 0
M  V30 751 O 70.1427 -0.167977 2.51941 0
M  V30 752 C 71.4557 2.77153 1.16647 0
M  V30 753 C 73.0037 2.85877 1.27449 0
M  V30 754 C 73.4787 4.2744 1.64497 0
M  V30 755 N 74.9697 4.30265 1.7154 0
M  V30 756 C 75.7047 5.3677 2.01656 0
M  V30 757 N 75.2007 6.53516 2.29976 0
M  V30 758 N 76.9937 5.24189 2.02934 0
M  V30 759 H 69.1447 2.10831 -0.257703 0
M  V30 760 H 71.4077 0.946534 -0.0527091 0
M  V30 761 H 71.1137 3.49442 0.397872 0
M  V30 762 H 70.9877 3.12722 2.10915 0
M  V30 763 H 73.3747 2.13824 2.0338 0
M  V30 764 H 73.4557 2.53887 0.312244 0
M  V30 765 H 73.0997 5.00021 0.891151 0
M  V30 766 H 73.0297 4.56896 2.61827 0
M  V30 767 H 75.5207 3.4607 1.51802 0
M  V30 768 H 75.8337 7.30506 2.52153 0
M  V30 769 H 74.1787 6.56737 2.27425 0
M  V30 770 H 77.3697 4.31988 1.80289 0
M  V30 771 H 77.5427 6.07286 2.26071 0
M  V30 772 N 70.9488 -0.749086 1.3866 0
M  V30 773 C 71.8788 -1.8764 1.38973 0
M  V30 774 C 72.8598 -1.68178 0.255004 0
M  V30 775 O 74.0448 -1.88704 0.458754 0
M  V30 776 C 71.1748 -3.25222 1.21851 0
M  V30 777 C 70.1288 -3.59295 2.32575 0
M  V30 778 C 69.4548 -4.95663 2.00555 0
M  V30 779 C 70.7548 -3.63709 3.7485 0
M  V30 780 H 72.4488 -1.87635 2.3331 0
M  V30 781 H 69.9948 -0.901329 1.12303 0
M  V30 782 H 71.9478 -4.03746 1.20695 0
M  V30 783 H 70.6718 -3.25719 0.239775 0
M  V30 784 H 69.3308 -2.83093 2.32925 0
M  V30 785 H 68.9788 -4.92724 1.01154 0
M  V30 786 H 68.6788 -5.19429 2.74714 0
M  V30 787 H 70.2028 -5.7656 2.01024 0
M  V30 788 H 71.6168 -4.32338 3.76506 0
M  V30 789 H 70.0138 -3.98986 4.48252 0
M  V30 790 H 71.0838 -2.63834 4.06841 0
M  V30 791 N 72.4269 -1.23603 -0.977757 0
M  V30 792 C 73.6729 -1.07129 -1.72195 0
M  V30 793 C 74.0059 0.390501 -1.90233 0
M  V30 794 O 73.2809 1.28902 -1.45653 0
M  V30 795 C 73.5639 -1.80031 -3.11867 0
M  V30 796 C 73.4169 -3.33899 -3.01383 0
M  V30 797 C 74.7359 -1.56492 -4.11337 0
M  V30 798 H 71.8549 -0.390571 -0.624999 0
M  V30 799 H 74.4969 -1.52142 -1.13811 0
M  V30 800 H 72.6469 -1.41768 -3.6171 0
M  V30 801 H 74.3189 -3.81699 -2.59043 0
M  V30 802 H 72.5619 -3.62796 -2.37827 0
M  V30 803 H 73.2329 -3.801 -4.00285 0
M  V30 804 H 75.7089 -1.89757 -3.70313 0
M  V30 805 H 74.5849 -2.09973 -5.07151 0
M  V30 806 H 74.8459 -0.500874 -4.39254 0
M  V30 807 N 73.905 1.17692 -1.04816 0
M  V30 808 C 75.182 1.83768 -0.669963 0
M  V30 809 C 75.562 1.93232 0.849986 0
M  V30 810 O 74.91 1.46397 1.75443 0
M  V30 811 C 75.12 3.21641 -1.35455 0
M  V30 812 C 76.468 3.97592 -1.49017 0
M  V30 813 O 77.492 3.31107 -1.31326 0
M  V30 814 O 76.351 5.16729 -1.77914 0
M  V30 815 H 73.445 0.792799 -0.235368 0
M  V30 816 H 75.991 1.25021 -1.14751 0
M  V30 817 H 74.763 3.097 -2.39168 0
M  V30 818 H 74.386 3.88052 -0.866107 0
M  V30 819 N 75.3831 0.828654 1.34056 0
M  V30 820 C 76.6111 0.43262 2.02326 0
M  V30 821 C 77.0261 -0.963147 1.62385 0
M  V30 822 O 76.3831 -1.62425 0.832121 0
M  V30 823 C 76.4341 0.53182 3.57567 0
M  V30 824 O 76.1551 1.87258 3.96063 0
M  V30 825 C 77.6561 0.131422 4.43105 0
M  V30 826 H 74.8761 0.172923 0.648335 0
M  V30 827 H 77.4201 1.1184 1.71208 0
M  V30 828 H 75.5751 -0.105938 3.87255 0
M  V30 829 H 75.9891 1.85087 4.90758 0
M  V30 830 H 77.4631 0.251904 5.51425 0
M  V30 831 H 77.9401 -0.925645 4.29335 0
M  V30 832 H 78.5461 0.743207 4.18756 0
M  V30 833 N 76.8612 -1.46375 0.584142 0
M  V30 834 C 77.8242 -2.28784 -0.138108 0
M  V30 835 C 78.8242 -1.38471 -0.817462 0
M  V30 836 O 80.0142 -1.60833 -0.669199 0
M  V30 837 C 77.1462 -3.18892 -1.20503 0
M  V30 838 H 78.3392 -2.94117 0.586127 0
M  V30 839 H 75.8922 -1.52509 0.342171 0
M  V30 840 H 76.6272 -2.58309 -1.96079 0
M  V30 841 H 76.4122 -3.85388 -0.722384 0
M  V30 842 H 77.9022 -3.80914 -1.71155 0
M  V30 843 N 78.3393 -0.321999 -1.54275 0
M  V30 844 C 79.2723 0.58718 -2.20516 0
M  V30 845 C 80.2503 1.11693 -1.18167 0
M  V30 846 O 81.4343 1.18122 -1.46899 0
M  V30 847 C 78.5613 1.80554 -2.86562 0
M  V30 848 C 77.6073 1.40718 -4.02617 0
M  V30 849 S 78.4403 0.445218 -5.33646 0
M  V30 850 C 79.5963 1.6709 -6.03185 0
M  V30 851 H 79.8293 0.0244875 -2.9729 0
M  V30 852 H 77.3623 -0.106087 -1.54035 0
M  V30 853 H 79.3203 2.50462 -3.25237 0
M  V30 854 H 77.9813 2.33942 -2.09595 0
M  V30 855 H 77.1743 2.31501 -4.47687 0
M  V30 856 H 76.7763 0.78782 -3.65608 0
M  V30 857 H 79.0683 2.60856 -6.25268 0
M  V30 858 H 80.0113 1.26239 -6.96756 0
M  V30 859 H 80.4193 1.85716 -5.33076 0
M  V30 860 N 79.8174 1.5752 -0.0501392 0
M  V30 861 C 81.0474 1.96678 0.632573 0
M  V30 862 C 81.4554 0.926298 1.64974 0
M  V30 863 O 80.7984 -0.09802 1.83438 0
M  V30 864 C 80.8604 3.32068 1.37735 0
M  V30 865 C 80.5244 4.54076 0.516131 0
M  V30 866 C 81.5214 5.19445 -0.217357 0
M  V30 867 C 79.2064 5.00304 0.44736 0
M  V30 868 C 81.2004 6.29378 -1.00807 0
M  V30 869 C 78.8874 6.10114 -0.347038 0
M  V30 870 C 79.8854 6.74512 -1.07344 0
M  V30 871 O 79.5734 7.82211 -1.85477 0
M  V30 872 H 79.3054 0.652193 0.177821 0
M  V30 873 H 81.8594 2.05091 -0.112543 0
M  V30 874 H 80.0894 3.20206 2.16807 0
M  V30 875 H 81.7784 3.55981 1.95019 0
M  V30 876 H 82.5444 4.84689 -0.173688 0
M  V30 877 H 78.4234 4.49971 1.00235 0
M  V30 878 H 81.9674 6.79575 -1.57556 0
M  V30 879 H 77.8644 6.44307 -0.392349 0
M  V30 880 H 78.6324 7.98982 -1.77678 0
M  V30 881 N 81.2955 -0.223234 1.56011 0
M  V30 882 C 82.2585 -1.26014 1.9145 0
M  V30 883 C 83.2585 -1.3989 0.792937 0
M  V30 884 O 84.4485 -1.38184 1.0607 0
M  V30 885 C 81.5805 -2.63422 2.16383 0
M  V30 886 H 82.7735 -0.95796 2.84189 0
M  V30 887 H 80.3265 -0.463576 1.49267 0
M  V30 888 H 81.0615 -2.98741 1.2619 0
M  V30 889 H 80.8465 -2.54728 2.98088 0
M  V30 890 H 82.3365 -3.38249 2.44903 0
M  V30 891 N 82.7736 -1.49793 -0.48987 0
M  V30 892 C 84.0016 -1.63568 -1.26701 0
M  V30 893 C 84.4166 -0.311465 -1.86213 0
M  V30 894 O 83.7736 0.704416 -1.68357 0
M  V30 895 C 83.8246 -2.71284 -2.38929 0
M  V30 896 O 83.5456 -3.9857 -1.81861 0
M  V30 897 C 85.0466 -2.95864 -3.3012 0
M  V30 898 H 82.2666 -0.550342 -0.383881 0
M  V30 899 H 84.8106 -1.95898 -0.586864 0
M  V30 900 H 82.9656 -2.417 -3.02753 0
M  V30 901 H 83.3796 -4.57993 -2.55622 0
M  V30 902 H 84.8536 -3.74941 -4.05121 0
M  V30 903 H 85.3306 -2.06206 -3.87783 0
M  V30 904 H 85.9366 -3.26907 -2.72051 0
M  V30 905 N 84.2517 0.741722 -1.39055 0
M  V30 906 C 85.1847 1.86416 -1.31622 0
M  V30 907 C 86.1627 1.61473 -0.191076 0
M  V30 908 O 87.3467 1.84825 -0.370399 0
M  V30 909 C 84.4737 3.22266 -1.04221 0
M  V30 910 C 83.5197 3.66079 -2.18834 0
M  V30 911 S 84.3527 3.7623 -3.81066 0
M  V30 912 C 85.5087 5.14881 -3.55877 0
M  V30 913 H 85.7417 1.92437 -2.26617 0
M  V30 914 H 83.2747 0.905907 -1.25031 0
M  V30 915 H 85.2327 4.00714 -0.890964 0
M  V30 916 H 83.8937 3.1391 -0.109237 0
M  V30 917 H 83.0867 4.64648 -1.95238 0
M  V30 918 H 82.6887 2.94817 -2.30128 0
M  V30 919 H 84.9807 6.01006 -3.12726 0
M  V30 920 H 85.9237 5.43503 -4.53884 0
M  V30 921 H 86.3317 4.84239 -2.90126 0
M  V30 922 N 85.7298 1.2412 0.971189 0
M  V30 923 C 86.6618 0.988349 2.06795 0
M  V30 924 C 87.6748 -0.0409541 1.62748 0
M  V30 925 O 88.8638 0.195673 1.77424 0
M  V30 926 C 85.9638 0.469023 3.35639 0
M  V30 927 C 85.1368 1.56065 4.08611 0
M  V30 928 C 84.1958 1.04458 5.15728 0
M  V30 929 O 83.2218 1.73553 5.42096 0
M  V30 930 N 84.4238 -0.122817 5.8037 0
M  V30 931 H 87.1888 1.93265 2.29061 0
M  V30 932 H 84.7498 1.15102 1.13856 0
M  V30 933 H 86.7418 0.108613 4.04554 0
M  V30 934 H 85.3118 -0.380919 3.1027 0
M  V30 935 H 84.5318 2.09341 3.34021 0
M  V30 936 H 85.8198 2.29449 4.54126 0
M  V30 937 H 85.2178 -0.700563 5.61345 0
M  V30 938 H 83.7748 -0.424404 6.50417 0
M  V30 939 N 87.2079 -1.17134 1.05439 0
M  V30 940 C 88.6239 -1.39454 0.776201 0
M  V30 941 C 88.8239 -1.91454 -0.628307 0
M  V30 942 O 87.8799 -2.10777 -1.39031 0
M  V30 943 C 89.1929 -2.38305 1.83388 0
M  V30 944 C 90.7409 -2.52006 1.85639 0
M  V30 945 C 91.2159 -3.54133 2.90437 0
M  V30 946 N 92.7069 -3.61653 2.89415 0
M  V30 947 C 93.4419 -4.4044 3.67152 0
M  V30 948 N 92.9379 -5.22721 4.54681 0
M  V30 949 N 94.7309 -4.35337 3.55581 0
M  V30 950 H 86.8819 -0.817134 1.96053 0
M  V30 951 H 89.1449 -0.421626 0.849079 0
M  V30 952 H 88.8509 -2.07173 2.84204 0
M  V30 953 H 88.7249 -3.37841 1.67761 0
M  V30 954 H 91.1119 -2.82447 0.85486 0
M  V30 955 H 91.1929 -1.52537 2.05344 0
M  V30 956 H 90.8369 -3.24431 3.90777 0
M  V30 957 H 90.7669 -4.53313 2.67983 0
M  V30 958 H 93.2579 -3.02909 2.25952 0
M  V30 959 H 93.5709 -5.80027 5.10674 0
M  V30 960 H 91.9159 -5.22093 4.58741 0
M  V30 961 H 95.1069 -3.70112 2.86592 0
M  V30 962 H 95.2799 -4.96494 4.1641 0
M  V30 963 N 88.686 -0.835752 -1.33615 0
M  V30 964 C 89.634 -0.255238 -2.31195 0
M  V30 965 C 90.628 0.61107 -1.57995 0
M  V30 966 O 91.834 0.500979 -1.72888 0
M  V30 967 H 88.209 -0.0638085 -0.749288 0
M  V30 968 H 90.18 -1.09283 -2.77669 0
M  V30 969 C 88.929 0.55754 -3.43201 0
M  V30 970 H 88.252 -0.0997553 -3.99676 0
M  V30 971 H 89.692 0.929622 -4.13683 0
M  V30 972 C 88.151 1.73515 -2.88781 0
M  V30 973 O 88.681 2.83376 -2.84712 0
M  V30 974 N 86.887 1.55603 -2.4543 0
M  V30 975 H 86.434 0.662354 -2.48939 0
M  V30 976 H 86.392 2.34545 -2.09371 0
M  V30 977 N 90.1641 1.46063 -0.591896 0
M  V30 978 C 91.0941 2.33172 0.123673 0
M  V30 979 C 92.0751 1.45897 0.87453 0
M  V30 980 O 93.2601 1.74698 0.848181 0
M  V30 981 C 90.3901 3.28336 1.13194 0
M  V30 982 C 89.3441 4.25124 0.495324 0
M  V30 983 C 88.6701 5.09863 1.61071 0
M  V30 984 C 89.9701 5.19143 -0.573425 0
M  V30 985 H 91.6641 2.93252 -0.603646 0
M  V30 986 H 89.2101 1.41014 -0.291741 0
M  V30 987 H 91.1631 3.88137 1.64097 0
M  V30 988 H 89.8871 2.66383 1.88965 0
M  V30 989 H 88.5461 3.66599 0.00729452 0
M  V30 990 H 88.1941 4.44288 2.35832 0
M  V30 991 H 87.8941 5.75417 1.19035 0
M  V30 992 H 89.4181 5.72529 2.12233 0
M  V30 993 H 90.8321 5.73106 -0.1491 0
M  V30 994 H 89.2291 5.93089 -0.914636 0
M  V30 995 H 90.2991 4.62519 -1.45617 0
M  V30 996 N 91.6422 0.330177 1.54103 0
M  V30 997 C 92.5892 -0.532762 2.24567 0
M  V30 998 C 93.5592 -1.10635 1.23892 0
M  V30 999 O 94.7442 -1.14546 1.5259 0
M  V30 1000 C 91.8842 -1.6845 3.01195 0
M  V30 1001 C 90.9972 -1.13951 4.167 0
M  V30 1002 C 90.1322 -2.25746 4.80845 0
M  V30 1003 C 89.1712 -1.6853 5.88442 0
M  V30 1004 N 88.3082 -2.74014 6.46421 0
M  V30 1005 H 93.1482 0.0746905 2.97906 0
M  V30 1006 H 90.6852 0.048632 1.4702 0
M  V30 1007 H 92.6432 -2.36234 3.43874 0
M  V30 1008 H 91.2732 -2.26314 2.30178 0
M  V30 1009 H 90.3252 -0.35301 3.78758 0
M  V30 1010 H 91.6372 -0.680892 4.94131 0
M  V30 1011 H 90.7912 -3.01422 5.26526 0
M  V30 1012 H 89.5302 -2.74947 4.0281 0
M  V30 1013 H 88.5352 -0.913543 5.42157 0
M  V30 1014 H 89.7602 -1.20198 6.68378 0
M  V30 1015 H 87.7062 -3.22494 5.71256 0
M  V30 1016 H 87.6232 -2.32735 7.19285 0
M  V30 1017 H 88.8912 -3.49499 6.96757 0
M  V30 1018 N 93.1203 -1.57491 0.0584922 0
M  V30 1019 C 94.0673 -2.11958 -0.913376 0
M  V30 1020 C 95.0373 -1.02875 -1.30407 0
M  V30 1021 O 96.2223 -1.30464 -1.39226 0
M  V30 1022 C 93.3623 -2.67497 -2.18035 0
M  V30 1023 C 92.4753 -3.90691 -1.84349 0
M  V30 1024 C 91.6103 -4.3452 -3.05559 0
M  V30 1025 C 90.6493 -5.50395 -2.67827 0
M  V30 1026 N 89.7863 -5.89244 -3.81754 0
M  V30 1027 H 94.6263 -2.94704 -0.442017 0
M  V30 1028 H 92.1633 -1.45643 -0.206545 0
M  V30 1029 H 94.1213 -2.978 -2.92183 0
M  V30 1030 H 92.7513 -1.87537 -2.62735 0
M  V30 1031 H 91.8033 -3.66934 -1.00319 0
M  V30 1032 H 93.1153 -4.7489 -1.5258 0
M  V30 1033 H 92.2693 -4.66414 -3.87998 0
M  V30 1034 H 91.0083 -3.49147 -3.40511 0
M  V30 1035 H 90.0133 -5.18165 -1.83806 0
M  V30 1036 H 91.2383 -6.3749 -2.34059 0
M  V30 1037 H 89.1843 -5.06823 -4.16493 0
M  V30 1038 H 89.1013 -6.68151 -3.53708 0
M  V30 1039 H 90.3693 -6.25756 -4.64811 0
M  V30 1040 N 94.5984 0.214957 -1.56127 0
M  V30 1041 C 96.0144 0.564948 -1.49267 0
M  V30 1042 C 96.2144 1.86827 -0.754838 0
M  V30 1043 O 95.2704 2.50745 -0.297198 0
M  V30 1044 C 96.5834 0.638071 -2.93852 0
M  V30 1045 C 98.1314 0.728253 -3.0441 0
M  V30 1046 C 98.6064 0.832663 -4.50367 0
M  V30 1047 N 100.097 0.896712 -4.54437 0
M  V30 1048 C 100.832 0.997324 -5.6466 0
M  V30 1049 N 100.328 1.06147 -6.8462 0
M  V30 1050 N 102.121 1.03297 -5.52527 0
M  V30 1051 H 94.2724 -0.640211 -2.02522 0
M  V30 1052 H 96.5354 -0.225507 -0.920788 0
M  V30 1053 H 96.2414 -0.250126 -3.50809 0
M  V30 1054 H 96.1154 1.49947 -3.46115 0
M  V30 1055 H 98.5024 1.60689 -2.47514 0
M  V30 1056 H 98.5834 -0.158952 -2.55306 0
M  V30 1057 H 98.2274 -0.0415417 -5.07883 0
M  V30 1058 H 98.1574 1.73538 -4.97184 0
M  V30 1059 H 100.648 0.857188 -3.6805 0
M  V30 1060 H 100.961 1.1382 -7.64372 0
M  V30 1061 H 99.3064 1.03049 -6.87318 0
M  V30 1062 H 102.497 0.979558 -4.57736 0
M  V30 1063 H 102.67 1.10793 -6.38458 0
M  V30 1064 N 96.0765 1.50051 0.48192 0
M  V30 1065 C 97.3245 1.60181 1.23234 0
M  V30 1066 C 97.6455 0.299176 1.92691 0
M  V30 1067 O 96.9155 -0.682708 1.83619 0
M  V30 1068 H 95.4955 0.590232 0.457859 0
M  V30 1069 H 98.1575 1.86775 0.556881 0
M  V30 1070 H 97.2535 2.40753 1.98607 0
M  V30 1071 N 97.5546 -0.734337 1.39446 0
M  V30 1072 C 98.8036 -1.48937 1.36017 0
M  V30 1073 C 99.1166 -1.95557 -0.0409005 0
M  V30 1074 O 100.323 -2.70779 -0.19778 0
M  V30 1075 C 98.7786 -2.69125 2.38955 0
M  V30 1076 C 98.3866 -2.29452 3.8478 0
M  V30 1077 C 100.131 -3.46944 2.44603 0
M  V30 1078 C 98.0376 -3.46366 4.79358 0
M  V30 1079 H 96.9676 -0.559296 0.505672 0
M  V30 1080 H 99.6186 -0.800983 1.65095 0
M  V30 1081 H 98.0006 -3.40041 2.02948 0
M  V30 1082 H 99.1746 -1.66077 4.29831 0
M  V30 1083 H 97.4896 -1.64723 3.82433 0
M  V30 1084 H 100.087 -4.33907 3.12456 0
M  V30 1085 H 100.43 -3.89454 1.47076 0
M  V30 1086 H 100.963 -2.83056 2.79507 0
M  V30 1087 H 97.7016 -3.08905 5.78151 0
M  V30 1088 H 97.2216 -4.08719 4.38986 0
M  V30 1089 H 98.9006 -4.12691 4.98292 0
M  V30 1090 N 99.0327 -1.24633 -0.964593 0
M  V30 1091 C 99.9627 -1.06611 -2.07741 0
M  V30 1092 C 100.944 0.0218666 -1.70086 0
M  V30 1093 O 102.129 -0.145793 -1.93652 0
M  V30 1094 C 99.2587 -0.673444 -3.40708 0
M  V30 1095 C 98.2127 -1.71054 -3.92332 0
M  V30 1096 C 97.5387 -1.17285 -5.21678 0
M  V30 1097 C 98.8387 -3.10718 -4.19824 0
M  V30 1098 H 100.533 -1.99693 -2.23076 0
M  V30 1099 H 98.0787 -0.96152 -1.07195 0
M  V30 1100 H 100.032 -0.534345 -4.17998 0
M  V30 1101 H 98.7557 0.293073 -3.25282 0
M  V30 1102 H 97.4147 -1.83791 -3.17201 0
M  V30 1103 H 97.0627 -0.196847 -5.02615 0
M  V30 1104 H 96.7627 -1.86592 -5.57187 0
M  V30 1105 H 98.2867 -1.04593 -6.01575 0
M  V30 1106 H 99.7007 -3.01192 -4.87808 0
M  V30 1107 H 98.0977 -3.77406 -4.66567 0
M  V30 1108 H 99.1677 -3.58524 -3.26479 0
M  V30 1109 N 100.511 1.16574 -1.06058 0
M  V30 1110 C 101.736 1.91493 -0.796562 0
M  V30 1111 C 102.161 1.76773 0.642868 0
M  V30 1112 O 101.519 1.09142 1.44768 0
M  V30 1113 C 101.567 3.40293 -1.19303 0
M  V30 1114 O 100.671 4.11074 -0.330394 0
M  V30 1115 H 100.012 0.596678 -0.291326 0
M  V30 1116 H 102.542 1.47708 -1.41575 0
M  V30 1117 H 102.552 3.91057 -1.16356 0
M  V30 1118 H 101.227 3.50326 -2.24153 0
M  V30 1119 H 99.8038 3.70513 -0.421225 0
M  V30 1120 N 101.989 0.842826 1.3317 0
M  V30 1121 C 103.4 0.496651 1.79973 0
M  V30 1122 C 103.751 -0.984641 1.69703 0
M  V30 1123 O 102.876 -1.76743 1.24863 0
M  V30 1124 C 103.471 0.894727 3.26772 0
M  V30 1125 C 102.03 0.600629 3.71577 0
M  V30 1126 C 101.177 1.10091 2.5451 0
M  V30 1127 H 104.128 1.03116 1.20635 0
M  V30 1128 H 104.149 0.206347 3.7994 0
M  V30 1129 H 103.661 1.97287 3.34215 0
M  V30 1130 H 101.762 -0.467284 3.69658 0
M  V30 1131 H 101.875 1.15863 4.64879 0
M  V30 1132 H 100.239 0.52162 2.49301 0
M  V30 1133 H 101.022 2.18591 2.64713 0
M  V30 1134 N 103.467 -1.45747 0.599634 0
M  V30 1135 C 104.43 -2.28917 -0.113835 0
M  V30 1136 C 105.43 -1.3933 -0.802729 0
M  V30 1137 O 106.62 -1.61534 -0.652103 0
M  V30 1138 C 103.752 -3.20152 -1.17114 0
M  V30 1139 H 104.945 -2.93478 0.617289 0
M  V30 1140 H 102.498 -1.52137 0.358327 0
M  V30 1141 H 103.233 -2.60374 -1.93329 0
M  V30 1142 H 103.018 -3.86133 -0.681468 0
M  V30 1143 H 104.508 -3.82708 -1.67105 0
M  V30 1144 N 104.945 -0.338344 -1.53925 0
M  V30 1145 C 105.877 0.555117 -2.22376 0
M  V30 1146 C 106.89 1.06812 -1.22862 0
M  V30 1147 O 108.079 0.979163 -1.49247 0
M  V30 1148 C 105.179 1.77609 -2.88631 0
M  V30 1149 C 104.352 1.39927 -4.14414 0
M  V30 1150 C 103.411 2.47936 -4.64127 0
M  V30 1151 O 102.437 2.11461 -5.28463 0
M  V30 1152 N 103.639 3.79107 -4.39612 0
M  V30 1153 H 106.404 -0.0310778 -2.99684 0
M  V30 1154 H 103.965 -0.162226 -1.61085 0
M  V30 1155 H 105.957 2.49287 -3.18807 0
M  V30 1156 H 104.527 2.26978 -2.14941 0
M  V30 1157 H 103.747 0.513481 -3.90841 0
M  V30 1158 H 105.035 1.12341 -4.96243 0
M  V30 1159 H 104.433 4.11531 -3.88148 0
M  V30 1160 H 102.99 4.4697 -4.74406 0
M  V30 1161 N 106.423 1.57458 -0.0668435 0
M  V30 1162 C 107.353 2.15468 0.899764 0
M  V30 1163 C 108.334 1.08042 1.31381 0
M  V30 1164 O 109.519 1.36054 1.38574 0
M  V30 1165 C 106.649 2.71232 2.16911 0
M  V30 1166 C 105.603 3.83781 1.89463 0
M  V30 1167 C 104.929 4.26127 3.22986 0
M  V30 1168 C 106.229 5.08238 1.20381 0
M  V30 1169 H 107.923 2.96488 0.416529 0
M  V30 1170 H 105.469 1.4262 0.198908 0
M  V30 1171 H 107.422 3.10458 2.84945 0
M  V30 1172 H 106.146 1.87426 2.67468 0
M  V30 1173 H 104.805 3.45051 1.23836 0
M  V30 1174 H 104.453 3.39249 3.71374 0
M  V30 1175 H 104.153 5.01993 3.05413 0
M  V30 1176 H 105.677 4.67966 3.92225 0
M  V30 1177 H 107.091 5.44811 1.78475 0
M  V30 1178 H 105.488 5.89349 1.13083 0
M  V30 1179 H 106.558 4.84558 0.182153 0
M  V30 1180 N 107.901 -0.206675 1.56239 0
M  V30 1181 C 108.831 -1.25909 1.96645 0
M  V30 1182 C 109.812 -1.48097 0.836734 0
M  V30 1183 O 110.997 -1.6003 1.10019 0
M  V30 1184 C 108.127 -2.6058 2.29599 0
M  V30 1185 C 107.081 -2.53024 3.452 0
M  V30 1186 C 106.407 -3.91861 3.63798 0
M  V30 1187 C 107.707 -2.06524 4.79734 0
M  V30 1188 H 109.401 -0.923369 2.84806 0
M  V30 1189 H 106.947 -0.442735 1.37025 0
M  V30 1190 H 108.9 -3.34375 2.56459 0
M  V30 1191 H 107.624 -2.95869 1.38307 0
M  V30 1192 H 106.283 -1.81684 3.18412 0
M  V30 1193 H 105.931 -4.24483 2.69857 0
M  V30 1194 H 105.631 -3.87683 4.4156 0
M  V30 1195 H 107.155 -4.67296 3.93022 0
M  V30 1196 H 108.569 -2.70072 5.05702 0
M  V30 1197 H 106.966 -2.13374 5.60885 0
M  V30 1198 H 108.036 -1.01802 4.74093 0
M  V30 1199 N 109.379 -1.50304 -0.473955 0
M  V30 1200 C 110.604 -1.65175 -1.25427 0
M  V30 1201 C 111.029 -0.333673 -1.85117 0
M  V30 1202 O 110.387 0.702114 -1.67153 0
M  V30 1203 C 110.435 -2.74295 -2.34082 0
M  V30 1204 O 109.539 -2.35349 -3.38651 0
M  V30 1205 H 108.88 -0.551944 -0.369126 0
M  V30 1206 H 111.41 -1.96662 -0.564364 0
M  V30 1207 H 111.42 -2.97285 -2.79438 0
M  V30 1208 H 110.095 -3.69959 -1.90008 0
M  V30 1209 H 108.672 -2.22794 -2.99027 0
M  V30 1210 N 110.857 0.726932 -1.39834 0
M  V30 1211 C 112.104 1.48664 -1.37496 0
M  V30 1212 C 112.432 1.94482 0.0264678 0
M  V30 1213 O 111.687 1.67692 1.00886 0
M  V30 1214 C 111.986 2.73495 -2.30077 0
M  V30 1215 C 111.652 2.46502 -3.77555 0
M  V30 1216 C 110.314 2.3885 -4.17737 0
M  V30 1217 C 112.666 2.23604 -4.70798 0
M  V30 1218 C 109.994 2.06352 -5.49214 0
M  V30 1219 C 112.346 1.92622 -6.02561 0
M  V30 1220 C 111.01 1.83444 -6.41798 0
M  V30 1221 H 110.28 0.544001 -0.503135 0
M  V30 1222 H 112.927 0.833657 -1.72402 0
M  V30 1223 H 111.232 3.43575 -1.88317 0
M  V30 1224 H 112.929 3.31549 -2.25558 0
M  V30 1225 H 109.519 2.5334 -3.45712 0
M  V30 1226 H 113.703 2.28479 -4.40581 0
M  V30 1227 H 108.959 1.97776 -5.78528 0
M  V30 1228 H 113.133 1.73914 -6.74334 0
M  V30 1229 H 110.76 1.58029 -7.43593 0
M  V30 1230 N 112.336 1.25143 0.95797 0
M  V30 1231 C 113.561 1.12521 1.74223 0
M  V30 1232 C 113.986 -0.317402 1.85403 0
M  V30 1233 O 113.344 -1.2299 1.33204 0
M  V30 1234 C 113.392 1.78062 3.1357 0
M  V30 1235 O 112.496 1.058 3.98598 0
M  V30 1236 H 111.837 0.39304 0.535178 0
M  V30 1237 H 114.367 1.65641 1.201 0
M  V30 1238 H 114.377 1.84213 3.64046 0
M  V30 1239 H 113.052 2.83021 3.04749 0
M  V30 1240 H 111.629 1.07506 3.57067 0
M  V30 1241 N 113.814 -1.1601 1.06675 0
M  V30 1242 C 114.761 -2.20525 0.680967 0
M  V30 1243 C 115.731 -1.62904 -0.324283 0
M  V30 1244 O 116.916 -1.89615 -0.212294 0
M  V30 1245 C 114.056 -3.45013 0.0776551 0
M  V30 1246 C 113.169 -4.16863 1.13355 0
M  V30 1247 C 112.304 -5.2888 0.49597 0
M  V30 1248 C 111.343 -5.92537 1.53513 0
M  V30 1249 N 110.48 -6.96038 0.920631 0
M  V30 1250 H 115.32 -2.52876 1.57663 0
M  V30 1251 H 112.857 -1.24199 0.788223 0
M  V30 1252 H 114.815 -4.16193 -0.289704 0
M  V30 1253 H 113.445 -3.132 -0.781393 0
M  V30 1254 H 112.497 -3.44248 1.61857 0
M  V30 1255 H 113.809 -4.60294 1.92174 0
M  V30 1256 H 112.963 -6.06653 0.0758604 0
M  V30 1257 H 111.702 -4.86622 -0.324062 0
M  V30 1258 H 110.707 -5.13482 1.9651 0
M  V30 1259 H 111.932 -6.36873 2.35733 0
M  V30 1260 H 109.878 -6.55888 0.12138 0
M  V30 1261 H 109.795 -7.3786 1.64616 0
M  V30 1262 H 111.063 -7.77725 0.525795 0
M  V30 1263 N 115.292 -0.849877 -1.32721 0
M  V30 1264 C 116.222 -0.306308 -2.31482 0
M  V30 1265 C 117.203 0.591952 -1.59468 0
M  V30 1266 O 118.388 0.513199 -1.87296 0
M  V30 1267 C 115.518 0.510204 -3.43532 0
M  V30 1268 C 114.472 -0.293209 -4.26994 0
M  V30 1269 C 113.798 0.647743 -5.30762 0
M  V30 1270 C 115.098 -1.51634 -4.99804 0
M  V30 1271 H 116.792 -1.13153 -2.77195 0
M  V30 1272 H 114.338 -0.545553 -1.33266 0
M  V30 1273 H 116.291 0.900856 -4.11658 0
M  V30 1274 H 115.015 1.36874 -2.96535 0
M  V30 1275 H 113.674 -0.665555 -3.60508 0
M  V30 1276 H 113.322 1.50299 -4.8002 0
M  V30 1277 H 113.022 0.11422 -5.87489 0
M  V30 1278 H 114.546 1.03567 -6.01753 0
M  V30 1279 H 115.96 -1.19824 -5.60638 0
M  V30 1280 H 114.357 -1.98745 -5.66234 0
M  V30 1281 H 115.427 -2.28018 -4.27943 0
M  V30 1282 N 116.77 1.45427 -0.607355 0
M  V30 1283 C 118.181 1.85756 -0.187535 0
M  V30 1284 C 118.532 1.5077 1.25551 0
M  V30 1285 O 117.657 0.93427 1.95193 0
M  V30 1286 C 118.252 3.37154 -0.333572 0
M  V30 1287 C 116.811 3.76387 0.0315542 0
M  V30 1288 C 115.958 2.69377 -0.658117 0
M  V30 1289 H 118.909 1.36231 -0.81405 0
M  V30 1290 H 118.93 3.78014 0.43428 0
M  V30 1291 H 118.442 3.62586 -1.38393 0
M  V30 1292 H 116.543 3.56571 1.0811 0
M  V30 1293 H 116.656 4.77731 -0.361935 0
M  V30 1294 H 115.02 2.5452 -0.0957873 0
M  V30 1295 H 115.803 2.97646 -1.7106 0
M  V30 1296 N 118.248 0.346503 1.53744 0
M  V30 1297 C 119.158 -0.517293 2.28826 0
M  V30 1298 C 120.174 -1.10935 1.3405 0
M  V30 1299 O 121.35 -1.1244 1.6709 0
M  V30 1300 C 118.415 -1.65098 3.04866 0
M  V30 1301 C 117.476 -1.0884 4.15274 0
M  V30 1302 C 116.709 -2.16806 4.87679 0
M  V30 1303 O 116.932 -3.3758 4.59778 0
M  V30 1304 O 115.866 -1.80934 5.74061 0
M  V30 1305 H 119.692 0.0931396 3.03557 0
M  V30 1306 H 117.277 0.111458 1.48984 0
M  V30 1307 H 119.159 -2.31053 3.5241 0
M  V30 1308 H 117.834 -2.24717 2.32989 0
M  V30 1309 H 116.741 -0.3933 3.72027 0
M  V30 1310 H 118.074 -0.537036 4.89261 0
M  V30 1311 N 119.726 -1.57421 0.075193 0
M  V30 1312 C 121.137 -1.81021 -0.456964 0
M  V30 1313 C 121.488 -0.98936 -1.69429 0
M  V30 1314 O 120.613 -0.212865 -2.15351 0
M  V30 1315 C 121.208 -3.28329 -0.83581 0
M  V30 1316 C 119.767 -3.52764 -1.31281 0
M  V30 1317 C 118.914 -2.75676 -0.299648 0
M  V30 1318 H 121.865 -1.55822 0.300856 0
M  V30 1319 H 121.886 -3.40564 -1.69696 0
M  V30 1320 H 121.398 -3.88046 0.0649238 0
M  V30 1321 H 119.499 -2.98355 -2.23193 0
M  V30 1322 H 119.612 -4.61451 -1.28839 0
M  V30 1323 H 117.976 -2.42538 -0.777641 0
M  V30 1324 H 118.759 -3.38132 0.593417 0
M  V30 1325 N 121.204 0.198386 -1.56346 0
M  V30 1326 C 122.432 0.935572 -1.84539 0
M  V30 1327 C 122.847 1.76989 -0.657281 0
M  V30 1328 O 122.204 1.78626 0.374043 0
M  V30 1329 C 122.255 1.8344 -3.11499 0
M  V30 1330 O 121.976 1.03377 -4.25728 0
M  V30 1331 C 123.477 2.68355 -3.52846 0
M  V30 1332 H 120.697 0.273126 -0.612897 0
M  V30 1333 H 123.241 0.20663 -2.03453 0
M  V30 1334 H 121.396 2.51701 -2.94492 0
M  V30 1335 H 121.81 1.64599 -4.98003 0
M  V30 1336 H 123.284 3.27085 -4.44657 0
M  V30 1337 H 123.761 3.41901 -2.75681 0
M  V30 1338 H 124.367 2.05471 -3.72373 0
M  V30 1339 N 122.682 1.50554 0.465978 0
M  V30 1340 C 123.907 1.65838 1.24549 0
M  V30 1341 C 124.332 0.343486 1.84937 0
M  V30 1342 O 123.69 -0.69324 1.67523 0
M  V30 1343 C 123.738 2.75533 2.32624 0
M  V30 1344 O 122.842 2.37142 3.37398 0
M  V30 1345 H 122.183 0.553893 0.366194 0
M  V30 1346 H 124.713 1.96959 0.553927 0
M  V30 1347 H 124.723 2.98763 2.77857 0
M  V30 1348 H 123.398 3.70962 1.88043 0
M  V30 1349 H 121.975 2.24377 2.97841 0
M  V30 1350 N 124.16 -0.719506 1.40217 0
M  V30 1351 C 125.408 -1.47641 1.3801 0
M  V30 1352 C 125.729 -1.94992 -0.018145 0
M  V30 1353 O 124.999 -1.70073 -0.972207 0
M  V30 1354 H 123.579 -0.547744 0.507923 0
M  V30 1355 H 126.241 -0.853187 1.75233 0
M  V30 1356 H 125.337 -2.35112 2.05253 0
M  V30 1357 N 125.638 -1.25649 -0.95132 0
M  V30 1358 C 126.884 -1.10757 -1.69884 0
M  V30 1359 C 127.217 0.350061 -1.91019 0
M  V30 1360 O 126.492 1.25783 -1.48354 0
M  V30 1361 C 126.775 -1.86606 -3.07978 0
M  V30 1362 C 126.628 -3.40217 -2.94232 0
M  V30 1363 C 127.947 -1.65182 -4.07925 0
M  V30 1364 H 125.066 -0.40374 -0.616574 0
M  V30 1365 H 127.708 -1.54521 -1.10558 0
M  V30 1366 H 125.858 -1.49409 -3.58621 0
M  V30 1367 H 127.53 -3.87108 -2.50889 0
M  V30 1368 H 125.773 -3.67759 -2.30078 0
M  V30 1369 H 126.444 -3.88505 -3.92133 0
M  V30 1370 H 128.92 -1.9757 -3.66204 0
M  V30 1371 H 127.796 -2.20683 -5.02583 0
M  V30 1372 H 128.057 -0.593933 -4.38092 0
M  V30 1373 N 127.117 1.15442 -1.07289 0
M  V30 1374 C 128.366 1.85557 -0.790669 0
M  V30 1375 C 128.679 1.83186 0.685739 0
M  V30 1376 O 129.885 2.48977 1.0827 0
M  V30 1377 C 128.341 3.33038 -1.36433 0
M  V30 1378 C 127.949 3.43856 -2.8717 0
M  V30 1379 C 129.693 4.0834 -1.1601 0
M  V30 1380 C 127.6 4.85482 -3.3773 0
M  V30 1381 H 126.53 0.695122 -0.292098 0
M  V30 1382 H 129.181 1.30219 -1.29287 0
M  V30 1383 H 127.563 3.88043 -0.789864 0
M  V30 1384 H 128.737 2.98961 -3.50655 0
M  V30 1385 H 127.052 2.81998 -3.06376 0
M  V30 1386 H 129.649 5.12859 -1.51262 0
M  V30 1387 H 129.992 4.16182 -0.0991007 0
M  V30 1388 H 130.525 3.59603 -1.70089 0
M  V30 1389 H 127.264 4.82823 -4.43353 0
M  V30 1390 H 126.784 5.30961 -2.78999 0
M  V30 1391 H 128.463 5.54335 -3.33648 0
M  V30 1392 N 128.595 0.856903 1.32268 0
M  V30 1393 C 129.558 0.308171 2.27119 0
M  V30 1394 C 130.558 -0.533421 1.51695 0
M  V30 1395 O 131.748 -0.344607 1.70757 0
M  V30 1396 C 128.88 -0.563757 3.36206 0
M  V30 1397 H 130.073 1.14535 2.77167 0
M  V30 1398 H 127.626 0.631421 1.42978 0
M  V30 1399 H 128.361 -1.42266 2.91429 0
M  V30 1400 H 128.146 0.0386749 3.92081 0
M  V30 1401 H 129.636 -0.940386 4.06874 0
M  V30 1402 N 130.073 -1.45103 0.615059 0
M  V30 1403 C 131.489 -1.57137 0.279322 0
M  V30 1404 C 131.689 -1.60523 -1.21797 0
M  V30 1405 O 130.745 -1.53956 -2.00134 0
M  V30 1406 C 132.058 -2.85062 0.957083 0
M  V30 1407 C 133.606 -2.98749 0.933706 0
M  V30 1408 C 134.081 -4.29455 1.59162 0
M  V30 1409 N 135.572 -4.36231 1.55746 0
M  V30 1410 C 136.307 -5.36051 2.0356 0
M  V30 1411 N 135.803 -6.42367 2.59494 0
M  V30 1412 N 137.596 -5.27456 1.94284 0
M  V30 1413 H 129.747 -1.41148 1.58717 0
M  V30 1414 H 132.01 -0.675331 0.665306 0
M  V30 1415 H 131.716 -2.88488 2.01166 0
M  V30 1416 H 131.59 -3.7407 0.48494 0
M  V30 1417 H 133.977 -2.94886 -0.112347 0
M  V30 1418 H 134.058 -2.11132 1.44419 0
M  V30 1419 H 133.702 -4.34077 2.63704 0
M  V30 1420 H 133.632 -5.15901 1.0561 0
M  V30 1421 H 136.123 -3.60011 1.14893 0
M  V30 1422 H 136.436 -7.14793 2.93752 0
M  V30 1423 H 134.781 -6.43097 2.63537 0
M  V30 1424 H 137.972 -4.43308 1.5032 0
M  V30 1425 H 138.145 -6.05099 2.3186 0
M  V30 1426 N 131.551 -0.354651 -1.53558 0
M  V30 1427 C 132.514 0.484566 -2.24019 0
M  V30 1428 C 133.514 1.01861 -1.24422 0
M  V30 1429 O 134.704 0.906097 -1.4878 0
M  V30 1430 C 131.836 1.67615 -2.96847 0
M  V30 1431 H 133.029 -0.131843 -2.9961 0
M  V30 1432 H 130.582 -0.106165 -1.55939 0
M  V30 1433 H 131.317 2.33095 -2.25471 0
M  V30 1434 H 131.102 1.30029 -3.69912 0
M  V30 1435 H 132.592 2.27114 -3.50441 0
M  V30 1436 N 133.029 1.57378 -0.0835403 0
M  V30 1437 C 133.992 2.12252 0.864959 0
M  V30 1438 C 134.992 1.04916 1.21858 0
M  V30 1439 O 136.182 1.30853 1.14991 0
M  V30 1440 C 133.314 2.63358 2.16461 0
M  V30 1441 H 134.507 2.97371 0.388676 0
M  V30 1442 H 132.06 1.55423 0.165317 0
M  V30 1443 H 132.795 1.81727 2.686 0
M  V30 1444 H 132.58 3.41826 1.92087 0
M  V30 1445 H 134.07 3.05847 2.84337 0
M  V30 1446 N 134.507 -0.190092 1.56449 0
M  V30 1447 C 135.417 -1.25591 1.98152 0
M  V30 1448 C 136.433 -1.49519 0.889944 0
M  V30 1449 O 137.609 -1.62036 1.19609 0
M  V30 1450 C 134.674 -2.57916 2.3169 0
M  V30 1451 C 133.735 -2.42015 3.5458 0
M  V30 1452 C 132.968 -3.6803 3.8651 0
M  V30 1453 O 133.191 -4.72413 3.1966 0
M  V30 1454 O 132.125 -3.6326 4.79923 0
M  V30 1455 H 135.951 -0.931988 2.89046 0
M  V30 1456 H 133.536 -0.395488 1.4407 0
M  V30 1457 H 135.418 -3.36008 2.54316 0
M  V30 1458 H 134.093 -2.89925 1.43963 0
M  V30 1459 H 133 -1.62017 3.37196 0
M  V30 1460 H 134.333 -2.14937 4.4279 0
M  V30 1461 N 135.985 -1.50799 -0.457987 0
M  V30 1462 C 137.234 -1.6168 -1.20593 0
M  V30 1463 C 137.547 -0.32888 -1.92815 0
M  V30 1464 O 138.753 -0.316773 -2.69646 0
M  V30 1465 C 137.209 -2.8545 -2.19195 0
M  V30 1466 C 136.817 -4.21168 -1.52715 0
M  V30 1467 C 138.561 -3.05681 -2.94549 0
M  V30 1468 C 136.468 -5.3611 -2.4968 0
M  V30 1469 H 135.398 -0.602134 -0.453818 0
M  V30 1470 H 138.049 -1.77245 -0.475031 0
M  V30 1471 H 136.431 -2.63472 -2.95632 0
M  V30 1472 H 137.605 -4.53449 -0.819775 0
M  V30 1473 H 135.92 -4.06648 -0.895922 0
M  V30 1474 H 138.517 -3.88727 -3.67145 0
M  V30 1475 H 138.86 -2.17929 -3.54701 0
M  V30 1476 H 139.393 -3.27901 -2.25223 0
M  V30 1477 H 136.132 -6.26057 -1.94249 0
M  V30 1478 H 135.652 -5.0823 -3.18532 0
M  V30 1479 H 137.331 -5.6722 -3.11241 0
M  V30 1480 N 137.463 0.71206 -1.40597 0
M  V30 1481 C 138.396 1.83582 -1.35546 0
M  V30 1482 C 139.374 1.61032 -0.225284 0
M  V30 1483 O 140.558 1.83998 -0.409519 0
M  V30 1484 C 137.685 3.19983 -1.11034 0
M  V30 1485 C 136.731 3.61355 -2.2655 0
M  V30 1486 S 137.564 3.68062 -3.88961 0
M  V30 1487 C 138.72 5.07216 -3.66719 0
M  V30 1488 H 138.953 1.87586 -2.30648 0
M  V30 1489 H 136.486 0.879182 -1.26924 0
M  V30 1490 H 138.444 3.98734 -0.975761 0
M  V30 1491 H 137.105 3.13608 -0.175798 0
M  V30 1492 H 136.298 4.60403 -2.0505 0
M  V30 1493 H 135.9 2.8987 -2.36329 0
M  V30 1494 H 138.192 5.94238 -3.25404 0
M  V30 1495 H 139.135 5.33753 -4.6531 0
M  V30 1496 H 139.543 4.77976 -3.00332 0
M  V30 1497 N 138.941 1.26152 0.944643 0
M  V30 1498 C 139.851 1.09176 2.07648 0
M  V30 1499 C 140.867 0.0261935 1.7398 0
M  V30 1500 O 142.043 0.229208 2.00091 0
M  V30 1501 C 139.108 0.722915 3.39079 0
M  V30 1502 C 138.169 1.86752 3.86552 0
M  V30 1503 C 137.402 1.51617 5.11711 0
M  V30 1504 O 137.625 0.416331 5.68879 0
M  V30 1505 O 136.559 2.34975 5.54139 0
M  V30 1506 H 140.385 2.0412 2.24875 0
M  V30 1507 H 137.97 1.05182 1.061 0
M  V30 1508 H 139.852 0.529787 4.18056 0
M  V30 1509 H 138.527 -0.197159 3.23099 0
M  V30 1510 H 137.434 2.11558 3.08535 0
M  V30 1511 H 138.767 2.76719 4.07047 0
M  V30 1512 N 140.419 -1.14872 1.07899 0
M  V30 1513 C 141.647 -1.89661 0.82683 0
M  V30 1514 C 142.062 -1.78312 -0.620519 0
M  V30 1515 O 141.419 -1.13888 -1.42604 0
M  V30 1516 C 141.47 -3.39817 1.23316 0
M  V30 1517 O 141.191 -3.50845 2.62372 0
M  V30 1518 C 142.692 -4.31615 1.0111 0
M  V30 1519 H 139.912 -0.60092 0.298557 0
M  V30 1520 H 142.456 -1.4551 1.43691 0
M  V30 1521 H 140.611 -3.8161 0.667286 0
M  V30 1522 H 141.025 -4.44076 2.79101 0
M  V30 1523 H 142.499 -5.35367 1.34486 0
M  V30 1524 H 142.976 -4.39169 -0.0522168 0
M  V30 1525 H 143.582 -3.95572 1.56215 0
M  V30 1526 N 141.898 -0.863906 -1.31812 0
M  V30 1527 C 143.123 -0.48527 -2.01643 0
M  V30 1528 C 143.548 0.913058 -1.64453 0
M  V30 1529 O 142.906 1.6014 -0.849985 0
M  V30 1530 C 142.954 -0.642625 -3.54828 0
M  V30 1531 O 142.058 0.320659 -4.11151 0
M  V30 1532 H 141.399 -0.193793 -0.635091 0
M  V30 1533 H 143.929 -1.16565 -1.68148 0
M  V30 1534 H 143.939 -0.533628 -4.04495 0
M  V30 1535 H 142.614 -1.66227 -3.81237 0
M  V30 1536 H 141.191 0.167126 -3.72525 0
M  V30 1537 N 143.376 1.44774 -0.622745 0
M  V30 1538 C 144.625 2.01334 -0.121397 0
M  V30 1539 C 144.938 1.49505 1.26125 0
M  V30 1540 O 146.144 1.98139 1.85616 0
M  V30 1541 C 144.6 3.59516 -0.166298 0
M  V30 1542 C 144.208 4.20342 -1.54974 0
M  V30 1543 C 145.952 4.23582 0.279021 0
M  V30 1544 C 143.859 5.70721 -1.55021 0
M  V30 1545 H 142.789 0.752851 -0.0416172 0
M  V30 1546 H 145.44 1.66083 -0.780309 0
M  V30 1547 H 143.822 3.92027 0.559557 0
M  V30 1548 H 144.996 3.99381 -2.29851 0
M  V30 1549 H 143.311 3.68529 -1.93843 0
M  V30 1550 H 145.908 5.33868 0.298083 0
M  V30 1551 H 146.251 3.95327 1.30471 0
M  V30 1552 H 146.784 3.95843 -0.394063 0
M  V30 1553 H 143.523 6.03698 -2.55399 0
M  V30 1554 H 143.043 5.93829 -0.844245 0
M  V30 1555 H 144.722 6.34203 -1.28047 0
M  V30 1556 N 144.854 0.36279 1.53368 0
M  V30 1557 C 145.786 -0.519668 2.23231 0
M  V30 1558 C 146.799 -1.04844 1.24546 0
M  V30 1559 O 147.988 -0.955296 1.50786 0
M  V30 1560 C 145.088 -1.72995 2.9142 0
M  V30 1561 C 144.261 -1.33316 4.16588 0
M  V30 1562 C 143.32 -2.40521 4.68013 0
M  V30 1563 O 142.346 -2.03027 5.3176 0
M  V30 1564 N 143.548 -3.72065 4.45587 0
M  V30 1565 H 146.313 0.078751 2.99597 0
M  V30 1566 H 143.874 0.187833 1.60807 0
M  V30 1567 H 145.866 -2.44184 3.22733 0
M  V30 1568 H 144.436 -2.2353 2.18525 0
M  V30 1569 H 143.656 -0.451236 3.91609 0
M  V30 1570 H 144.944 -1.04432 4.97967 0
M  V30 1571 H 144.342 -4.05304 3.94646 0
M  V30 1572 H 142.899 -4.39366 4.81457 0
M  V30 1573 N 146.332 -1.57332 0.0918853 0
M  V30 1574 C 147.295 -2.12708 -0.85369 0
M  V30 1575 C 148.295 -1.05561 -1.213 0
M  V30 1576 O 149.485 -1.31461 -1.14296 0
M  V30 1577 C 146.617 -2.64503 -2.15061 0
M  V30 1578 H 147.81 -2.97573 -0.3729 0
M  V30 1579 H 145.363 -1.55509 -0.157072 0
M  V30 1580 H 146.098 -1.83149 -2.67632 0
M  V30 1581 H 145.883 -3.4284 -1.90272 0
M  V30 1582 H 147.373 -3.07351 -2.82711 0
M  V30 1583 N 147.81 0.181792 -1.56548 0
M  V30 1584 C 148.743 1.25366 -1.90679 0
M  V30 1585 C 149.721 1.43299 -0.768376 0
M  V30 1586 O 150.905 1.58475 -1.02068 0
M  V30 1587 C 148.032 2.61826 -2.1486 0
M  V30 1588 C 147.078 2.60688 -3.37556 0
M  V30 1589 S 147.911 2.10804 -4.92262 0
M  V30 1590 C 149.067 3.49062 -5.19525 0
M  V30 1591 H 149.3 0.962277 -2.81296 0
M  V30 1592 H 146.833 0.385892 -1.495 0
M  V30 1593 H 148.791 3.40371 -2.29473 0
M  V30 1594 H 147.452 2.88169 -1.24969 0
M  V30 1595 H 146.645 3.61058 -3.51643 0
M  V30 1596 H 146.247 1.90232 -3.22006 0
M  V30 1597 H 148.539 4.45003 -5.10861 0
M  V30 1598 H 149.482 3.39859 -6.2121 0
M  V30 1599 H 149.89 3.4459 -4.47122 0
M  V30 1600 N 149.288 1.51039 0.449983 0
M  V30 1601 C 150.235 1.71439 1.54523 0
M  V30 1602 C 151.205 0.555871 1.56522 0
M  V30 1603 O 152.39 0.788871 1.73728 0
M  V30 1604 C 149.53 1.83384 2.92343 0
M  V30 1605 C 148.643 3.10873 2.9997 0
M  V30 1606 C 147.778 3.13488 4.28834 0
M  V30 1607 C 146.817 4.35343 4.30282 0
M  V30 1608 N 145.954 4.35579 5.5065 0
M  V30 1609 H 150.794 2.64934 1.36433 0
M  V30 1610 H 148.331 1.31312 0.662982 0
M  V30 1611 H 150.289 1.88291 3.72293 0
M  V30 1612 H 148.919 0.933086 3.0902 0
M  V30 1613 H 147.971 3.15336 2.12761 0
M  V30 1614 H 149.283 4.00814 2.96901 0
M  V30 1615 H 148.437 3.17241 5.17149 0
M  V30 1616 H 147.176 2.21414 4.34543 0
M  V30 1617 H 146.181 4.3178 3.40362 0
M  V30 1618 H 147.406 5.28668 4.26248 0
M  V30 1619 H 145.352 3.46369 5.57104 0
M  V30 1620 H 145.269 5.19313 5.49409 0
M  V30 1621 H 146.537 4.43507 6.41032 0
M  V30 1622 N 150.766 -0.704594 1.40972 0
M  V30 1623 C 152.182 -1.01406 1.23244 0
M  V30 1624 C 152.382 -2.01169 0.115399 0
M  V30 1625 O 151.438 -2.47021 -0.523147 0
M  V30 1626 C 152.751 -1.54728 2.57836 0
M  V30 1627 C 154.299 -1.66658 2.64942 0
M  V30 1628 C 154.774 -2.23383 3.9983 0
M  V30 1629 N 156.265 -2.30756 4.01629 0
M  V30 1630 C 157 -2.75655 5.02794 0
M  V30 1631 N 156.496 -3.20225 6.14352 0
M  V30 1632 N 158.289 -2.75138 4.90159 0
M  V30 1633 H 150.44 -0.0435285 2.12355 0
M  V30 1634 H 152.703 -0.0818951 0.944456 0
M  V30 1635 H 152.409 -0.888832 3.40283 0
M  V30 1636 H 152.283 -2.53084 2.79693 0
M  V30 1637 H 154.67 -2.31617 1.8286 0
M  V30 1638 H 154.751 -0.668717 2.46904 0
M  V30 1639 H 154.395 -1.59043 4.82357 0
M  V30 1640 H 154.325 -3.23904 4.15203 0
M  V30 1641 H 156.816 -1.99291 3.21079 0
M  V30 1642 H 157.129 -3.53084 6.87424 0
M  V30 1643 H 155.474 -3.18156 6.17901 0
M  V30 1644 H 158.665 -2.39661 4.02095 0
M  V30 1645 H 158.838 -3.09812 5.6914 0
M  V30 1646 N 152.244 -1.26651 -0.937939 0
M  V30 1647 C 153.191 -1.0849 -2.03712 0
M  V30 1648 C 154.161 0.011033 -1.66096 0
M  V30 1649 O 155.346 -0.149353 -1.90215 0
M  V30 1650 C 152.486 -0.72735 -3.37348 0
M  V30 1651 C 151.599 -1.89986 -3.87981 0
M  V30 1652 C 150.734 -1.48513 -5.10017 0
M  V30 1653 C 149.773 -2.62575 -5.5292 0
M  V30 1654 N 148.91 -2.21762 -6.66158 0
M  V30 1655 H 153.75 -2.02551 -2.18579 0
M  V30 1656 H 151.287 -1.00844 -1.07093 0
M  V30 1657 H 153.245 -0.50092 -4.14182 0
M  V30 1658 H 151.875 0.176298 -3.22318 0
M  V30 1659 H 150.927 -2.23913 -3.07518 0
M  V30 1660 H 152.239 -2.75586 -4.15757 0
M  V30 1661 H 151.393 -1.21934 -5.94321 0
M  V30 1662 H 150.132 -0.60009 -4.83994 0
M  V30 1663 H 149.137 -2.8988 -4.67172 0
M  V30 1664 H 150.362 -3.51685 -5.80943 0
M  V30 1665 H 148.308 -1.35696 -6.41812 0
M  V30 1666 H 148.225 -3.00903 -6.93537 0
M  V30 1667 H 149.493 -1.98403 -7.53828 0
M  V30 1668 N 153.722 1.14298 -1.08507 0
M  V30 1669 C 154.968 1.85633 -0.816581 0
M  V30 1670 C 155.301 1.82784 0.656021 0
M  V30 1671 O 154.576 1.25926 1.48233 0
M  V30 1672 C 154.859 3.34223 -1.34041 0
M  V30 1673 C 154.712 3.45639 -2.87843 0
M  V30 1674 C 156.031 4.29356 -0.9665 0
M  V30 1675 H 153.15 0.67402 -0.298104 0
M  V30 1676 H 155.792 1.34214 -1.34487 0
M  V30 1677 H 153.942 3.78144 -0.89104 0
M  V30 1678 H 155.614 3.10498 -3.41158 0
M  V30 1679 H 153.857 2.86817 -3.25451 0
M  V30 1680 H 154.528 4.50089 -3.19569 0
M  V30 1681 H 157.004 3.93457 -1.35391 0
M  V30 1682 H 155.88 5.3178 -1.3602 0
M  V30 1683 H 156.141 4.41919 0.126362 0
M  V30 1684 N 155.201 0.870884 1.31352 0
M  V30 1685 C 156.149 0.316445 2.30437 0
M  V30 1686 C 157.143 -0.568965 1.59559 0
M  V30 1687 O 158.349 -0.454964 1.74155 0
M  V30 1688 H 154.724 0.0836521 0.747333 0
M  V30 1689 H 156.695 1.16606 2.74673 0
M  V30 1690 C 155.444 -0.46635 3.44558 0
M  V30 1691 H 154.767 0.205687 3.99271 0
M  V30 1692 H 156.207 -0.819614 4.16003 0
M  V30 1693 C 154.666 -1.65797 2.9328 0
M  V30 1694 O 155.196 -2.75728 2.92125 0
M  V30 1695 N 153.402 -1.49041 2.4947 0
M  V30 1696 H 152.949 -0.59612 2.50608 0
M  V30 1697 H 152.907 -2.28911 2.15516 0
M  V30 1698 N 156.679 -1.44442 0.630414 0
M  V30 1699 C 157.609 -2.33418 -0.0618083 0
M  V30 1700 C 158.59 -1.48165 -0.835541 0
M  V30 1701 O 159.775 -1.76886 -0.801564 0
M  V30 1702 C 156.905 -3.31222 -1.04449 0
M  V30 1703 C 155.859 -4.26288 -0.382436 0
M  V30 1704 C 155.185 -5.13954 -1.47497 0
M  V30 1705 C 156.485 -5.1744 0.710865 0
M  V30 1706 H 158.179 -2.91548 0.681184 0
M  V30 1707 H 155.725 -1.40191 0.329026 0
M  V30 1708 H 157.678 -3.92351 -1.53748 0
M  V30 1709 H 156.402 -2.71299 -1.81836 0
M  V30 1710 H 155.061 -3.6649 0.0899054 0
M  V30 1711 H 154.709 -4.50385 -2.2397 0
M  V30 1712 H 154.409 -5.7837 -1.03737 0
M  V30 1713 H 155.933 -5.77955 -1.96979 0
M  V30 1714 H 157.347 -5.72509 0.300996 0
M  V30 1715 H 155.744 -5.90455 1.07156 0
M  V30 1716 H 156.814 -4.58496 1.57829 0
M  V30 1717 N 158.157 -0.370918 -1.53173 0
M  V30 1718 C 159.104 0.473035 -2.259 0
M  V30 1719 C 160.074 1.07311 -1.26781 0
M  V30 1720 O 161.259 1.1046 -1.55574 0
M  V30 1721 C 158.399 1.60405 -3.05556 0
M  V30 1722 C 157.512 1.02863 -4.19575 0
M  V30 1723 C 156.647 2.12918 -4.86661 0
M  V30 1724 C 155.686 1.52869 -5.92704 0
M  V30 1725 N 154.823 2.56779 -6.53459 0
M  V30 1726 H 159.663 -0.153649 -2.97604 0
M  V30 1727 H 157.2 -0.0875946 -1.46839 0
M  V30 1728 H 159.158 2.27034 -3.50016 0
M  V30 1729 H 157.788 2.20131 -2.36097 0
M  V30 1730 H 156.84 0.252465 -3.79561 0
M  V30 1731 H 158.152 0.549642 -4.95762 0
M  V30 1732 H 157.306 2.87356 -5.34333 0
M  V30 1733 H 156.045 2.6417 -4.09958 0
M  V30 1734 H 155.05 0.769479 -5.44389 0
M  V30 1735 H 156.275 1.02435 -6.7133 0
M  V30 1736 H 154.221 3.07235 -5.79606 0
M  V30 1737 H 154.138 2.13583 -7.25202 0
M  V30 1738 H 155.406 3.30903 -7.05779 0
M  V30 1739 N 159.635 1.57281 -0.100228 0
M  V30 1740 C 160.863 1.98879 0.570509 0
M  V30 1741 C 161.278 0.979476 1.61405 0
M  V30 1742 O 160.635 -0.0302288 1.82475 0
M  V30 1743 C 160.686 3.4052 1.2136 0
M  V30 1744 O 160.407 4.37588 0.211786 0
M  V30 1745 C 161.908 3.97149 1.96945 0
M  V30 1746 H 159.128 0.653428 0.152555 0
M  V30 1747 H 161.672 2.03697 -0.18103 0
M  V30 1748 H 159.827 3.367 1.91603 0
M  V30 1749 H 160.241 5.20118 0.676607 0
M  V30 1750 H 161.715 4.98393 2.37294 0
M  V30 1751 H 162.192 3.3525 2.83733 0
M  V30 1752 H 162.798 4.04458 1.31506 0
M  V30 1753 N 161.113 -0.173488 1.56642 0
M  V30 1754 C 162.045 -1.23935 1.92802 0
M  V30 1755 C 163.058 -1.40589 0.820889 0
M  V30 1756 O 164.247 -1.40631 1.09933 0
M  V30 1757 C 161.347 -2.60837 2.16373 0
M  V30 1758 C 160.52 -2.6551 3.47596 0
M  V30 1759 C 159.579 -3.8376 3.60021 0
M  V30 1760 O 158.605 -3.69859 4.32658 0
M  V30 1761 N 159.807 -5.00127 2.94709 0
M  V30 1762 H 162.572 -0.932236 2.84832 0
M  V30 1763 H 160.133 -0.363268 1.57772 0
M  V30 1764 H 162.125 -3.38407 2.21952 0
M  V30 1765 H 160.695 -2.83948 1.30738 0
M  V30 1766 H 159.915 -1.74052 3.53694 0
M  V30 1767 H 161.203 -2.65641 4.33949 0
M  V30 1768 H 160.601 -5.14322 2.35563 0
M  V30 1769 H 159.158 -5.75567 3.05886 0
M  V30 1770 N 162.591 -1.51276 -0.441967 0
M  V30 1771 C 163.523 -1.68444 -1.55433 0
M  V30 1772 C 164.536 -0.565187 -1.52674 0
M  V30 1773 O 165.725 -0.839356 -1.57534 0
M  V30 1774 C 162.825 -1.67966 -2.94348 0
M  V30 1775 C 161.998 -2.964 -3.21661 0
M  V30 1776 C 161.057 -2.88171 -4.40277 0
M  V30 1777 O 160.083 -3.62119 -4.39157 0
M  V30 1778 N 161.285 -2.03706 -5.43584 0
M  V30 1779 H 164.05 -2.644 -1.41112 0
M  V30 1780 H 161.611 -1.49104 -0.630838 0
M  V30 1781 H 163.603 -1.60035 -3.71713 0
M  V30 1782 H 162.173 -0.796225 -3.0229 0
M  V30 1783 H 161.393 -3.18234 -2.32638 0
M  V30 1784 H 162.681 -3.81427 -3.36736 0
M  V30 1785 H 162.079 -1.42995 -5.47329 0
M  V30 1786 H 160.636 -2.01658 -6.1982 0
M  V30 1787 N 164.069 0.697108 -1.41344 0
M  V30 1788 C 165.294 1.49096 -1.44171 0
M  V30 1789 C 165.719 1.88038 -0.0481568 0
M  V30 1790 O 165.077 1.54525 0.948243 0
M  V30 1791 C 165.125 2.73088 -2.3549 0
M  V30 1792 O 164.229 3.70514 -1.81088 0
M  V30 1793 H 163.57 0.448801 -0.489361 0
M  V30 1794 H 166.1 0.856992 -1.85787 0
M  V30 1795 H 166.11 3.21413 -2.51312 0
M  V30 1796 H 164.785 2.44081 -3.36745 0
M  V30 1797 H 163.362 3.29441 -1.74708 0
M  V30 1798 N 165.547 1.27147 0.931209 0
M  V30 1799 C 166.479 1.05364 2.03546 0
M  V30 1800 C 167.492 0.0108438 1.62796 0
M  V30 1801 O 168.681 0.25202 1.76712 0
M  V30 1802 C 165.781 0.575566 3.33977 0
M  V30 1803 C 164.954 1.68985 4.03439 0
M  V30 1804 C 164.013 1.20813 5.12143 0
M  V30 1805 O 163.039 1.90712 5.363 0
M  V30 1806 N 164.241 0.0618851 5.80467 0
M  V30 1807 H 167.006 2.00454 2.22796 0
M  V30 1808 H 164.567 1.18666 1.10136 0
M  V30 1809 H 166.559 0.237264 4.04004 0
M  V30 1810 H 165.129 -0.282016 3.11325 0
M  V30 1811 H 164.349 2.19861 3.27192 0
M  V30 1812 H 165.637 2.4378 4.46597 0
M  V30 1813 H 165.035 -0.521621 5.6329 0
M  V30 1814 H 163.592 -0.217264 6.51438 0
M  V30 1815 N 167.025 -1.13721 1.09112 0
M  V30 1816 C 167.975 -2.17082 0.697091 0
M  V30 1817 C 168.959 -1.58321 -0.286923 0
M  V30 1818 O 170.151 -1.7673 -0.0978008 0
M  V30 1819 C 167.28 -3.43105 0.115729 0
M  V30 1820 C 166.366 -4.0888 1.12596 0
M  V30 1821 N 166.757 -4.4987 2.31195 0
M  V30 1822 C 165.055 -4.35471 0.963366 0
M  V30 1823 C 165.756 -5.01094 2.95431 0
M  V30 1824 N 164.732 -4.95751 2.23006 0
M  V30 1825 H 168.534 -2.46524 1.6001 0
M  V30 1826 H 166.048 -1.30481 0.966869 0
M  V30 1827 H 168.045 -4.16491 -0.184555 0
M  V30 1828 H 166.705 -3.15138 -0.78217 0
M  V30 1829 H 167.716 -4.42678 2.68806 0
M  V30 1830 H 164.393 -4.17328 0.119878 0
M  V30 1831 H 165.783 -5.4263 3.96236 0
M  V30 1832 N 168.503 -0.877838 -1.30888 0
M  V30 1833 C 169.914 -0.544193 -1.78593 0
M  V30 1834 C 170.265 0.939301 -1.72254 0
M  V30 1835 O 169.39 1.7337 -1.29505 0
M  V30 1836 C 169.985 -0.98105 -3.24285 0
M  V30 1837 C 168.544 -0.698935 -3.69854 0
M  V30 1838 C 167.691 -1.168 -2.51502 0
M  V30 1839 H 170.642 -1.06278 -1.17859 0
M  V30 1840 H 170.663 -0.307009 -3.79259 0
M  V30 1841 H 170.175 -2.06079 -3.28866 0
M  V30 1842 H 168.276 0.369112 -3.70767 0
M  V30 1843 H 168.389 -1.28148 -4.61644 0
M  V30 1844 H 166.753 -0.587535 -2.47831 0
M  V30 1845 H 167.536 -2.25533 -2.58824 0
M  V30 1846 N 169.982 1.44106 -0.638065 0
M  V30 1847 C 171.21 2.06336 -0.152615 0
M  V30 1848 C 171.625 1.47731 1.17563 0
M  V30 1849 O 170.982 0.602806 1.72257 0
M  V30 1850 C 171.033 3.61479 -0.0391491 0
M  V30 1851 O 170.754 4.17903 -1.31487 0
M  V30 1852 C 172.255 4.40757 0.474176 0
M  V30 1853 H 169.475 0.665862 -0.0828776 0
M  V30 1854 H 172.019 1.84862 -0.87443 0
M  V30 1855 H 170.174 3.82191 0.633142 0
M  V30 1856 H 170.588 5.11416 -1.16421 0
M  V30 1857 H 172.062 5.49707 0.502562 0
M  V30 1858 H 172.539 4.12697 1.50258 0
M  V30 1859 H 173.145 4.24979 -0.165102 0
M  V30 1860 N 171.46 0.379036 1.52974 0
M  V30 1861 C 172.737 -0.263479 1.93817 0
M  V30 1862 C 173.117 -1.65244 1.31368 0
M  V30 1863 O 172.465 -2.23448 0.477856 0
M  V30 1864 C 172.675 -0.300166 3.47707 0
M  V30 1865 C 174.023 -0.534061 4.21228 0
M  V30 1866 O 175.047 -0.38081 3.54159 0
M  V30 1867 O 173.906 -0.833501 5.40106 0
M  V30 1868 H 171 -0.161149 0.811147 0
M  V30 1869 H 173.546 0.432798 1.64088 0
M  V30 1870 H 172.318 0.673138 3.85467 0
M  V30 1871 H 171.941 -1.04179 3.83709 0
M  V30 1872 N 172.938 -1.57226 0.108567 0
M  V30 1873 C 173.901 -2.13602 -0.831082 0
M  V30 1874 C 174.901 -1.06841 -1.20173 0
M  V30 1875 O 176.091 -1.32666 -1.12895 0
M  V30 1876 C 173.223 -2.66769 -2.12243 0
M  V30 1877 H 174.416 -2.97951 -0.341317 0
M  V30 1878 H 171.969 -1.55667 -0.14057 0
M  V30 1879 H 172.704 -1.85977 -2.65675 0
M  V30 1880 H 172.489 -3.44839 -1.86625 0
M  V30 1881 H 173.979 -3.10332 -2.79435 0
M  V30 1882 N 174.416 0.165178 -1.56732 0
M  V30 1883 C 175.346 1.20651 -1.99914 0
M  V30 1884 C 176.327 1.45827 -0.875705 0
M  V30 1885 O 177.512 1.57057 -1.14223 0
M  V30 1886 C 174.642 2.54401 -2.36427 0
M  V30 1887 C 173.596 2.43782 -3.51787 0
M  V30 1888 C 172.922 3.82078 -3.7406 0
M  V30 1889 C 174.222 1.93732 -4.85041 0
M  V30 1890 H 175.916 0.847534 -2.87154 0
M  V30 1891 H 173.462 0.40625 -1.38151 0
M  V30 1892 H 175.415 3.27458 -2.65234 0
M  V30 1893 H 174.139 2.92098 -1.46103 0
M  V30 1894 H 172.798 1.73178 -3.23117 0
M  V30 1895 H 172.446 4.17179 -2.81017 0
M  V30 1896 H 172.146 3.7584 -4.51684 0
M  V30 1897 H 173.67 4.56712 -4.05274 0
M  V30 1898 H 175.084 2.56569 -5.12684 0
M  V30 1899 H 173.481 1.98428 -5.66345 0
M  V30 1900 H 174.551 0.891962 -4.76626 0
M  V30 1901 N 175.894 1.51508 0.433938 0
M  V30 1902 C 177.119 1.68443 1.21003 0
M  V30 1903 C 177.544 0.382636 1.84167 0
M  V30 1904 O 176.902 -0.65755 1.68956 0
M  V30 1905 C 176.95 2.80405 2.26727 0
M  V30 1906 O 176.054 2.44245 3.32292 0
M  V30 1907 H 175.395 0.561536 0.354363 0
M  V30 1908 H 177.925 1.9809 0.512024 0
M  V30 1909 H 177.935 3.0459 2.71457 0
M  V30 1910 H 176.61 3.74867 1.80132 0
M  V30 1911 H 175.187 2.30644 2.93015 0
M  V30 1912 N 177.372 -0.689602 1.41712 0
M  V30 1913 C 178.282 -1.83314 1.46401 0
M  V30 1914 C 179.298 -1.7036 0.35405 0
M  V30 1915 O 180.474 -1.92171 0.602692 0
M  V30 1916 C 177.539 -3.19344 1.34982 0
M  V30 1917 C 176.6 -3.44363 2.56344 0
M  V30 1918 C 175.833 -4.73904 2.45461 0
M  V30 1919 O 176.056 -5.508 1.48241 0
M  V30 1920 O 174.99 -4.99839 3.35328 0
M  V30 1921 H 178.816 -1.82314 2.42889 0
M  V30 1922 H 176.401 -0.843438 1.23315 0
M  V30 1923 H 178.283 -4.00547 1.3092 0
M  V30 1924 H 176.958 -3.21014 0.41612 0
M  V30 1925 H 175.865 -2.63067 2.65982 0
M  V30 1926 H 177.198 -3.47512 3.48563 0
M  V30 1927 N 178.85 -1.27639 -0.924453 0
M  V30 1928 C 180.127 -1.04887 -1.651 0
M  V30 1929 C 180.507 0.415327 -2.06974 0
M  V30 1930 O 179.855 1.39923 -1.80648 0
M  V30 1931 C 180.065 -2.01348 -2.85061 0
M  V30 1932 C 181.413 -2.30899 -3.56329 0
M  V30 1933 O 182.437 -1.99348 -2.95193 0
M  V30 1934 O 181.296 -2.84699 -4.66485 0
M  V30 1935 H 178.39 -0.400083 -0.723784 0
M  V30 1936 H 180.936 -1.38916 -0.974703 0
M  V30 1937 H 179.708 -3.0008 -2.51133 0
M  V30 1938 H 179.331 -1.679 -3.6041 0
M  V30 1939 N 180.328 1.1314 -1.09713 0
M  V30 1940 C 181.258 2.20748 -0.761102 0
M  V30 1941 C 182.239 1.68061 0.262566 0
M  V30 1942 O 183.424 1.93765 0.129977 0
M  V30 1943 C 180.554 3.46812 -0.184054 0
M  V30 1944 C 179.508 4.12606 -1.13757 0
M  V30 1945 C 178.834 5.33031 -0.422083 0
M  V30 1946 C 180.134 4.59603 -2.48118 0
M  V30 1947 H 181.828 2.49113 -1.66082 0
M  V30 1948 H 179.374 1.19734 -0.799987 0
M  V30 1949 H 181.327 4.21353 0.0631215 0
M  V30 1950 H 180.051 3.17851 0.750868 0
M  V30 1951 H 178.71 3.40036 -1.37007 0
M  V30 1952 H 178.358 5.00335 0.517072 0
M  V30 1953 H 178.058 5.77999 -1.05788 0
M  V30 1954 H 179.582 6.10325 -0.183277 0
M  V30 1955 H 180.996 5.25552 -2.29059 0
M  V30 1956 H 179.393 5.15321 -3.07514 0
M  V30 1957 H 180.463 3.73971 -3.08665 0
M  V30 1958 N 181.806 0.884767 1.30421 0
M  V30 1959 C 182.736 0.367574 2.30589 0
M  V30 1960 C 183.717 -0.549464 1.60981 0
M  V30 1961 O 184.902 -0.46336 1.88591 0
M  V30 1962 C 182.032 -0.418944 3.44764 0
M  V30 1963 C 180.986 0.406316 4.26067 0
M  V30 1964 C 180.312 -0.506793 5.32293 0
M  V30 1965 C 181.612 1.64832 4.95608 0
M  V30 1966 H 183.306 1.20462 2.74097 0
M  V30 1967 H 180.852 0.580695 1.31772 0
M  V30 1968 H 182.805 -0.791395 4.13902 0
M  V30 1969 H 181.529 -1.28964 3.0006 0
M  V30 1970 H 180.188 0.760903 3.58617 0
M  V30 1971 H 179.836 -1.37519 4.83836 0
M  V30 1972 H 179.536 0.0415828 5.87585 0
M  V30 1973 H 181.06 -0.875764 6.04287 0
M  V30 1974 H 182.474 1.34646 5.57264 0
M  V30 1975 H 180.871 2.13688 5.60765 0
M  V30 1976 H 181.941 2.39284 4.21748 0
M  V30 1977 N 183.284 -1.43765 0.645699 0
M  V30 1978 C 184.509 -2.06767 0.161883 0
M  V30 1979 C 184.934 -1.48034 -1.16049 0
M  V30 1980 O 184.292 -0.587369 -1.71522 0
M  V30 1981 C 184.34 -3.60519 0.0762003 0
M  V30 1982 O 183.444 -4.00982 -0.963721 0
M  V30 1983 H 182.785 -0.657675 0.091429 0
M  V30 1984 H 185.315 -1.84397 0.886499 0
M  V30 1985 H 185.325 -4.07853 -0.109604 0
M  V30 1986 H 184 -4.02646 1.04157 0
M  V30 1987 H 182.577 -3.65253 -0.751312 0
M  V30 1988 N 184.763 -0.387143 -1.52771 0
M  V30 1989 C 186.012 0.19697 -2.00736 0
M  V30 1990 C 186.325 1.48082 -1.27793 0
M  V30 1991 O 187.531 2.14485 -1.66458 0
M  V30 1992 C 185.987 0.401568 -3.57653 0
M  V30 1993 C 185.595 -0.868907 -4.39493 0
M  V30 1994 C 187.339 0.942164 -4.13912 0
M  V30 1995 C 185.246 -0.632705 -5.88006 0
M  V30 1996 H 184.176 0.0773827 -0.750019 0
M  V30 1997 H 186.827 -0.50921 -1.76293 0
M  V30 1998 H 185.209 1.16954 -3.78335 0
M  V30 1999 H 186.383 -1.64133 -4.30577 0
M  V30 2000 H 184.698 -1.33429 -3.94443 0
M  V30 2001 H 187.295 1.13455 -5.22525 0
M  V30 2002 H 187.638 1.9106 -3.69867 0
M  V30 2003 H 188.171 0.233814 -3.97112 0
M  V30 2004 H 184.91 -1.57208 -6.36369 0
M  V30 2005 H 184.43 0.100825 -5.99715 0
M  V30 2006 H 186.109 -0.26642 -6.46451 0
M  V30 2007 N 186.241 1.57166 -0.116904 0
M  V30 2008 C 187.49 1.94298 0.541407 0
M  V30 2009 C 187.803 1.00236 1.67964 0
M  V30 2010 O 189.009 1.26826 2.40057 0
M  V30 2011 C 187.465 3.45306 1.01449 0
M  V30 2012 C 187.073 4.47899 -0.0951738 0
M  V30 2013 C 188.817 3.91361 1.6443 0
M  V30 2014 C 186.724 5.90083 0.394491 0
M  V30 2015 H 185.654 0.725308 0.206019 0
M  V30 2016 H 188.305 1.82446 -0.196419 0
M  V30 2017 H 186.687 3.52385 1.80667 0
M  V30 2018 H 187.861 4.52486 -0.871374 0
M  V30 2019 H 186.176 4.11583 -0.631505 0
M  V30 2020 H 188.773 4.95004 2.02176 0
M  V30 2021 H 189.116 3.3122 2.52189 0
M  V30 2022 H 189.649 3.87073 0.917559 0
M  V30 2023 H 186.388 6.53974 -0.447004 0
M  V30 2024 H 185.908 5.88921 1.13722 0
M  V30 2025 H 187.587 6.41307 0.856399 0
M  V30 2026 N 187.719 -0.156864 1.56817 0
M  V30 2027 C 188.682 -1.17781 1.96622 0
M  V30 2028 C 189.682 -1.36401 0.851555 0
M  V30 2029 O 190.872 -1.33561 1.11836 0
M  V30 2030 C 188.004 -2.54008 2.27361 0
M  V30 2031 H 189.197 -0.836564 2.87996 0
M  V30 2032 H 186.75 -0.39985 1.51099 0
M  V30 2033 H 187.485 -2.9312 1.38748 0
M  V30 2034 H 187.27 -2.41856 3.08623 0
M  V30 2035 H 188.76 -3.27558 2.59029 0
M  V30 2036 N 189.197 -1.51736 -0.425897 0
M  V30 2037 C 190.145 -1.74464 -1.53834 0
M  V30 2038 C 191.139 -0.611241 -1.57988 0
M  V30 2039 O 192.345 -0.792899 -1.61596 0
M  V30 2040 H 188.72 -0.551437 -0.511293 0
M  V30 2041 H 190.691 -2.67694 -1.31843 0
M  V30 2042 C 189.44 -1.8972 -2.91379 0
M  V30 2043 H 188.763 -2.76344 -2.88919 0
M  V30 2044 H 190.203 -2.09629 -3.68553 0
M  V30 2045 C 188.662 -0.65992 -3.30374 0
M  V30 2046 O 189.192 0.180083 -4.01296 0
M  V30 2047 N 187.398 -0.500677 -2.86254 0
M  V30 2048 H 186.945 -1.18532 -2.28709 0
M  V30 2049 H 186.903 0.325903 -3.12706 0
M  V30 2050 N 190.675 0.682077 -1.42076 0
M  V30 2051 C 191.608 1.80666 -1.3941 0
M  V30 2052 C 192.586 1.60518 -0.25939 0
M  V30 2053 O 193.77 1.83088 -0.448456 0
M  V30 2054 C 190.897 3.17556 -1.17796 0
M  V30 2055 C 189.943 3.56468 -2.34164 0
M  V30 2056 S 190.776 3.59729 -3.96681 0
M  V30 2057 C 191.932 4.99323 -3.77395 0
M  V30 2058 H 192.165 1.82652 -2.34575 0
M  V30 2059 H 189.698 0.852062 -1.2876 0
M  V30 2060 H 191.656 3.96575 -1.06012 0
M  V30 2061 H 190.317 3.13164 -0.242279 0
M  V30 2062 H 189.51 4.5595 -2.1477 0
M  V30 2063 H 189.112 2.84792 -2.42425 0
M  V30 2064 H 191.404 5.87202 -3.37935 0
M  V30 2065 H 192.347 5.23763 -4.76527 0
M  V30 2066 H 192.755 4.71498 -3.10403 0
M  V30 2067 N 192.153 1.28127 0.917671 0
M  V30 2068 C 193.378 1.18007 1.70555 0
M  V30 2069 C 193.803 -0.258257 1.86319 0
M  V30 2070 O 193.161 -1.1869 1.37049 0
M  V30 2071 C 193.209 1.87948 3.07746 0
M  V30 2072 O 192.313 1.18427 3.9503 0
M  V30 2073 H 191.654 0.409867 0.522403 0
M  V30 2074 H 194.184 1.69379 1.1477 0
M  V30 2075 H 194.194 1.95701 3.58001 0
M  V30 2076 H 192.869 2.92573 2.95591 0
M  V30 2077 H 191.446 1.18811 3.53466 0
M  V30 2078 N 193.631 -1.12557 1.10312 0
M  V30 2079 C 194.879 -1.83675 0.843091 0
M  V30 2080 C 195.2 -1.84435 -0.633131 0
M  V30 2081 O 194.47 -1.30657 -1.45964 0
M  V30 2082 H 193.05 -0.680138 0.308904 0
M  V30 2083 H 195.712 -1.36301 1.39313 0
M  V30 2084 H 194.808 -2.87908 1.2048 0
M  V30 2085 N 195.109 -0.891671 -1.2995 0
M  V30 2086 C 196.349 -0.520296 -1.97667 0
M  V30 2087 C 196.713 0.914797 -1.68806 0
M  V30 2088 O 197.914 1.39263 -2.29911 0
M  V30 2089 C 196.185 -0.795222 -3.48441 0
M  V30 2090 S 197.744 -0.526953 -4.35624 0
M  V30 2091 H 194.562 -0.19333 -0.684211 0
M  V30 2092 H 197.164 -1.15238 -1.57926 0
M  V30 2093 H 195.868 -1.83805 -3.66938 0
M  V30 2094 H 195.399 -0.15095 -3.9311 0
M  V30 2095 H 197.414 0.631533 -4.92165 0
M  V30 2096 N 196.587 1.43421 -0.653314 0
M  V30 2097 C 197.517 2.33487 0.0246656 0
M  V30 2098 C 198.498 1.49475 0.811863 0
M  V30 2099 O 199.683 1.78139 0.773322 0
M  V30 2100 C 196.813 3.32841 0.99166 0
M  V30 2101 C 195.767 4.26842 0.314568 0
M  V30 2102 C 195.093 5.16236 1.39302 0
M  V30 2103 C 196.393 5.16243 -0.793095 0
M  V30 2104 H 198.087 2.90427 -0.727481 0
M  V30 2105 H 195.633 1.39649 -0.351287 0
M  V30 2106 H 197.586 3.94747 1.47487 0
M  V30 2107 H 196.31 2.74158 1.77497 0
M  V30 2108 H 194.969 3.663 -0.148199 0
M  V30 2109 H 194.617 4.53891 2.16776 0
M  V30 2110 H 194.317 5.79948 0.945223 0
M  V30 2111 H 195.841 5.81015 1.87759 0
M  V30 2112 H 197.255 5.71958 -0.392039 0
M  V30 2113 H 195.652 5.88676 -1.16536 0
M  V30 2114 H 196.722 4.55927 -1.65103 0
M  V30 2115 N 198.065 0.39524 1.52563 0
M  V30 2116 C 199.476 -0.0774719 1.86539 0
M  V30 2117 C 199.827 -1.45641 1.31466 0
M  V30 2118 O 198.952 -2.06459 0.648367 0
M  V30 2119 C 199.547 -0.147356 3.38479 0
M  V30 2120 C 198.106 -0.564373 3.72145 0
M  V30 2121 C 197.253 0.269919 2.75983 0
M  V30 2122 H 200.204 0.612876 1.46388 0
M  V30 2123 H 200.225 -0.965343 3.68051 0
M  V30 2124 H 199.737 0.856387 3.78534 0
M  V30 2125 H 197.838 -1.57527 3.37663 0
M  V30 2126 H 197.951 -0.318402 4.78041 0
M  V30 2127 H 196.315 -0.265696 2.5331 0
M  V30 2128 H 197.098 1.27175 3.18875 0
M  V30 2129 N 199.544 -1.57102 0.125237 0
M  V30 2130 C 200.774 -1.99472 -0.538015 0
M  V30 2131 C 201.182 -1.00395 -1.60366 0
M  V30 2132 O 200.525 0.0103875 -1.83697 0
M  V30 2133 C 200.587 -3.38262 -1.21734 0
M  V30 2134 C 200.251 -4.56021 -0.298897 0
M  V30 2135 C 201.248 -5.17817 0.464943 0
M  V30 2136 C 198.933 -5.01869 -0.208149 0
M  V30 2137 C 200.927 -6.23852 1.3072 0
M  V30 2138 C 198.614 -6.07763 0.637736 0
M  V30 2139 C 199.612 -6.68622 1.39403 0
M  V30 2140 O 199.3 -7.7247 2.22586 0
M  V30 2141 H 199.032 -0.659934 -0.146501 0
M  V30 2142 H 201.586 -2.04321 0.210267 0
M  V30 2143 H 199.816 -3.30185 -2.01282 0
M  V30 2144 H 201.505 -3.6488 -1.77813 0
M  V30 2145 H 202.271 -4.83308 0.404741 0
M  V30 2146 H 198.15 -4.54241 -0.786522 0
M  V30 2147 H 201.694 -6.71284 1.898 0
M  V30 2148 H 197.591 -6.41701 0.699309 0
M  V30 2149 H 198.359 -7.89595 2.15596 0
M  V30 2150 N 201.022 0.148545 -1.56898 0
M  V30 2151 C 201.955 1.21293 -1.93296 0
M  V30 2152 C 202.933 1.41637 -0.798599 0
M  V30 2153 O 204.117 1.56275 -1.05406 0
M  V30 2154 C 201.244 2.5721 -2.20365 0
M  V30 2155 C 200.29 2.53469 -3.4301 0
M  V30 2156 S 201.123 2.00315 -4.96623 0
M  V30 2157 C 202.279 3.37964 -5.26812 0
M  V30 2158 H 202.512 0.902393 -2.83274 0
M  V30 2159 H 200.045 0.354094 -1.50285 0
M  V30 2160 H 202.003 3.35427 -2.36641 0
M  V30 2161 H 200.664 2.85454 -1.31054 0
M  V30 2162 H 199.857 3.53518 -3.59223 0
M  V30 2163 H 199.459 1.83359 -3.25968 0
M  V30 2164 H 201.751 4.34066 -5.20185 0
M  V30 2165 H 202.694 3.26606 -6.28279 0
M  V30 2166 H 203.102 3.35028 -4.54331 0
M  V30 2167 N 202.5 1.5196 0.417844 0
M  V30 2168 C 203.43 1.77634 1.51554 0
M  V30 2169 C 204.411 0.626918 1.58126 0
M  V30 2170 O 205.596 0.871632 1.7354 0
M  V30 2171 C 202.726 1.91911 2.8946 0
M  V30 2172 C 201.68 3.07463 2.97743 0
M  V30 2173 C 201.006 3.06951 4.37819 0
M  V30 2174 C 202.306 4.47082 2.70027 0
M  V30 2175 H 204 2.6955 1.3032 0
M  V30 2176 H 201.546 1.29706 0.625492 0
M  V30 2177 H 203.499 2.08455 3.6623 0
M  V30 2178 H 202.223 0.966598 3.11969 0
M  V30 2179 H 200.882 2.90656 2.23416 0
M  V30 2180 H 200.53 2.09438 4.57323 0
M  V30 2181 H 200.23 3.84556 4.44286 0
M  V30 2182 H 201.754 3.25613 5.16535 0
M  V30 2183 H 203.168 4.6414 3.36522 0
M  V30 2184 H 201.565 5.2654 2.87881 0
M  V30 2185 H 202.635 4.55777 1.65514 0
M  V30 2186 N 203.978 -0.674533 1.42435 0
M  V30 2187 C 205.389 -1.25514 1.38214 0
M  V30 2188 C 205.74 -1.96055 0.0755464 0
M  V30 2189 O 204.865 -2.00028 -0.8257 0
M  V30 2190 C 205.46 -2.28269 2.50357 0
M  V30 2191 C 204.019 -2.81856 2.49467 0
M  V30 2192 C 203.166 -1.56182 2.29134 0
M  V30 2193 H 206.117 -0.467902 1.51646 0
M  V30 2194 H 206.138 -3.10009 2.20624 0
M  V30 2195 H 205.65 -1.769 3.45439 0
M  V30 2196 H 203.751 -3.37346 1.58204 0
M  V30 2197 H 203.864 -3.30854 3.46515 0
M  V30 2198 H 202.228 -1.82761 1.774 0
M  V30 2199 H 203.011 -1.06778 3.26272 0
M  V30 2200 N 205.456 -1.28612 -0.910864 0
M  V30 2201 C 206.867 -1.14406 -1.47541 0
M  V30 2202 C 207.218 0.264901 -1.94403 0
M  V30 2203 O 206.343 1.15942 -1.82719 0
M  V30 2204 C 206.938 -2.07073 -2.68153 0
M  V30 2205 C 205.497 -1.96923 -3.20778 0
M  V30 2206 C 204.644 -1.98646 -1.93481 0
M  V30 2207 H 207.595 -1.41259 -0.723291 0
M  V30 2208 H 207.616 -1.63642 -3.43514 0
M  V30 2209 H 207.128 -3.09611 -2.34015 0
M  V30 2210 H 205.229 -0.97433 -3.59635 0
M  V30 2211 H 205.342 -2.84026 -3.85832 0
M  V30 2212 H 203.706 -1.43093 -2.10705 0
M  V30 2213 H 204.489 -3.02868 -1.61634 0
M  V30 2214 N 206.934 1.1197 -1.10907 0
M  V30 2215 C 207.881 2.17846 -0.762345 0
M  V30 2216 C 208.851 1.63995 0.263599 0
M  V30 2217 O 210.036 1.90273 0.141773 0
M  V30 2218 C 207.176 3.44487 -0.205651 0
M  V30 2219 C 206.289 4.12369 -1.28748 0
M  V30 2220 C 205.424 5.26674 -0.691919 0
M  V30 2221 C 204.463 5.86431 -1.75399 0
M  V30 2222 N 203.6 6.92142 -1.17833 0
M  V30 2223 H 208.44 2.46851 -1.6694 0
M  V30 2224 H 205.977 1.21188 -0.833776 0
M  V30 2225 H 207.935 4.16981 0.135037 0
M  V30 2226 H 206.565 3.15884 0.664613 0
M  V30 2227 H 205.617 3.38003 -1.74522 0
M  V30 2228 H 206.929 4.52844 -2.09125 0
M  V30 2229 H 206.083 6.05953 -0.300963 0
M  V30 2230 H 204.822 4.8749 0.143232 0
M  V30 2231 H 203.827 5.05835 -2.15432 0
M  V30 2232 H 205.052 6.27685 -2.59208 0
M  V30 2233 H 202.998 6.54985 -0.364725 0
M  V30 2234 H 202.915 7.31242 -1.91887 0
M  V30 2235 H 204.183 7.75237 -0.81408 0
M  V30 2236 N 208.412 0.89855 1.29475 0
M  V30 2237 C 209.652 0.530771 1.97388 0
M  V30 2238 C 210.016 -0.905832 1.69289 0
M  V30 2239 O 211.217 -1.38042 2.30646 0
M  V30 2240 C 209.488 0.81369 3.48014 0
M  V30 2241 S 211.047 0.550048 4.35339 0
M  V30 2242 H 207.865 0.196956 0.683176 0
M  V30 2243 H 210.467 1.16074 1.57312 0
M  V30 2244 H 209.171 1.85749 3.65958 0
M  V30 2245 H 208.702 0.171795 3.93025 0
M  V30 2246 H 210.717 -0.605423 4.92493 0
M  V30 2247 N 209.89 -1.43072 0.660911 0
M  V30 2248 C 211.301 -1.84932 0.256348 0
M  V30 2249 C 211.652 -1.55325 -1.19868 0
M  V30 2250 O 210.777 -1.00607 -1.91591 0
M  V30 2251 C 211.372 -3.35684 0.458475 0
M  V30 2252 C 209.931 -3.76245 0.108161 0
M  V30 2253 C 209.078 -2.66749 0.757641 0
M  V30 2254 H 212.029 -1.33116 0.864051 0
M  V30 2255 H 212.05 -3.79365 -0.293683 0
M  V30 2256 H 211.562 -3.572 1.51755 0
M  V30 2257 H 209.663 -3.60338 -0.948014 0
M  V30 2258 H 209.776 -4.76058 0.538992 0
M  V30 2259 H 208.14 -2.53989 0.190185 0
M  V30 2260 H 208.923 -2.91092 1.81989 0
M  V30 2261 N 211.368 -0.403325 -1.52352 0
M  V30 2262 C 212.316 0.439752 -2.28405 0
M  V30 2263 C 213.31 1.05089 -1.32863 0
M  V30 2264 O 214.516 0.989759 -1.50345 0
M  V30 2265 H 210.891 0.160587 -0.734653 0
M  V30 2266 H 212.862 -0.222983 -2.97566 0
M  V30 2267 C 211.611 1.54736 -3.11371 0
M  V30 2268 H 210.934 1.08643 -3.84755 0
M  V30 2269 H 212.374 2.1112 -3.67701 0
M  V30 2270 C 210.833 2.51141 -2.24566 0
M  V30 2271 O 211.363 3.54887 -1.88196 0
M  V30 2272 N 209.569 2.21213 -1.8845 0
M  V30 2273 H 209.116 1.36878 -2.18225 0
M  V30 2274 H 209.074 2.85963 -1.30662 0
M  V30 2275 N 212.846 1.57033 -0.133567 0
M  V30 2276 C 214.074 2.00044 0.528195 0
M  V30 2277 C 214.489 1.01349 1.59291 0
M  V30 2278 O 213.846 0.00848369 1.82498 0
M  V30 2279 C 213.897 3.43018 1.1411 0
M  V30 2280 O 213.618 4.37939 0.11892 0
M  V30 2281 C 215.119 4.01237 1.88477 0
M  V30 2282 H 212.339 0.656517 0.138661 0
M  V30 2283 H 214.883 2.03267 -0.224196 0
M  V30 2284 H 213.038 3.40688 1.84418 0
M  V30 2285 H 213.452 5.21436 0.56613 0
M  V30 2286 H 214.926 5.03314 2.26669 0
M  V30 2287 H 215.403 3.41193 2.76558 0
M  V30 2288 H 216.009 4.07156 1.22898 0
M  V30 2289 N 214.325 -0.140222 1.56975 0
M  V30 2290 C 215.565 -0.857823 1.85528 0
M  V30 2291 C 215.929 -1.78039 0.718768 0
M  V30 2292 O 217.13 -2.53795 0.885521 0
M  V30 2293 C 215.401 -1.60615 3.19277 0
M  V30 2294 S 216.96 -2.36824 3.69405 0
M  V30 2295 H 213.778 -0.286727 0.650622 0
M  V30 2296 H 216.38 -0.117408 1.95147 0
M  V30 2297 H 215.084 -0.919994 3.99955 0
M  V30 2298 H 214.615 -2.38735 3.12681 0
M  V30 2299 H 216.63 -3.62148 3.3921 0
M  V30 2300 N 215.803 -1.52179 -0.40978 0
M  V30 2301 C 216.733 -1.78435 -1.5061 0
M  V30 2302 C 217.714 -0.635295 -1.57791 0
M  V30 2303 O 218.899 -0.880823 -1.73076 0
M  V30 2304 C 216.029 -1.93444 -2.88439 0
M  V30 2305 C 214.983 -3.09038 -2.96108 0
M  V30 2306 C 214.309 -3.09268 -4.36185 0
M  V30 2307 C 215.609 -4.48508 -2.67652 0
M  V30 2308 H 217.303 -2.70237 -1.28889 0
M  V30 2309 H 214.849 -1.30036 -0.618605 0
M  V30 2310 H 216.802 -2.10394 -3.65119 0
M  V30 2311 H 215.526 -0.983129 -3.11452 0
M  V30 2312 H 214.185 -2.91837 -2.21872 0
M  V30 2313 H 213.833 -2.11861 -4.56206 0
M  V30 2314 H 213.533 -3.86907 -4.42241 0
M  V30 2315 H 215.057 -3.28348 -5.14801 0
M  V30 2316 H 216.471 -4.65918 -3.34056 0
M  V30 2317 H 214.868 -5.28059 -2.85085 0
M  V30 2318 H 215.938 -4.56649 -1.63095 0
M  V30 2319 N 217.281 0.66697 -1.42791 0
M  V30 2320 C 218.244 1.76211 -1.46568 0
M  V30 2321 C 219.244 1.56896 -0.352196 0
M  V30 2322 O 220.434 1.63044 -0.613364 0
M  V30 2323 C 217.566 3.14935 -1.30494 0
M  V30 2324 H 218.759 1.74247 -2.44086 0
M  V30 2325 H 216.312 0.877342 -1.29354 0
M  V30 2326 H 217.047 3.2252 -0.339301 0
M  V30 2327 H 216.832 3.30359 -2.11199 0
M  V30 2328 H 218.322 3.94821 -1.36038 0
M  V30 2329 N 218.759 1.29093 0.90403 0
M  V30 2330 C 219.707 1.13727 2.02901 0
M  V30 2331 C 220.701 0.0539853 1.69314 0
M  V30 2332 O 221.907 0.213469 1.7873 0
M  V30 2333 H 218.282 0.35117 0.664969 0
M  V30 2334 H 220.253 2.08982 2.13001 0
M  V30 2335 C 219.002 0.826066 3.37745 0
M  V30 2336 H 218.325 1.65164 3.64089 0
M  V30 2337 H 219.765 0.758559 4.17159 0
M  V30 2338 C 218.224 -0.470541 3.33598 0
M  V30 2339 O 218.754 -1.49792 3.72727 0
M  V30 2340 N 216.96 -0.474812 2.86695 0
M  V30 2341 H 216.507 0.361692 2.55048 0
M  V30 2342 H 216.465 -1.34236 2.84303 0
M  V30 2343 N 220.237 -1.11381 1.11499 0
M  V30 2344 C 221.184 -2.17439 0.773887 0
M  V30 2345 C 222.154 -1.64132 -0.254899 0
M  V30 2346 O 223.339 -1.90345 -0.13168 0
M  V30 2347 C 220.479 -3.44373 0.223917 0
M  V30 2348 C 219.592 -4.1168 1.30934 0
M  V30 2349 C 218.727 -5.263 0.71984 0
M  V30 2350 C 217.766 -5.85493 1.78507 0
M  V30 2351 N 216.903 -6.91507 1.21502 0
M  V30 2352 H 221.743 -2.45962 1.68246 0
M  V30 2353 H 219.28 -1.20744 0.840191 0
M  V30 2354 H 221.238 -4.17047 -0.112921 0
M  V30 2355 H 219.868 -3.16232 -0.647851 0
M  V30 2356 H 218.92 -3.37073 1.76312 0
M  V30 2357 H 220.232 -4.51729 2.11524 0
M  V30 2358 H 219.386 -6.05785 0.333094 0
M  V30 2359 H 218.125 -4.87559 -0.117377 0
M  V30 2360 H 217.13 -5.04686 2.18111 0
M  V30 2361 H 218.355 -6.26301 2.62533 0
M  V30 2362 H 216.301 -6.54783 0.399455 0
M  V30 2363 H 216.218 -7.30214 1.95763 0
M  V30 2364 H 217.486 -7.74795 0.855181 0
M  V30 2365 N 221.715 -0.905404 -1.28997 0
M  V30 2366 C 222.945 -0.549049 -1.99171 0
M  V30 2367 C 223.353 0.87203 -1.67906 0
M  V30 2368 O 222.696 1.58796 -0.923561 0
M  V30 2369 C 222.758 -0.668306 -3.53234 0
M  V30 2370 C 222.422 -2.0574 -4.08069 0
M  V30 2371 C 223.419 -3.0292 -4.22534 0
M  V30 2372 C 221.104 -2.36833 -4.42962 0
M  V30 2373 C 223.098 -4.29314 -4.71135 0
M  V30 2374 C 220.785 -3.63467 -4.91258 0
M  V30 2375 C 221.783 -4.59522 -5.053 0
M  V30 2376 O 221.471 -5.83907 -5.52546 0
M  V30 2377 H 221.203 -0.208784 -0.64295 0
M  V30 2378 H 223.757 -1.21836 -1.65363 0
M  V30 2379 H 221.987 0.0580547 -3.86656 0
M  V30 2380 H 223.676 -0.320273 -4.04634 0
M  V30 2381 H 224.442 -2.80216 -3.95859 0
M  V30 2382 H 220.321 -1.62824 -4.31288 0
M  V30 2383 H 223.865 -5.04293 -4.8201 0
M  V30 2384 H 219.762 -3.86 -5.17372 0
M  V30 2385 H 220.53 -5.86578 -5.70849 0
M  V30 2386 N 223.193 1.4272 -0.668489 0
M  V30 2387 C 224.609 1.55992 -0.33745 0
M  V30 2388 C 224.809 1.64933 1.15756 0
M  V30 2389 O 223.865 1.61278 1.94282 0
M  V30 2390 C 225.178 2.81314 -1.06222 0
M  V30 2391 C 226.726 2.95078 -1.04394 0
M  V30 2392 C 227.201 4.23252 -1.74991 0
M  V30 2393 N 228.692 4.3015 -1.71829 0
M  V30 2394 C 229.427 5.28127 -2.23315 0
M  V30 2395 N 228.923 6.32293 -2.83156 0
M  V30 2396 N 230.716 5.19882 -2.13726 0
M  V30 2397 H 222.867 1.3516 -1.63846 0
M  V30 2398 H 225.13 0.650174 -0.689912 0
M  V30 2399 H 224.836 2.80823 -2.11734 0
M  V30 2400 H 224.71 3.72012 -0.62344 0
M  V30 2401 H 227.097 2.951 0.0028244 0
M  V30 2402 H 227.178 2.05627 -1.52155 0
M  V30 2403 H 226.822 4.2399 -2.79633 0
M  V30 2404 H 226.752 5.11626 -1.24685 0
M  V30 2405 H 229.243 3.55499 -1.28175 0
M  V30 2406 H 229.556 7.03398 -3.20079 0
M  V30 2407 H 227.901 6.32873 -2.87223 0
M  V30 2408 H 231.092 4.37423 -1.66669 0
M  V30 2409 H 231.265 5.96077 -2.54158 0
M  V30 2410 N 224.671 0.411399 1.52136 0
M  V30 2411 C 226.082 -0.0576826 1.86611 0
M  V30 2412 C 226.433 -1.44238 1.33003 0
M  V30 2413 O 225.558 -2.05759 0.670228 0
M  V30 2414 C 226.153 -0.111448 3.38617 0
M  V30 2415 C 224.712 -0.52487 3.72723 0
M  V30 2416 C 223.859 0.299176 2.75681 0
M  V30 2417 H 226.81 0.628368 1.4573 0
M  V30 2418 H 226.831 -0.926252 3.69054 0
M  V30 2419 H 226.343 0.896488 3.77604 0
M  V30 2420 H 224.444 -1.53936 3.39315 0
M  V30 2421 H 224.557 -0.267681 4.78352 0
M  V30 2422 H 222.921 -0.238814 2.53578 0
M  V30 2423 H 223.704 1.3055 3.17508 0
M  V30 2424 N 226.149 -1.5696 0.141893 0
M  V30 2425 C 227.398 -1.95135 -0.510427 0
M  V30 2426 C 227.711 -1.02896 -1.66348 0
M  V30 2427 O 228.917 -1.30629 -2.38009 0
M  V30 2428 C 227.373 -3.46876 -0.959427 0
M  V30 2429 C 226.981 -4.47691 0.166419 0
M  V30 2430 C 228.725 -3.93927 -1.58183 0
M  V30 2431 C 226.632 -5.90636 -0.300565 0
M  V30 2432 H 225.562 -0.728494 -0.194454 0
M  V30 2433 H 228.213 -1.8211 0.22542 0
M  V30 2434 H 226.595 -3.55215 -1.75038 0
M  V30 2435 H 227.769 -4.51043 0.94325 0
M  V30 2436 H 226.084 -4.10527 0.696905 0
M  V30 2437 H 228.681 -4.98158 -1.94275 0
M  V30 2438 H 229.024 -3.3519 -2.46888 0
M  V30 2439 H 229.557 -3.88484 -0.855863 0
M  V30 2440 H 226.296 -6.5318 0.550989 0
M  V30 2441 H 225.816 -5.90655 -1.04338 0
M  V30 2442 H 227.495 -6.42588 -0.754265 0
M  V30 2443 N 227.627 0.131896 -1.57047 0
M  V30 2444 C 228.855 0.856461 -1.88341 0
M  V30 2445 C 229.27 1.74042 -0.731757 0
M  V30 2446 O 228.627 1.80051 0.297945 0
M  V30 2447 C 228.678 1.70064 -3.18999 0
M  V30 2448 O 228.399 0.852278 -4.2973 0
M  V30 2449 C 229.9 2.53148 -3.63911 0
M  V30 2450 H 227.12 0.246885 -0.62393 0
M  V30 2451 H 229.664 0.120152 -2.04147 0
M  V30 2452 H 227.819 2.38984 -3.04902 0
M  V30 2453 H 228.233 1.43329 -5.04537 0
M  V30 2454 H 229.707 3.07931 -4.58129 0
M  V30 2455 H 230.184 3.29901 -2.89935 0
M  V30 2456 H 230.79 1.89492 -3.80753 0
M  V30 2457 N 229.106 1.52395 0.401703 0
M  V30 2458 C 230.354 1.66488 1.14569 0
M  V30 2459 C 230.675 0.400897 1.90835 0
M  V30 2460 O 229.945 -0.584415 1.8698 0
M  V30 2461 H 228.525 0.613672 0.425929 0
M  V30 2462 H 231.187 1.89464 0.457093 0
M  V30 2463 H 230.283 2.50942 1.85566 0
M  V30 2464 N 230.584 -0.659388 1.43143 0
M  V30 2465 C 231.547 -1.75432 1.47501 0
M  V30 2466 C 232.547 -1.56707 0.360512 0
M  V30 2467 O 233.737 -1.62717 0.622002 0
M  V30 2468 C 230.869 -3.14239 1.32162 0
M  V30 2469 H 232.062 -1.7295 2.45006 0
M  V30 2470 H 229.615 -0.870469 1.29817 0
M  V30 2471 H 230.35 -3.22336 0.356401 0
M  V30 2472 H 230.135 -3.29235 2.12948 0
M  V30 2473 H 231.625 -3.94094 1.3813 0
M  V30 2474 N 232.062 -1.29571 -0.897171 0
M  V30 2475 C 233.302 -1.18959 -1.66217 0
M  V30 2476 C 233.666 0.254271 -1.90309 0
M  V30 2477 O 234.867 0.483407 -2.64417 0
M  V30 2478 C 233.138 -1.98302 -2.9734 0
M  V30 2479 S 234.697 -2.04253 -3.88364 0
M  V30 2480 H 231.515 -0.424137 -0.570639 0
M  V30 2481 H 234.117 -1.6389 -1.06585 0
M  V30 2482 H 232.821 -3.02342 -2.77521 0
M  V30 2483 H 232.352 -1.53986 -3.62011 0
M  V30 2484 H 234.367 -1.16105 -4.82425 0
M  V30 2485 N 233.54 1.10788 -1.12088 0
M  V30 2486 C 234.488 2.19111 -0.780587 0
M  V30 2487 C 235.482 1.67818 0.230961 0
M  V30 2488 O 236.688 1.79777 0.0895427 0
M  V30 2489 H 233.063 0.714477 -0.234578 0
M  V30 2490 H 235.034 2.45055 -1.70266 0
M  V30 2491 C 233.783 3.46818 -0.24747 0
M  V30 2492 H 233.106 3.86646 -1.01712 0
M  V30 2493 H 234.546 4.23973 -0.0476291 0
M  V30 2494 C 233.005 3.20968 1.02378 0
M  V30 2495 O 233.535 3.42298 2.10226 0
M  V30 2496 N 231.741 2.74658 0.949271 0
M  V30 2497 H 231.288 2.57501 0.0715173 0
M  V30 2498 H 231.246 2.57739 1.80049 0
M  V30 2499 N 235.018 0.912232 1.28515 0
M  V30 2500 C 235.966 0.389597 2.29314 0
M  V30 2501 C 236.96 -0.517915 1.61289 0
M  V30 2502 O 238.166 -0.399328 1.75515 0
M  V30 2503 H 234.541 0.107386 0.744293 0
M  V30 2504 H 236.512 1.25286 2.70825 0
M  V30 2505 C 235.261 -0.356496 3.45868 0
M  V30 2506 H 234.584 0.332608 3.98414 0
M  V30 2507 H 236.024 -0.686851 4.184 0
M  V30 2508 C 234.483 -1.56383 2.98406 0
M  V30 2509 O 235.013 -2.66294 3.00749 0
M  V30 2510 N 233.219 -1.41029 2.54085 0
M  V30 2511 H 232.766 -0.516089 2.52377 0
M  V30 2512 H 232.724 -2.21939 2.22689 0
M  V30 2513 N 236.496 -1.42363 0.676048 0
M  V30 2514 C 237.912 -1.55811 0.345718 0
M  V30 2515 C 238.112 -1.65544 -1.14879 0
M  V30 2516 O 237.168 -1.62306 -1.93424 0
M  V30 2517 C 238.481 -2.80746 1.07713 0
M  V30 2518 C 240.029 -2.9452 1.05958 0
M  V30 2519 C 240.504 -4.22318 1.77233 0
M  V30 2520 N 241.995 -4.29233 1.74108 0
M  V30 2521 C 242.73 -5.26935 2.26113 0
M  V30 2522 N 242.226 -6.30783 2.86505 0
M  V30 2523 N 244.019 -5.18741 2.1648 0
M  V30 2524 H 236.17 -1.34289 1.6456 0
M  V30 2525 H 238.433 -0.646506 0.69335 0
M  V30 2526 H 238.139 -2.79696 2.13221 0
M  V30 2527 H 238.013 -3.71676 0.64316 0
M  V30 2528 H 240.4 -2.95097 0.0128255 0
M  V30 2529 H 240.481 -2.04817 1.53244 0
M  V30 2530 H 240.125 -4.22502 2.81877 0
M  V30 2531 H 240.055 -5.10958 1.27396 0
M  V30 2532 H 242.546 -3.54814 1.30059 0
M  V30 2533 H 242.859 -7.01691 3.23805 0
M  V30 2534 H 241.204 -6.31341 2.90575 0
M  V30 2535 H 244.395 -4.36533 1.68987 0
M  V30 2536 H 244.568 -5.94721 2.57316 0
M  V30 2537 N 237.974 -0.419461 -1.51915 0
M  V30 2538 C 239.251 0.211999 -1.94448 0
M  V30 2539 C 239.631 1.61703 -1.35703 0
M  V30 2540 O 238.979 2.22102 -0.536931 0
M  V30 2541 C 239.189 0.207872 -3.4838 0
M  V30 2542 C 240.537 0.422192 -4.22496 0
M  V30 2543 O 241.561 0.286778 -3.55044 0
M  V30 2544 O 240.42 0.690009 -5.42126 0
M  V30 2545 H 237.514 0.139586 -0.815135 0
M  V30 2546 H 240.06 -0.476151 -1.62883 0
M  V30 2547 H 238.832 -0.775102 -3.83546 0
M  V30 2548 H 238.455 0.939688 -3.86336 0
M  V30 2549 N 239.452 1.56882 -0.150215 0
M  V30 2550 C 240.402 2.13501 0.800071 0
M  V30 2551 C 241.386 1.06368 1.20726 0
M  V30 2552 O 242.578 1.32538 1.17314 0
M  V30 2553 C 239.707 2.76271 2.03787 0
M  V30 2554 C 238.793 3.90533 1.65364 0
M  V30 2555 N 239.184 4.96259 0.977794 0
M  V30 2556 C 237.482 4.013 1.94613 0
M  V30 2557 C 238.183 5.76286 0.791794 0
M  V30 2558 N 237.159 5.27163 1.32666 0
M  V30 2559 H 240.961 2.92615 0.274517 0
M  V30 2560 H 238.475 1.62319 0.0512144 0
M  V30 2561 H 240.472 3.15197 2.72867 0
M  V30 2562 H 239.132 1.98631 2.56857 0
M  V30 2563 H 240.143 5.13953 0.638193 0
M  V30 2564 H 236.82 3.3474 2.4951 0
M  V30 2565 H 238.21 6.71401 0.258894 0
M  V30 2566 N 240.93 -0.123565 1.57115 0
M  V30 2567 C 242.341 -0.681198 1.73829 0
M  V30 2568 C 242.692 -1.80535 0.768214 0
M  V30 2569 O 241.817 -2.16317 -0.0599103 0
M  V30 2570 C 242.412 -1.24246 3.15196 0
M  V30 2571 C 240.971 -1.74643 3.33432 0
M  V30 2572 C 240.118 -0.644284 2.69711 0
M  V30 2573 H 243.069 0.102315 1.5837 0
M  V30 2574 H 243.09 -2.11216 3.16493 0
M  V30 2575 H 242.602 -0.424062 3.85776 0
M  V30 2576 H 240.703 -2.58974 2.67886 0
M  V30 2577 H 240.816 -1.85902 4.41562 0
M  V30 2578 H 239.18 -1.07676 2.3082 0
M  V30 2579 H 239.963 0.163058 3.42913 0
M  V30 2580 N 242.408 -1.52605 -0.393616 0
M  V30 2581 C 243.824 -1.41753 -0.733357 0
M  V30 2582 C 244.024 -0.534293 -1.94287 0
M  V30 2583 O 243.08 -0.0059787 -2.52499 0
M  V30 2584 C 244.393 -2.84531 -0.972772 0
M  V30 2585 C 245.941 -2.93978 -1.07453 0
M  V30 2586 C 246.416 -4.37756 -1.3466 0
M  V30 2587 N 247.907 -4.4106 -1.41492 0
M  V30 2588 C 248.642 -5.49387 -1.642 0
M  V30 2589 N 248.138 -6.67806 -1.8441 0
M  V30 2590 N 249.931 -5.36923 -1.66342 0
M  V30 2591 H 242.082 -2.08555 0.402328 0
M  V30 2592 H 244.345 -0.940654 0.117789 0
M  V30 2593 H 244.051 -3.51353 -0.156204 0
M  V30 2594 H 243.925 -3.26508 -1.88871 0
M  V30 2595 H 246.312 -2.27326 -1.88167 0
M  V30 2596 H 246.393 -2.55435 -0.136605 0
M  V30 2597 H 246.037 -5.04972 -0.544581 0
M  V30 2598 H 245.967 -4.73848 -2.2973 0
M  V30 2599 H 248.458 -3.55705 -1.27601 0
M  V30 2600 H 248.771 -7.46141 -2.01231 0
M  V30 2601 H 247.116 -6.70843 -1.81644 0
M  V30 2602 H 250.307 -4.43381 -1.50102 0
M  V30 2603 H 250.48 -6.21416 -1.837 0
M  V30 2604 N 243.887 0.651787 -1.4349 0
M  V30 2605 C 245.133 1.4121 -1.46395 0
M  V30 2606 C 245.488 1.92202 -0.087366 0
M  V30 2607 O 244.781 1.69452 0.894231 0
M  V30 2608 C 244.975 2.60914 -2.44251 0
M  V30 2609 C 244.804 2.21639 -3.91288 0
M  V30 2610 C 243.574 2.09897 -4.59643 0
M  V30 2611 C 245.772 1.81835 -4.81083 0
M  V30 2612 N 243.754 1.63967 -5.91598 0
M  V30 2613 C 245.125 1.46998 -6.02322 0
M  V30 2614 C 247.18 1.69031 -4.6833 0
M  V30 2615 C 245.883 1.00638 -7.12225 0
M  V30 2616 C 247.909 1.24077 -5.78238 0
M  V30 2617 C 247.271 0.901772 -6.98604 0
M  V30 2618 H 243.37 0.512322 -0.590805 0
M  V30 2619 H 245.954 0.74989 -1.7968 0
M  V30 2620 H 244.125 3.24792 -2.1299 0
M  V30 2621 H 245.857 3.27622 -2.37584 0
M  V30 2622 H 242.612 2.297 -4.14168 0
M  V30 2623 H 243.036 1.43359 -6.61647 0
M  V30 2624 H 247.678 1.93878 -3.75727 0
M  V30 2625 H 245.396 0.745399 -8.04655 0
M  V30 2626 H 248.982 1.14657 -5.7039 0
M  V30 2627 H 247.862 0.559226 -7.82203 0
M  V30 2628 N 245.365 1.30045 0.890287 0
M  V30 2629 C 246.613 1.18327 1.63839 0
M  V30 2630 C 246.934 -0.263455 1.93212 0
M  V30 2631 O 246.204 -1.17856 1.56482 0
M  V30 2632 H 244.784 0.434933 0.607324 0
M  V30 2633 H 247.446 1.631 1.06698 0
M  V30 2634 H 246.542 1.74024 2.59079 0
M  V30 2635 N 246.843 -1.10192 1.12674 0
M  V30 2636 C 247.806 -2.14786 0.799979 0
M  V30 2637 C 248.806 -1.59711 -0.18685 0
M  V30 2638 O 249.996 -1.74156 0.0392558 0
M  V30 2639 C 247.128 -3.40374 0.189228 0
M  V30 2640 H 248.321 -2.45203 1.72671 0
M  V30 2641 H 245.874 -1.25597 0.930326 0
M  V30 2642 H 246.609 -3.15577 -0.747107 0
M  V30 2643 H 246.394 -3.81637 0.899766 0
M  V30 2644 H 247.884 -4.17594 -0.0228143 0
M  V30 2645 N 248.321 -0.919034 -1.28029 0
M  V30 2646 C 249.546 -0.570357 -1.99403 0
M  V30 2647 C 249.971 0.842486 -1.68178 0
M  V30 2648 O 249.329 1.56391 -0.917141 0
M  V30 2649 C 249.377 -0.792541 -3.51783 0
M  V30 2650 O 248.481 0.145988 -4.12142 0
M  V30 2651 H 247.822 -0.220555 -0.6263 0
M  V30 2652 H 250.352 -1.23592 -1.63053 0
M  V30 2653 H 250.362 -0.704708 -4.01868 0
M  V30 2654 H 249.037 -1.82247 -3.73844 0
M  V30 2655 H 247.614 0.00897528 -3.72899 0
M  V30 2656 N 249.799 1.42003 -0.683588 0
M  V30 2657 C 250.747 2.326 0.000815408 0
M  V30 2658 C 251.741 1.50308 0.781278 0
M  V30 2659 O 252.947 1.66322 0.688251 0
M  V30 2660 H 249.322 0.751758 0.0190616 0
M  V30 2661 H 251.293 2.88011 -0.780528 0
M  V30 2662 C 250.042 3.34978 0.93195 0
M  V30 2663 H 249.365 3.98345 0.340817 0
M  V30 2664 H 250.805 4.00936 1.37936 0
M  V30 2665 C 249.264 2.67925 2.04249 0
M  V30 2666 O 249.794 2.51788 3.12995 0
M  V30 2667 N 248 2.2681 1.81675 0
M  V30 2668 H 247.547 2.40135 0.932363 0
M  V30 2669 H 247.505 1.8228 2.56167 0
M  V30 2670 N 251.277 0.427512 1.51691 0
M  V30 2671 C 252.505 -0.141191 2.06418 0
M  V30 2672 C 252.92 -1.37303 1.29589 0
M  V30 2673 O 252.277 -1.79059 0.352732 0
M  V30 2674 C 252.328 -0.473266 3.58389 0
M  V30 2675 O 252.049 0.709673 4.32314 0
M  V30 2676 C 253.55 -1.09371 4.29596 0
M  V30 2677 H 250.77 -0.0122747 0.670888 0
M  V30 2678 H 253.314 0.603764 1.95384 0
M  V30 2679 H 251.469 -1.16812 3.69369 0
M  V30 2680 H 251.883 0.42807 5.2275 0
M  V30 2681 H 253.357 -1.27613 5.37046 0
M  V30 2682 H 253.834 -2.072 3.87253 0
M  V30 2683 H 254.44 -0.43853 4.23033 0
M  V30 2684 N 252.755 -1.56801 0.158532 0
M  V30 2685 C 253.718 -2.16138 -0.762705 0
M  V30 2686 C 254.718 -1.1061 -1.16713 0
M  V30 2687 O 255.908 -1.36191 -1.08617 0
M  V30 2688 C 253.04 -2.73386 -2.03649 0
M  V30 2689 H 254.233 -2.98886 -0.246354 0
M  V30 2690 H 251.786 -1.56035 -0.0909744 0
M  V30 2691 H 252.521 -1.94335 -2.59623 0
M  V30 2692 H 252.306 -3.50601 -1.75559 0
M  V30 2693 H 253.796 -3.19065 -2.6942 0
M  V30 2694 N 254.233 0.115231 -1.57178 0
M  V30 2695 C 255.163 1.1423 -2.03651 0
M  V30 2696 C 256.144 1.42967 -0.921655 0
M  V30 2697 O 257.329 1.53343 -1.19162 0
M  V30 2698 C 254.459 2.4675 -2.44401 0
M  V30 2699 C 253.413 2.32467 -3.59365 0
M  V30 2700 C 252.739 3.69984 -3.86026 0
M  V30 2701 C 254.039 1.78203 -4.90959 0
M  V30 2702 H 255.733 0.755749 -2.89705 0
M  V30 2703 H 253.279 0.362093 -1.39373 0
M  V30 2704 H 255.232 3.18854 -2.75517 0
M  V30 2705 H 253.956 2.87302 -1.55322 0
M  V30 2706 H 252.615 1.62811 -3.28463 0
M  V30 2707 H 252.263 4.08028 -2.94147 0
M  V30 2708 H 251.963 3.61279 -4.63412 0
M  V30 2709 H 253.487 4.43587 -4.19599 0
M  V30 2710 H 254.901 2.40128 -5.20587 0
M  V30 2711 H 253.298 1.8031 -5.72371 0
M  V30 2712 H 254.368 0.739876 -4.79222 0
M  V30 2713 N 255.711 1.52812 0.385517 0
M  V30 2714 C 256.674 1.77188 1.45386 0
M  V30 2715 C 257.674 0.641953 1.4743 0
M  V30 2716 O 258.864 0.910033 1.4854 0
M  V30 2717 C 255.996 1.87582 2.8465 0
M  V30 2718 H 257.189 2.72583 1.25054 0
M  V30 2719 H 254.742 1.43586 0.617467 0
M  V30 2720 H 255.477 0.941849 3.10322 0
M  V30 2721 H 255.262 2.69748 2.84567 0
M  V30 2722 H 256.752 2.08102 3.62054 0
M  V30 2723 N 257.189 -0.644168 1.43834 0
M  V30 2724 C 258.605 -0.960875 1.27434 0
M  V30 2725 C 258.805 -2.00499 0.200618 0
M  V30 2726 O 257.861 -2.49018 -0.417906 0
M  V30 2727 C 259.174 -1.43653 2.64167 0
M  V30 2728 C 260.722 -1.55271 2.71772 0
M  V30 2729 C 261.197 -2.06224 4.08944 0
M  V30 2730 N 262.688 -2.13513 4.11055 0
M  V30 2731 C 263.423 -2.54081 5.14033 0
M  V30 2732 N 262.919 -2.9388 6.27381 0
M  V30 2733 N 264.712 -2.54101 5.01387 0
M  V30 2734 H 256.863 0.0465779 2.12349 0
M  V30 2735 H 259.126 -0.0417638 0.94708 0
M  V30 2736 H 258.832 -0.743706 3.43747 0
M  V30 2737 H 258.706 -2.40993 2.90176 0
M  V30 2738 H 261.093 -2.23653 1.92519 0
M  V30 2739 H 261.174 -0.563395 2.49519 0
M  V30 2740 H 260.818 -1.38441 4.88668 0
M  V30 2741 H 260.748 -3.06003 4.28567 0
M  V30 2742 H 263.239 -1.85493 3.29242 0
M  V30 2743 H 263.552 -3.2361 7.01781 0
M  V30 2744 H 261.897 -2.91663 6.30839 0
M  V30 2745 H 265.088 -2.22391 4.11898 0
M  V30 2746 H 265.261 -2.85394 5.81768 0
M  V30 2747 N 258.668 -1.30515 -0.883378 0
M  V30 2748 C 259.914 -1.20617 -1.63778 0
M  V30 2749 C 260.269 0.236469 -1.90941 0
M  V30 2750 O 259.562 1.16596 -1.52039 0
M  V30 2751 C 259.756 -1.96994 -2.98209 0
M  V30 2752 C 259.585 -3.48537 -2.84169 0
M  V30 2753 C 258.355 -4.17893 -2.84067 0
M  V30 2754 C 260.553 -4.43738 -2.60001 0
M  V30 2755 N 258.535 -5.55685 -2.60936 0
M  V30 2756 C 259.906 -5.69105 -2.46007 0
M  V30 2757 C 261.961 -4.33316 -2.45239 0
M  V30 2758 C 260.664 -6.8523 -2.18752 0
M  V30 2759 C 262.69 -5.4921 -2.19369 0
M  V30 2760 C 262.052 -6.73558 -2.06153 0
M  V30 2761 H 258.151 -0.496434 -0.604216 0
M  V30 2762 H 260.735 -1.64544 -1.04083 0
M  V30 2763 H 258.906 -1.55455 -3.55933 0
M  V30 2764 H 260.638 -1.79225 -3.62851 0
M  V30 2765 H 257.393 -3.69739 -2.95956 0
M  V30 2766 H 257.817 -6.28199 -2.52378 0
M  V30 2767 H 262.459 -3.37856 -2.54191 0
M  V30 2768 H 260.177 -7.80729 -2.08537 0
M  V30 2769 H 263.763 -5.43054 -2.08766 0
M  V30 2770 H 262.643 -7.61721 -1.86416 0
M  V30 2771 N 260.146 1.09593 -1.13257 0
M  V30 2772 C 261.076 2.18214 -0.830946 0
M  V30 2773 C 262.057 1.68812 0.208966 0
M  V30 2774 O 263.242 1.9408 0.0682666 0
M  V30 2775 C 260.372 3.46051 -0.294296 0
M  V30 2776 C 259.326 4.08778 -1.26826 0
M  V30 2777 C 258.652 5.31419 -0.591449 0
M  V30 2778 C 259.952 4.51476 -2.62615 0
M  V30 2779 H 261.646 2.43703 -1.73923 0
M  V30 2780 H 259.192 1.17128 -0.837675 0
M  V30 2781 H 261.145 4.2134 -0.0709606 0
M  V30 2782 H 259.869 3.20079 0.649366 0
M  V30 2783 H 258.528 3.35505 -1.47756 0
M  V30 2784 H 258.176 5.01727 0.357633 0
M  V30 2785 H 257.876 5.74341 -1.24123 0
M  V30 2786 H 259.4 6.09433 -0.377355 0
M  V30 2787 H 260.814 5.17999 -2.45663 0
M  V30 2788 H 259.211 5.05277 -3.23752 0
M  V30 2789 H 260.281 3.63962 -3.20406 0
M  V30 2790 N 261.624 0.925811 1.2754 0
M  V30 2791 C 263.035 0.610102 1.7645 0
M  V30 2792 C 263.386 -0.874723 1.75622 0
M  V30 2793 O 262.511 -1.68444 1.35851 0
M  V30 2794 C 263.106 1.10073 3.20421 0
M  V30 2795 C 261.665 0.835723 3.67005 0
M  V30 2796 C 260.812 1.26054 2.46993 0
M  V30 2797 H 263.763 1.10579 1.13833 0
M  V30 2798 H 263.784 0.447557 3.77859 0
M  V30 2799 H 263.296 2.18143 3.20991 0
M  V30 2800 H 261.397 -0.231249 3.71882 0
M  V30 2801 H 261.51 1.45193 4.56569 0
M  V30 2802 H 259.874 0.679111 2.45479 0
M  V30 2803 H 260.657 2.34984 2.50275 0
M  V30 2804 N 263.102 -1.41638 0.69111 0
M  V30 2805 C 264.513 -1.84346 0.295517 0
M  V30 2806 C 264.864 -1.57833 -1.16547 0
M  V30 2807 O 263.989 -1.04648 -1.89414 0
M  V30 2808 C 264.584 -3.34636 0.529575 0
M  V30 2809 C 263.143 -3.7593 0.187944 0
M  V30 2810 C 262.29 -2.65082 0.814052 0
M  V30 2811 H 265.241 -1.31253 0.892092 0
M  V30 2812 H 265.262 -3.79903 -0.213148 0
M  V30 2813 H 264.774 -3.53901 1.59297 0
M  V30 2814 H 262.875 -3.62268 -0.871367 0
M  V30 2815 H 262.988 -4.74808 0.63985 0
M  V30 2816 H 261.352 -2.53528 0.244017 0
M  V30 2817 H 262.135 -2.87167 1.88123 0
M  V30 2818 N 264.58 -0.43555 -1.51462 0
M  V30 2819 C 265.826 0.131709 -2.02372 0
M  V30 2820 C 266.159 1.42516 -1.3192 0
M  V30 2821 O 265.434 1.89606 -0.433573 0
M  V30 2822 C 265.717 0.352301 -3.58373 0
M  V30 2823 C 265.57 -0.959676 -4.39443 0
M  V30 2824 C 266.889 1.12286 -4.25535 0
M  V30 2825 H 264.008 0.0463936 -0.735538 0
M  V30 2826 H 266.65 -0.574197 -1.81116 0
M  V30 2827 H 264.8 0.9536 -3.76615 0
M  V30 2828 H 266.472 -1.59482 -4.32855 0
M  V30 2829 H 264.715 -1.56468 -4.04599 0
M  V30 2830 H 265.386 -0.759394 -5.46752 0
M  V30 2831 H 267.862 0.613545 -4.11552 0
M  V30 2832 H 266.738 1.24598 -5.34571 0
M  V30 2833 H 266.999 2.15048 -3.86273 0
M  V30 2834 N 266.058 1.56714 -0.166846 0
M  V30 2835 C 267.288 2.00828 0.48494 0
M  V30 2836 C 267.696 1.04612 1.57648 0
M  V30 2837 O 267.039 0.0383201 1.8366 0
M  V30 2838 C 267.101 3.4137 1.12723 0
M  V30 2839 C 266.765 4.56654 0.177886 0
M  V30 2840 C 267.762 5.16402 -0.60207 0
M  V30 2841 C 265.447 5.02244 0.0750139 0
M  V30 2842 C 267.441 6.20167 -1.47215 0
M  V30 2843 C 265.128 6.05859 -0.798649 0
M  V30 2844 C 266.126 6.64691 -1.57082 0
M  V30 2845 O 265.814 7.66297 -2.42989 0
M  V30 2846 H 265.546 0.663587 0.128953 0
M  V30 2847 H 268.1 2.03692 -0.264365 0
M  V30 2848 H 266.33 3.35406 1.92457 0
M  V30 2849 H 268.019 3.69466 1.68076 0
M  V30 2850 H 268.785 4.82065 -0.53274 0
M  V30 2851 H 264.664 4.56167 0.665812 0
M  V30 2852 H 268.208 6.66016 -2.07531 0
M  V30 2853 H 264.105 6.39621 -0.869199 0
M  V30 2854 H 264.873 7.83601 -2.36455 0
M  V30 2855 N 267.536 -0.106894 1.57237 0
M  V30 2856 C 268.446 -1.14911 2.0453 0
M  V30 2857 C 269.462 -1.44592 0.96795 0
M  V30 2858 O 270.638 -1.55468 1.2803 0
M  V30 2859 C 267.703 -2.45272 2.45036 0
M  V30 2860 C 266.764 -2.22879 3.66911 0
M  V30 2861 C 265.997 -3.47024 4.05475 0
M  V30 2862 O 266.22 -4.54804 3.44252 0
M  V30 2863 O 265.154 -3.3731 4.98504 0
M  V30 2864 H 268.98 -0.777461 2.9358 0
M  V30 2865 H 266.565 -0.318563 1.45964 0
M  V30 2866 H 268.447 -3.22055 2.71769 0
M  V30 2867 H 267.122 -2.81886 1.59129 0
M  V30 2868 H 266.029 -1.43915 3.45311 0
M  V30 2869 H 267.362 -1.91163 4.53561 0
M  V30 2870 N 269.014 -1.53014 -0.377408 0
M  V30 2871 C 270.291 -1.59215 -1.13622 0
M  V30 2872 C 270.671 -0.392407 -2.07421 0
M  V30 2873 O 270.019 0.618342 -2.19975 0
M  V30 2874 C 270.229 -2.93669 -1.88573 0
M  V30 2875 C 271.577 -3.47822 -2.43526 0
M  V30 2876 O 272.601 -2.9562 -1.98715 0
M  V30 2877 O 271.46 -4.39055 -3.25412 0
M  V30 2878 H 268.554 -0.642625 -0.52054 0
M  V30 2879 H 271.1 -1.65353 -0.381625 0
M  V30 2880 H 269.872 -3.7243 -1.20048 0
M  V30 2881 H 269.495 -2.90968 -2.70968 0
M  V30 2882 N 270.492 0.636531 -1.44174 0
M  V30 2883 C 271.74 1.39343 -1.46383 0
M  V30 2884 C 272.061 1.94766 -0.0955715 0
M  V30 2885 O 271.331 1.75452 0.871395 0
M  V30 2886 H 269.911 0.517199 -0.538994 0
M  V30 2887 H 272.573 0.74957 -1.7991 0
M  V30 2888 H 271.669 2.22746 -2.18611 0
M  V30 2889 N 271.97 1.30982 0.876444 0
M  V30 2890 C 273.217 1.20296 1.62896 0
M  V30 2891 C 273.545 -0.240395 1.93009 0
M  V30 2892 O 272.8 -1.18733 1.55567 0
M  V30 2893 C 273.099 1.98572 2.9716 0
M  V30 2894 C 272.765 3.48125 2.86566 0
M  V30 2895 C 271.427 3.88905 2.83383 0
M  V30 2896 C 273.779 4.43322 2.74071 0
M  V30 2897 C 271.107 5.2316 2.65556 0
M  V30 2898 C 273.459 5.77695 2.57781 0
M  V30 2899 C 272.123 6.17704 2.52979 0
M  V30 2900 H 271.393 0.440193 0.59608 0
M  V30 2901 H 274.04 1.62177 1.01837 0
M  V30 2902 H 272.345 1.49352 3.62217 0
M  V30 2903 H 274.042 1.8769 3.54364 0
M  V30 2904 H 270.632 3.15723 2.89856 0
M  V30 2905 H 274.816 4.12752 2.75589 0
M  V30 2906 H 270.072 5.53241 2.60259 0
M  V30 2907 H 274.246 6.51091 2.47089 0
M  V30 2908 H 271.873 7.21678 2.38924 0
M  V30 2909 N 273.449 -1.08991 1.13837 0
M  V30 2910 C 274.674 -1.85551 0.926585 0
M  V30 2911 C 275.099 -1.80782 -0.519566 0
M  V30 2912 O 274.457 -1.18855 -1.36906 0
M  V30 2913 C 274.505 -3.31266 1.42462 0
M  V30 2914 O 273.609 -4.07822 0.612789 0
M  V30 2915 H 272.95 -0.575192 0.331738 0
M  V30 2916 H 275.48 -1.37604 1.51414 0
M  V30 2917 H 275.49 -3.82112 1.43019 0
M  V30 2918 H 274.165 -3.34052 2.47754 0
M  V30 2919 H 272.742 -3.66731 0.675463 0
M  V30 2920 N 274.927 -0.932562 -1.27047 0
M  V30 2921 C 275.859 -0.392734 -2.2581 0
M  V30 2922 C 276.872 0.479241 -1.55586 0
M  V30 2923 O 278.061 0.291078 -1.76111 0
M  V30 2924 C 275.161 0.455456 -3.35826 0
M  V30 2925 C 274.334 -0.398355 -4.35582 0
M  V30 2926 C 273.393 0.387985 -5.24768 0
M  V30 2927 O 272.419 -0.206003 -5.68827 0
M  V30 2928 N 273.621 1.68664 -5.55457 0
M  V30 2929 H 276.386 -1.24173 -2.72766 0
M  V30 2930 H 273.947 -0.800511 -1.40725 0
M  V30 2931 H 275.939 0.988692 -3.92437 0
M  V30 2932 H 274.509 1.20522 -2.88432 0
M  V30 2933 H 273.729 -1.11286 -3.78165 0
M  V30 2934 H 275.017 -0.981889 -4.99236 0
M  V30 2935 H 274.415 2.19147 -5.21528 0
M  V30 2936 H 272.972 2.1663 -6.14748 0
M  V30 2937 N 276.405 1.4127 -0.698611 0
M  V30 2938 C 277.816 1.84187 -0.305289 0
M  V30 2939 C 278.167 1.58449 1.15708 0
M  V30 2940 O 277.292 1.05651 1.88856 0
M  V30 2941 C 277.887 3.3435 -0.547314 0
M  V30 2942 C 276.446 3.75826 -0.207878 0
M  V30 2943 C 275.593 2.64647 -0.828099 0
M  V30 2944 H 278.544 1.30778 -0.89904 0
M  V30 2945 H 278.565 3.8001 0.192998 0
M  V30 2946 H 278.077 3.53051 -1.61172 0
M  V30 2947 H 276.178 3.62725 0.852143 0
M  V30 2948 H 276.291 4.74462 -0.665021 0
M  V30 2949 H 274.655 2.53395 -0.257458 0
M  V30 2950 H 275.438 2.86165 -1.89643 0
M  V30 2951 N 277.883 0.443576 1.51229 0
M  V30 2952 C 279.299 0.0962001 1.5931 0
M  V30 2953 C 279.499 -1.39501 1.45402 0
M  V30 2954 O 278.555 -2.16557 1.29843 0
M  V30 2955 C 279.868 0.621875 2.94199 0
M  V30 2956 C 281.416 0.582865 3.07525 0
M  V30 2957 C 281.891 1.08562 4.44948 0
M  V30 2958 N 283.382 1.04387 4.51284 0
M  V30 2959 C 284.117 1.40368 5.55954 0
M  V30 2960 N 283.613 1.83664 6.68011 0
M  V30 2961 N 285.406 1.32145 5.46346 0
M  V30 2962 H 277.557 1.41376 1.58514 0
M  V30 2963 H 279.82 0.582965 0.747567 0
M  V30 2964 H 279.526 1.66546 3.09767 0
M  V30 2965 H 279.4 0.0502125 3.77167 0
M  V30 2966 H 281.787 -0.451749 2.91622 0
M  V30 2967 H 281.868 1.191 2.26382 0
M  V30 2968 H 281.512 2.11873 4.61598 0
M  V30 2969 H 281.442 0.453956 5.2464 0
M  V30 2970 H 283.933 0.725986 3.70861 0
M  V30 2971 H 284.246 2.0934 7.43906 0
M  V30 2972 H 282.591 1.87596 6.69203 0
M  V30 2973 H 285.782 0.981808 4.57688 0
M  V30 2974 H 285.955 1.60514 6.27805 0
M  V30 2975 N 279.361 -1.56624 0.175154 0
M  V30 2976 C 280.609 -1.96609 -0.467885 0
M  V30 2977 C 280.93 -1.06238 -1.63519 0
M  V30 2978 O 280.2 -0.129523 -1.95471 0
M  V30 2979 H 278.78 -0.726008 -0.175845 0
M  V30 2980 H 281.442 -1.93195 0.257234 0
M  V30 2981 H 280.538 -3.00989 -0.825342 0
M  V30 2982 N 280.839 0.0985539 -1.57292 0
M  V30 2983 C 282.085 0.798769 -1.87059 0
M  V30 2984 C 282.44 1.76514 -0.76555 0
M  V30 2985 O 281.733 1.90181 0.232752 0
M  V30 2986 C 281.927 1.56927 -3.21105 0
M  V30 2987 C 281.756 0.679026 -4.44544 0
M  V30 2988 C 280.526 0.326071 -5.04247 0
M  V30 2989 C 282.724 -0.0124715 -5.14298 0
M  V30 2990 N 280.706 -0.572702 -6.11223 0
M  V30 2991 C 282.077 -0.769446 -6.15207 0
M  V30 2992 C 284.132 -0.0867545 -4.97824 0
M  V30 2993 C 282.835 -1.59376 -7.01421 0
M  V30 2994 C 284.861 -0.897955 -5.84543 0
M  V30 2995 C 284.223 -1.64306 -6.84969 0
M  V30 2996 H 280.322 0.268568 -0.734435 0
M  V30 2997 H 282.906 0.0614664 -1.94603 0
M  V30 2998 H 281.077 2.27748 -3.1462 0
M  V30 2999 H 282.809 2.21641 -3.38611 0
M  V30 3000 H 279.564 0.67295 -4.68795 0
M  V30 3001 H 279.988 -1.01454 -6.69355 0
M  V30 3002 H 284.63 0.474963 -4.20124 0
M  V30 3003 H 282.348 -2.16655 -7.78515 0
M  V30 3004 H 285.934 -0.958059 -5.73858 0
M  V30 3005 H 284.814 -2.26065 -7.50909 0
M  V30 3006 N 282.317 1.53212 0.369288 0
M  V30 3007 C 283.265 1.80054 1.47253 0
M  V30 3008 C 284.259 0.669456 1.55611 0
M  V30 3009 O 285.465 0.852328 1.58541 0
M  V30 3010 H 281.84 0.570034 0.490475 0
M  V30 3011 H 283.811 2.72403 1.21817 0
M  V30 3012 C 282.56 2.00403 2.84137 0
M  V30 3013 H 281.883 2.86876 2.78464 0
M  V30 3014 H 283.323 2.23164 3.60519 0
M  V30 3015 C 281.782 0.782081 3.27697 0
M  V30 3016 O 282.312 -0.0310205 4.01688 0
M  V30 3017 N 280.518 0.606573 2.84199 0
M  V30 3018 H 280.065 1.26939 2.24152 0
M  V30 3019 H 280.023 -0.20962 3.137 0
M  V30 3020 N 283.795 -0.628877 1.44509 0
M  V30 3021 C 285.206 -1.21054 1.42137 0
M  V30 3022 C 285.557 -1.95715 0.137881 0
M  V30 3023 O 284.682 -2.02554 -0.761645 0
M  V30 3024 C 285.277 -2.20189 2.57493 0
M  V30 3025 C 283.836 -2.73777 2.58308 0
M  V30 3026 C 282.983 -1.48813 2.33987 0
M  V30 3027 H 285.934 -0.41942 1.53057 0
M  V30 3028 H 285.955 -3.02833 2.30375 0
M  V30 3029 H 285.467 -1.6582 3.50892 0
M  V30 3030 H 283.568 -3.32142 1.68856 0
M  V30 3031 H 283.681 -3.19662 3.56865 0
M  V30 3032 H 282.045 -1.77024 1.83124 0
M  V30 3033 H 282.828 -0.963442 3.29504 0
M  V30 3034 N 285.273 -1.31445 -0.869486 0
M  V30 3035 C 286.521 -1.20918 -1.61936 0
M  V30 3036 C 286.842 0.232683 -1.93607 0
M  V30 3037 O 286.112 1.15352 -1.58338 0
M  V30 3038 H 284.692 -0.44454 -0.600328 0
M  V30 3039 H 287.354 -1.64776 -1.0409 0
M  V30 3040 H 286.45 -1.78124 -2.56278 0
M  V30 3041 N 286.751 1.08385 -1.14413 0
M  V30 3042 C 287.998 1.80776 -0.912482 0
M  V30 3043 C 288.326 1.86236 0.560934 0
M  V30 3044 O 287.581 1.33431 1.43159 0
M  V30 3045 C 287.88 3.26273 -1.45879 0
M  V30 3046 C 287.546 3.4093 -2.95089 0
M  V30 3047 C 286.208 3.44638 -3.35824 0
M  V30 3048 C 288.56 3.44591 -3.91033 0
M  V30 3049 C 285.888 3.49597 -4.71167 0
M  V30 3050 C 288.24 3.51086 -5.26233 0
M  V30 3051 C 286.904 3.53067 -5.6648 0
M  V30 3052 H 286.174 0.661507 -0.333901 0
M  V30 3053 H 288.821 1.27613 -1.42784 0
M  V30 3054 H 287.126 3.82146 -0.864376 0
M  V30 3055 H 288.823 3.80839 -1.2555 0
M  V30 3056 H 285.413 3.38736 -2.62594 0
M  V30 3057 H 289.597 3.40957 -3.60641 0
M  V30 3058 H 284.853 3.49424 -5.0171 0
M  V30 3059 H 289.027 3.52864 -6.00383 0
M  V30 3060 H 286.654 3.56662 -6.71339 0
M  V30 3061 N 288.23 0.939286 1.26551 0
M  V30 3062 C 289.16 0.465044 2.28822 0
M  V30 3063 C 290.141 -0.480692 1.63167 0
M  V30 3064 O 291.326 -0.382955 1.90387 0
M  V30 3065 C 288.456 -0.27234 3.46231 0
M  V30 3066 C 287.41 0.58666 4.2396 0
M  V30 3067 C 286.736 -0.280573 5.33963 0
M  V30 3068 C 288.036 1.85704 4.88171 0
M  V30 3069 H 289.73 1.31979 2.68741 0
M  V30 3070 H 287.276 0.636061 1.29191 0
M  V30 3071 H 289.229 -0.615133 4.16886 0
M  V30 3072 H 287.953 -1.16121 3.0526 0
M  V30 3073 H 286.612 0.91232 3.55067 0
M  V30 3074 H 286.26 -1.16874 4.89234 0
M  V30 3075 H 285.96 0.29076 5.8688 0
M  V30 3076 H 287.484 -0.618678 6.07458 0
M  V30 3077 H 288.898 1.58161 5.51052 0
M  V30 3078 H 287.295 2.37279 5.51197 0
M  V30 3079 H 288.365 2.56957 4.11219 0
M  V30 3080 N 289.708 -1.40897 0.706093 0
M  V30 3081 C 290.938 -2.05075 0.250523 0
M  V30 3082 C 291.346 -1.53275 -1.10921 0
M  V30 3083 O 290.689 -0.680281 -1.7064 0
M  V30 3084 C 290.751 -3.59219 0.142178 0
M  V30 3085 C 290.415 -4.33864 1.43566 0
M  V30 3086 C 291.412 -4.62448 2.37566 0
M  V30 3087 C 289.097 -4.72946 1.69195 0
M  V30 3088 C 291.091 -5.29088 3.5545 0
M  V30 3089 C 288.778 -5.3932 2.87362 0
M  V30 3090 C 289.776 -5.6732 3.80312 0
M  V30 3091 O 289.464 -6.32325 4.96408 0
M  V30 3092 H 289.196 -0.666645 0.112074 0
M  V30 3093 H 291.75 -1.81467 0.962239 0
M  V30 3094 H 289.98 -3.81609 -0.6254 0
M  V30 3095 H 291.669 -4.0495 -0.277584 0
M  V30 3096 H 292.435 -4.32727 2.19027 0
M  V30 3097 H 288.314 -4.50527 0.977042 0
M  V30 3098 H 291.858 -5.50859 4.28018 0
M  V30 3099 H 287.755 -5.68461 3.05814 0
M  V30 3100 H 288.523 -6.50821 4.9636 0
M  V30 3101 N 291.186 -0.45159 -1.50991 0
M  V30 3102 C 292.134 0.366864 -2.29689 0
M  V30 3103 C 293.128 1.00809 -1.36139 0
M  V30 3104 O 294.334 0.941427 -1.53418 0
M  V30 3105 H 290.709 0.137133 -0.739391 0
M  V30 3106 H 292.68 -0.317538 -2.96706 0
M  V30 3107 C 291.429 1.44751 -3.16137 0
M  V30 3108 H 290.752 0.963473 -3.88017 0
M  V30 3109 H 292.192 1.99315 -3.74232 0
M  V30 3110 C 290.651 2.43869 -2.32442 0
M  V30 3111 O 291.181 3.4872 -1.99392 0
M  V30 3112 N 289.387 2.15105 -1.95392 0
M  V30 3113 H 288.934 1.29866 -2.22469 0
M  V30 3114 H 288.892 2.81661 -1.39693 0
M  V30 3115 N 292.664 1.56529 -0.183458 0
M  V30 3116 C 293.912 1.96855 0.457452 0
M  V30 3117 C 294.233 1.07104 1.62953 0
M  V30 3118 O 293.503 0.139887 1.954 0
M  V30 3119 H 292.083 0.72693 0.171992 0
M  V30 3120 H 294.745 1.93056 -0.267476 0
M  V30 3121 H 293.841 3.01423 0.809368 0
M  V30 3122 N 294.142 -0.090211 1.57342 0
M  V30 3123 C 295.389 -0.792807 1.86335 0
M  V30 3124 C 295.717 -1.78494 0.772662 0
M  V30 3125 O 294.972 -1.94305 -0.233258 0
M  V30 3126 C 295.271 -1.55222 3.21933 0
M  V30 3127 C 294.937 -0.701765 4.45406 0
M  V30 3128 C 293.599 -0.467334 4.78925 0
M  V30 3129 C 295.951 -0.11086 5.21082 0
M  V30 3130 C 293.279 0.367785 5.85546 0
M  V30 3131 C 295.631 0.711609 6.28585 0
M  V30 3132 C 294.295 0.956086 6.60617 0
M  V30 3133 H 293.565 -0.290109 0.681849 0
M  V30 3134 H 296.212 -0.0541332 1.91423 0
M  V30 3135 H 294.517 -2.3626 3.12551 0
M  V30 3136 H 296.214 -2.10032 3.41595 0
M  V30 3137 H 292.804 -0.894598 4.1916 0
M  V30 3138 H 296.988 -0.279129 4.95514 0
M  V30 3139 H 292.244 0.566128 6.08773 0
M  V30 3140 H 296.418 1.17632 6.86393 0
M  V30 3141 H 294.045 1.60499 7.43064 0
M  V30 3142 N 295.62 -1.53406 -0.361157 0
M  V30 3143 C 297.031 -1.61442 -0.937728 0
M  V30 3144 C 297.382 -0.48461 -1.90121 0
M  V30 3145 O 296.507 0.388312 -2.12888 0
M  V30 3146 C 297.102 -2.92624 -1.70753 0
M  V30 3147 C 295.661 -3.02981 -2.23337 0
M  V30 3148 C 294.808 -2.5677 -1.04712 0
M  V30 3149 H 297.759 -1.58083 -0.139816 0
M  V30 3150 H 297.78 -2.80675 -2.56908 0
M  V30 3151 H 297.292 -3.74834 -1.00604 0
M  V30 3152 H 295.393 -2.25368 -2.96715 0
M  V30 3153 H 295.506 -4.0814 -2.50916 0
M  V30 3154 H 293.87 -2.11752 -1.41539 0
M  V30 3155 H 294.653 -3.41402 -0.360539 0
M  V30 3156 N 297.098 0.621204 -1.44841 0
M  V30 3157 C 298.028 1.74366 -1.55303 0
M  V30 3158 C 299.009 1.65199 -0.405385 0
M  V30 3159 O 300.194 1.83807 -0.626787 0
M  V30 3160 C 297.324 3.12931 -1.50637 0
M  V30 3161 C 296.278 3.36896 -2.63979 0
M  V30 3162 C 295.604 4.75594 -2.44366 0
M  V30 3163 C 296.904 3.28483 -4.06074 0
M  V30 3164 H 298.598 1.65867 -2.49256 0
M  V30 3165 H 296.144 0.796558 -1.19962 0
M  V30 3166 H 298.097 3.9124 -1.56555 0
M  V30 3167 H 296.821 3.22237 -0.532057 0
M  V30 3168 H 295.48 2.60972 -2.57467 0
M  V30 3169 H 295.128 4.81616 -1.45105 0
M  V30 3170 H 294.828 4.92586 -3.20364 0
M  V30 3171 H 296.352 5.5612 -2.52117 0
M  V30 3172 H 297.766 3.96684 -4.13902 0
M  V30 3173 H 296.163 3.57008 -4.82354 0
M  V30 3174 H 297.233 2.26133 -4.28943 0
M  V30 3175 N 298.576 1.31904 0.862503 0
M  V30 3176 C 299.987 1.19803 1.43193 0
M  V30 3177 C 300.338 -0.192567 1.95253 0
M  V30 3178 O 299.463 -1.09081 1.86896 0
M  V30 3179 C 300.058 2.16883 2.60283 0
M  V30 3180 C 298.617 2.08692 3.13248 0
M  V30 3181 C 297.764 2.05691 1.85975 0
M  V30 3182 H 300.715 1.43846 0.670365 0
M  V30 3183 H 300.736 1.76278 3.37204 0
M  V30 3184 H 300.248 3.18083 2.22363 0
M  V30 3185 H 298.349 1.10713 3.55771 0
M  V30 3186 H 298.462 2.9815 3.75025 0
M  V30 3187 H 296.826 1.50814 2.05249 0
M  V30 3188 H 297.609 3.08659 1.50282 0
M  V30 3189 N 300.054 -1.07777 1.14986 0
M  V30 3190 C 301.465 -1.61766 0.932127 0
M  V30 3191 C 301.816 -1.88974 -0.527581 0
M  V30 3192 O 300.941 -1.65198 -1.39781 0
M  V30 3193 C 301.536 -2.93891 1.68563 0
M  V30 3194 C 300.095 -3.44639 1.5133 0
M  V30 3195 C 299.242 -2.18767 1.704 0
M  V30 3196 H 302.193 -0.909201 1.30074 0
M  V30 3197 H 302.214 -3.62623 1.15259 0
M  V30 3198 H 301.726 -2.74057 2.74799 0
M  V30 3199 H 299.827 -3.69564 0.474702 0
M  V30 3200 H 299.94 -4.20966 2.28746 0
M  V30 3201 H 298.304 -2.28253 1.13016 0
M  V30 3202 H 299.087 -2.01433 2.77992 0
M  V30 3203 N 301.532 -0.945985 -1.26051 0
M  V30 3204 C 302.778 -0.597002 -1.93814 0
M  V30 3205 C 303.111 0.862484 -1.73997 0
M  V30 3206 O 302.386 1.61769 -1.07986 0
M  V30 3207 C 302.669 -0.945937 -3.47454 0
M  V30 3208 C 302.522 -2.46052 -3.76535 0
M  V30 3209 C 303.841 -0.464785 -4.37639 0
M  V30 3210 H 300.96 -0.218366 -0.703907 0
M  V30 3211 H 303.602 -1.18107 -1.48831 0
M  V30 3212 H 301.752 -0.448902 -3.85898 0
M  V30 3213 H 303.424 -3.03065 -3.47778 0
M  V30 3214 H 301.667 -2.90194 -3.22444 0
M  V30 3215 H 302.338 -2.65517 -4.83947 0
M  V30 3216 H 304.814 -0.891016 -4.06448 0
M  V30 3217 H 303.69 -0.737712 -5.4392 0
M  V30 3218 H 303.951 0.635274 -4.37512 0
M  V30 3219 N 303.011 1.40521 -0.713556 0
M  V30 3220 C 304.427 1.54839 -0.386907 0
M  V30 3221 C 304.627 1.68532 1.1045 0
M  V30 3222 O 303.683 1.67377 1.89053 0
M  V30 3223 C 304.996 2.77792 -1.15118 0
M  V30 3224 C 306.544 2.91607 -1.13729 0
M  V30 3225 C 307.019 4.1747 -1.88368 0
M  V30 3226 N 308.51 4.24466 -1.85427 0
M  V30 3227 C 309.245 5.20755 -2.40004 0
M  V30 3228 N 308.741 6.22965 -3.03129 0
M  V30 3229 N 310.534 5.1282 -2.30158 0
M  V30 3230 H 302.685 1.29879 -1.68063 0
M  V30 3231 H 304.948 0.627896 -0.710247 0
M  V30 3232 H 304.654 2.73944 -2.20561 0
M  V30 3233 H 304.528 3.6984 -0.741477 0
M  V30 3234 H 306.915 2.94959 -0.0910608 0
M  V30 3235 H 306.996 2.00682 -1.5862 0
M  V30 3236 H 306.64 4.1488 -2.9298 0
M  V30 3237 H 306.57 5.074 -1.40898 0
M  V30 3238 H 309.061 3.51241 -1.3942 0
M  V30 3239 H 309.374 6.92859 -3.42295 0
M  V30 3240 H 307.719 6.23415 -3.07212 0
M  V30 3241 H 310.91 4.31899 -1.80501 0
M  V30 3242 H 311.083 5.87689 -2.72993 0
M  V30 3243 N 304.489 0.459591 1.5075 0
M  V30 3244 C 305.399 -0.34613 2.32033 0
M  V30 3245 C 306.415 -1.00686 1.41909 0
M  V30 3246 O 307.591 -0.997361 1.7497 0
M  V30 3247 C 304.656 -1.42029 3.16273 0
M  V30 3248 C 303.717 -0.777362 4.22203 0
M  V30 3249 C 302.95 -1.80034 5.02418 0
M  V30 3250 O 303.173 -3.02544 4.83553 0
M  V30 3251 O 302.107 -1.37853 5.85901 0
M  V30 3252 H 305.933 0.318054 3.0203 0
M  V30 3253 H 303.518 0.221663 1.47746 0
M  V30 3254 H 305.4 -2.04275 3.68578 0
M  V30 3255 H 304.075 -2.06815 2.49016 0
M  V30 3256 H 302.982 -0.116256 3.73919 0
M  V30 3257 H 304.315 -0.172634 4.91897 0
M  V30 3258 N 305.967 -1.56429 0.191757 0
M  V30 3259 C 307.213 -1.97777 -0.448554 0
M  V30 3260 C 307.546 -1.07847 -1.61501 0
M  V30 3261 O 306.821 -0.129774 -1.94067 0
M  V30 3262 C 307.104 -3.48362 -0.911906 0
M  V30 3263 C 306.957 -4.4907 0.256136 0
M  V30 3264 C 308.276 -4.02561 -1.77857 0
M  V30 3265 H 305.395 -0.719071 -0.161572 0
M  V30 3266 H 308.037 -1.87896 0.282007 0
M  V30 3267 H 306.187 -3.56914 -1.53442 0
M  V30 3268 H 307.859 -4.5256 0.893733 0
M  V30 3269 H 306.102 -4.24181 0.908436 0
M  V30 3270 H 306.773 -5.51889 -0.11053 0
M  V30 3271 H 309.249 -3.96767 -1.25359 0
M  V30 3272 H 308.125 -5.08301 -2.07174 0
M  V30 3273 H 308.386 -3.47616 -2.73158 0
M  V30 3274 N 307.445 0.0818655 -1.57387 0
M  V30 3275 C 308.673 0.796108 -1.9097 0
M  V30 3276 C 309.088 1.71626 -0.786757 0
M  V30 3277 O 308.445 1.80908 0.240513 0
M  V30 3278 C 308.496 1.59829 -3.24248 0
M  V30 3279 O 308.217 0.715131 -4.32224 0
M  V30 3280 C 309.718 2.41442 -3.7178 0
M  V30 3281 H 306.938 0.22691 -0.631469 0
M  V30 3282 H 309.482 0.0551439 -2.04426 0
M  V30 3283 H 307.637 2.29163 -3.12351 0
M  V30 3284 H 308.051 1.27205 -5.08841 0
M  V30 3285 H 309.525 2.932 -4.67694 0
M  V30 3286 H 310.002 3.2051 -3.00283 0
M  V30 3287 H 310.608 1.77283 -3.86589 0
M  V30 3288 N 308.923 1.53595 0.353017 0
M  V30 3289 C 310.339 1.43648 0.695516 0
M  V30 3290 C 310.539 0.585617 1.92802 0
M  V30 3291 O 309.595 0.0729223 2.52395 0
M  V30 3292 C 310.908 2.8701 0.896991 0
M  V30 3293 C 312.456 2.96723 0.996209 0
M  V30 3294 C 312.931 4.41173 1.23007 0
M  V30 3295 N 314.422 4.44657 1.29749 0
M  V30 3296 C 315.157 5.53547 1.49577 0
M  V30 3297 N 314.653 6.72461 1.66639 0
M  V30 3298 N 316.446 5.41145 1.52048 0
M  V30 3299 H 308.597 2.07415 -0.457481 0
M  V30 3300 H 310.86 0.9372 -0.142687 0
M  V30 3301 H 310.566 3.51644 0.0629938 0
M  V30 3302 H 310.44 3.31401 1.80148 0
M  V30 3303 H 312.827 2.32235 1.82074 0
M  V30 3304 H 312.908 2.55707 0.0688331 0
M  V30 3305 H 312.552 5.06238 0.410505 0
M  V30 3306 H 312.482 4.79772 2.17086 0
M  V30 3307 H 314.973 3.58963 1.18126 0
M  V30 3308 H 315.286 7.51214 1.81378 0
M  V30 3309 H 313.631 6.75423 1.63794 0
M  V30 3310 H 316.822 4.47205 1.38294 0
M  V30 3311 H 316.995 6.26068 1.67159 0
M  V30 3312 N 310.401 -0.613514 1.45168 0
M  V30 3313 C 311.351 -1.71871 1.49815 0
M  V30 3314 C 312.335 -1.56774 0.362021 0
M  V30 3315 O 313.527 -1.66212 0.608493 0
M  V30 3316 C 310.656 -3.1061 1.46207 0
M  V30 3317 C 309.742 -3.31114 2.64999 0
M  V30 3318 N 310.133 -3.21904 3.90143 0
M  V30 3319 C 308.431 -3.61966 2.6057 0
M  V30 3320 C 309.132 -3.43577 4.69393 0
M  V30 3321 N 308.108 -3.67287 4.00751 0
M  V30 3322 H 311.91 -1.63235 2.444 0
M  V30 3323 H 309.424 -0.816577 1.40377 0
M  V30 3324 H 311.421 -3.8989 1.4762 0
M  V30 3325 H 310.081 -3.20399 0.52673 0
M  V30 3326 H 311.092 -3.00436 4.21852 0
M  V30 3327 H 307.769 -3.78629 1.75916 0
M  V30 3328 H 309.159 -3.41901 5.78406 0
M  V30 3329 N 311.879 -1.3236 -0.855495 0
M  V30 3330 C 313.125 -1.23054 -1.612 0
M  V30 3331 C 313.458 0.207404 -1.93089 0
M  V30 3332 O 312.733 1.14432 -1.57275 0
M  V30 3333 C 313.016 -2.08937 -2.93287 0
M  V30 3334 C 312.869 -3.61105 -2.68185 0
M  V30 3335 C 314.188 -1.94986 -3.94549 0
M  V30 3336 H 311.307 -0.448364 -0.584926 0
M  V30 3337 H 313.949 -1.62297 -0.987917 0
M  V30 3338 H 312.099 -1.75599 -3.46551 0
M  V30 3339 H 313.771 -4.04652 -2.21483 0
M  V30 3340 H 312.014 -3.83813 -2.02164 0
M  V30 3341 H 312.685 -4.16522 -3.62234 0
M  V30 3342 H 315.161 -2.24189 -3.5054 0
M  V30 3343 H 314.037 -2.57356 -4.84829 0
M  V30 3344 H 314.298 -0.917263 -4.3248 0
M  V30 3345 N 313.357 1.07166 -1.15556 0
M  V30 3346 C 314.606 1.79181 -0.926132 0
M  V30 3347 C 314.919 1.87768 0.547967 0
M  V30 3348 O 316.125 2.56323 0.895036 0
M  V30 3349 C 314.581 3.22 -1.60761 0
M  V30 3350 C 314.189 3.21607 -3.11886 0
M  V30 3351 C 315.933 3.9861 -1.4598 0
M  V30 3352 C 313.84 4.59092 -3.72812 0
M  V30 3353 H 312.77 0.67154 -0.342856 0
M  V30 3354 H 315.421 1.2027 -1.3859 0
M  V30 3355 H 313.803 3.81115 -1.07553 0
M  V30 3356 H 314.977 2.72127 -3.71865 0
M  V30 3357 H 313.292 2.58495 -3.2645 0
M  V30 3358 H 315.889 5.00225 -1.88888 0
M  V30 3359 H 316.232 4.143 -0.407541 0
M  V30 3360 H 316.765 3.45996 -1.96295 0
M  V30 3361 H 313.504 4.48606 -4.77946 0
M  V30 3362 H 313.024 5.08803 -3.17616 0
M  V30 3363 H 314.703 5.28059 -3.73848 0
M  V30 3364 N 314.835 0.952656 1.25548 0
M  V30 3365 C 315.767 0.428609 2.25157 0
M  V30 3366 C 316.78 -0.454428 1.56329 0
M  V30 3367 O 317.969 -0.263023 1.76552 0
M  V30 3368 C 315.069 -0.401972 3.36508 0
M  V30 3369 C 314.242 0.467601 4.34893 0
M  V30 3370 C 313.301 -0.30445 5.25319 0
M  V30 3371 O 312.327 0.296473 5.68427 0
M  V30 3372 N 313.529 -1.59805 5.5807 0
M  V30 3373 H 316.294 1.28497 2.70756 0
M  V30 3374 H 313.855 0.822798 1.39433 0
M  V30 3375 H 315.847 -0.926134 3.9396 0
M  V30 3376 H 314.417 -1.15918 2.90313 0
M  V30 3377 H 313.637 1.17288 3.76347 0
M  V30 3378 H 314.925 1.06119 4.97611 0
M  V30 3379 H 314.323 -2.10823 5.24948 0
M  V30 3380 H 312.88 -2.06822 6.18116 0
M  V30 3381 N 316.313 -1.40141 0.720998 0
M  V30 3382 C 317.559 -2.01084 0.263231 0
M  V30 3383 C 317.892 -1.57052 -1.14229 0
M  V30 3384 O 317.167 -0.793027 -1.77599 0
M  V30 3385 C 317.45 -3.58401 0.349344 0
M  V30 3386 C 317.303 -4.12491 1.79363 0
M  V30 3387 C 318.622 -4.39231 -0.276351 0
M  V30 3388 H 315.741 -0.730572 0.0971228 0
M  V30 3389 H 318.383 -1.66543 0.914518 0
M  V30 3390 H 316.533 -3.87958 -0.205165 0
M  V30 3391 H 318.205 -3.93711 2.40394 0
M  V30 3392 H 316.448 -3.66576 2.31958 0
M  V30 3393 H 317.119 -5.21646 1.80524 0
M  V30 3394 H 319.595 -4.15637 0.196184 0
M  V30 3395 H 318.471 -5.48586 -0.185681 0
M  V30 3396 H 318.732 -4.20643 -1.36059 0
M  V30 3397 N 317.792 -0.46758 -1.50504 0
M  V30 3398 C 319.017 0.0886943 -2.0721 0
M  V30 3399 C 319.442 1.33057 -1.32956 0
M  V30 3400 O 318.8 1.77354 -0.376197 0
M  V30 3401 C 318.848 0.359202 -3.58806 0
M  V30 3402 O 317.952 1.44034 -3.8643 0
M  V30 3403 H 317.293 -0.0114349 -0.663902 0
M  V30 3404 H 319.823 -0.657613 -1.93744 0
M  V30 3405 H 319.833 0.600742 -4.03553 0
M  V30 3406 H 318.508 -0.548311 -4.1227 0
M  V30 3407 H 317.085 1.18638 -3.53524 0
M  V30 3408 N 319.27 1.56325 -0.20005 0
M  V30 3409 C 320.218 2.20666 0.735482 0
M  V30 3410 C 321.212 1.17934 1.21605 0
M  V30 3411 O 322.418 1.36068 1.17837 0
M  V30 3412 H 318.793 0.70725 0.255542 0
M  V30 3413 H 320.764 2.9792 0.169166 0
M  V30 3414 C 319.513 2.88391 1.94232 0
M  V30 3415 H 318.836 3.67185 1.58161 0
M  V30 3416 H 320.276 3.3684 2.57517 0
M  V30 3417 C 318.735 1.89692 2.78421 0
M  V30 3418 O 319.265 1.40032 3.76502 0
M  V30 3419 N 317.471 1.57813 2.44015 0
M  V30 3420 H 317.018 1.9839 1.64314 0
M  V30 3421 H 316.976 0.920325 3.00628 0
M  V30 3422 N 320.748 -0.0735177 1.57428 0
M  V30 3423 C 321.658 -1.10547 2.06922 0
M  V30 3424 C 322.674 -1.42506 0.998402 0
M  V30 3425 O 323.85 -1.52717 1.31299 0
M  V30 3426 C 320.915 -2.40019 2.50184 0
M  V30 3427 C 319.976 -2.15046 3.71556 0
M  V30 3428 C 319.209 -3.38345 4.12745 0
M  V30 3429 O 319.432 -4.47399 3.53822 0
M  V30 3430 O 318.366 -3.2666 5.05546 0
M  V30 3431 H 322.192 -0.715013 2.95163 0
M  V30 3432 H 319.777 -0.287531 1.46607 0
M  V30 3433 H 321.659 -3.16218 2.78539 0
M  V30 3434 H 320.334 -2.78447 1.65072 0
M  V30 3435 H 319.241 -1.36558 3.48285 0
M  V30 3436 H 320.574 -1.81499 4.57514 0
M  V30 3437 N 322.226 -1.5378 -0.344866 0
M  V30 3438 C 323.472 -1.71216 -1.08687 0
M  V30 3439 C 323.805 -0.473281 -1.88345 0
M  V30 3440 O 323.08 0.52968 -1.87149 0
M  V30 3441 C 323.363 -2.97486 -2.02914 0
M  V30 3442 C 323.216 -4.31579 -1.26727 0
M  V30 3443 C 324.535 -3.19422 -3.0275 0
M  V30 3444 H 321.654 -0.62301 -0.393735 0
M  V30 3445 H 324.296 -1.8645 -0.365563 0
M  V30 3446 H 322.446 -2.84629 -2.64421 0
M  V30 3447 H 324.118 -4.56284 -0.67845 0
M  V30 3448 H 322.361 -4.30049 -0.569273 0
M  V30 3449 H 323.032 -5.16106 -1.95803 0
M  V30 3450 H 325.508 -3.316 -2.51357 0
M  V30 3451 H 324.384 -4.09169 -3.65885 0
M  V30 3452 H 324.645 -2.35656 -3.74057 0
M  V30 3453 N 323.704 0.605807 -1.45491 0
M  V30 3454 C 324.95 1.36679 -1.49823 0
M  V30 3455 C 325.283 1.93693 -0.140175 0
M  V30 3456 O 324.558 1.75158 0.845581 0
M  V30 3457 C 324.841 2.51337 -2.57879 0
M  V30 3458 C 324.694 1.99508 -4.03134 0
M  V30 3459 C 326.013 3.53463 -2.62205 0
M  V30 3460 H 323.132 0.495617 -0.545466 0
M  V30 3461 H 325.774 0.682732 -1.7731 0
M  V30 3462 H 323.924 3.09691 -2.34571 0
M  V30 3463 H 325.596 1.45789 -4.37656 0
M  V30 3464 H 323.839 1.30496 -4.13707 0
M  V30 3465 H 324.51 2.82169 -4.74431 0
M  V30 3466 H 326.986 3.04953 -2.83095 0
M  V30 3467 H 325.862 4.31178 -3.39672 0
M  V30 3468 H 326.123 4.09197 -1.67363 0
M  V30 3469 N 325.182 1.32811 0.848464 0
M  V30 3470 C 326.41 1.26739 1.63538 0
M  V30 3471 C 326.825 -0.163484 1.88091 0
M  V30 3472 O 326.182 -1.10258 1.45429 0
M  V30 3473 C 326.233 2.03013 2.99112 0
M  V30 3474 O 325.954 3.40518 2.75643 0
M  V30 3475 C 327.455 2.04038 3.93552 0
M  V30 3476 H 324.675 0.437024 0.509167 0
M  V30 3477 H 327.219 1.75033 1.05753 0
M  V30 3478 H 325.374 1.58426 3.53525 0
M  V30 3479 H 325.788 3.79635 3.61908 0
M  V30 3480 H 327.262 2.61877 4.85926 0
M  V30 3481 H 327.739 1.0282 4.26995 0
M  V30 3482 H 328.345 2.486 3.45077 0
M  V30 3483 N 326.66 -1.06551 1.16123 0
M  V30 3484 C 327.937 -1.76097 0.85142 0
M  V30 3485 C 328.317 -2.00802 -0.6513 0
M  V30 3486 O 327.665 -1.63302 -1.59827 0
M  V30 3487 C 327.875 -3.06384 1.67122 0
M  V30 3488 C 329.223 -3.80585 1.88255 0
M  V30 3489 O 330.247 -3.16218 1.63966 0
M  V30 3490 O 329.106 -4.96212 2.2899 0
M  V30 3491 H 326.2 -0.765102 0.313923 0
M  V30 3492 H 328.746 -1.12844 1.26745 0
M  V30 3493 H 327.518 -2.84071 2.69108 0
M  V30 3494 H 327.141 -3.77371 1.25206 0
M  V30 3495 N 328.138 -0.959301 -1.25041 0
M  V30 3496 C 329.415 -0.533805 -1.88175 0
M  V30 3497 C 329.795 0.988994 -1.865 0
M  V30 3498 O 329.143 1.85677 -1.33177 0
M  V30 3499 C 329.353 -1.11575 -3.30684 0
M  V30 3500 C 330.701 -1.19548 -4.07423 0
M  V30 3501 O 331.725 -1.06765 -3.39823 0
M  V30 3502 O 330.584 -1.39656 -5.28354 0
M  V30 3503 H 327.678 -0.176772 -0.807887 0
M  V30 3504 H 330.224 -1.05303 -1.33076 0
M  V30 3505 H 328.996 -2.15884 -3.26358 0
M  V30 3506 H 328.619 -0.580059 -3.93346 0
M  V30 3507 N 329.616 1.39756 -0.72842 0
M  V30 3508 C 330.893 1.94574 -0.200079 0
M  V30 3509 C 331.273 1.66569 1.29684 0
M  V30 3510 O 330.621 0.990326 2.05924 0
M  V30 3511 C 330.831 3.45004 -0.526608 0
M  V30 3512 C 332.179 4.21965 -0.472318 0
M  V30 3513 O 333.203 3.53173 -0.463413 0
M  V30 3514 O 332.062 5.44552 -0.461075 0
M  V30 3515 H 329.156 0.826289 -0.0342851 0
M  V30 3516 H 331.702 1.49293 -0.806829 0
M  V30 3517 H 330.474 3.58796 -1.56144 0
M  V30 3518 H 330.097 3.97449 0.109449 0
M  V30 3519 N 331.094 0.475555 1.50254 0
M  V30 3520 C 332.51 0.12997 1.5907 0
M  V30 3521 C 332.71 -1.36385 1.48328 0
M  V30 3522 O 331.766 -2.13754 1.34407 0
M  V30 3523 C 333.079 0.684139 2.92814 0
M  V30 3524 C 334.627 0.647965 3.0622 0
M  V30 3525 C 335.102 1.17975 4.42545 0
M  V30 3526 N 336.593 1.13936 4.48969 0
M  V30 3527 C 337.328 1.52129 5.52851 0
M  V30 3528 N 336.824 1.97793 6.63965 0
M  V30 3529 N 338.617 1.43704 5.4342 0
M  V30 3530 H 330.768 1.44706 1.55479 0
M  V30 3531 H 333.031 0.598691 0.735033 0
M  V30 3532 H 332.737 1.73079 3.06164 0
M  V30 3533 H 332.611 0.130204 3.76975 0
M  V30 3534 H 334.998 -0.38979 2.92514 0
M  V30 3535 H 335.079 1.23876 2.23805 0
M  V30 3536 H 334.723 2.21616 4.57 0
M  V30 3537 H 334.653 0.565138 5.23559 0
M  V30 3538 H 337.144 0.804488 3.69238 0
M  V30 3539 H 337.457 2.25072 7.39299 0
M  V30 3540 H 335.802 2.01749 6.65073 0
M  V30 3541 H 338.993 1.07867 4.55502 0
M  V30 3542 H 339.166 1.73794 6.24259 0
M  V30 3543 N 332.573 -1.56217 0.208337 0
M  V30 3544 C 333.803 -2.02043 -0.431523 0
M  V30 3545 C 334.211 -1.08755 -1.54819 0
M  V30 3546 O 333.554 -0.0870009 -1.83494 0
M  V30 3547 C 333.616 -3.44239 -1.03633 0
M  V30 3548 C 333.28 -4.56965 -0.0567502 0
M  V30 3549 C 334.277 -5.14624 0.738773 0
M  V30 3550 C 331.962 -5.02266 0.0581736 0
M  V30 3551 C 333.956 -6.16045 1.63605 0
M  V30 3552 C 331.643 -6.03528 0.959001 0
M  V30 3553 C 332.641 -6.60293 1.7465 0
M  V30 3554 O 332.329 -7.59586 2.6322 0
M  V30 3555 H 332.061 -0.666772 -0.111313 0
M  V30 3556 H 334.615 -2.02919 0.318277 0
M  V30 3557 H 332.845 -3.40391 -1.83497 0
M  V30 3558 H 334.534 -3.73793 -1.58221 0
M  V30 3559 H 335.3 -4.80483 0.660364 0
M  V30 3560 H 331.179 -4.57771 -0.544633 0
M  V30 3561 H 334.723 -6.60279 2.25116 0
M  V30 3562 H 330.62 -6.37092 1.03848 0
M  V30 3563 H 331.388 -7.77057 2.57148 0
M  V30 3564 N 334.051 0.0651679 -1.57465 0
M  V30 3565 C 335.276 0.779605 -1.9219 0
M  V30 3566 C 335.701 1.69988 -0.805333 0
M  V30 3567 O 335.059 1.79685 0.241435 0
M  V30 3568 C 335.107 1.54364 -3.2589 0
M  V30 3569 O 334.211 2.65474 -3.1559 0
M  V30 3570 H 333.552 0.212249 -0.629163 0
M  V30 3571 H 336.082 0.0314294 -2.04576 0
M  V30 3572 H 336.092 1.92146 -3.59922 0
M  V30 3573 H 334.767 0.868457 -4.06732 0
M  V30 3574 H 333.344 2.30501 -2.93128 0
M  V30 3575 N 335.529 1.53961 0.336706 0
M  V30 3576 C 336.806 1.62171 1.09361 0
M  V30 3577 C 337.186 0.447263 2.06307 0
M  V30 3578 O 336.534 -0.559802 2.21537 0
M  V30 3579 C 336.744 2.98565 1.80721 0
M  V30 3580 C 338.092 3.54157 2.34218 0
M  V30 3581 O 339.116 3.00784 1.90807 0
M  V30 3582 O 337.975 4.47528 3.13657 0
M  V30 3583 H 335.069 0.6562 0.503319 0
M  V30 3584 H 337.615 1.66307 0.33765 0
M  V30 3585 H 336.387 3.75482 1.10132 0
M  V30 3586 H 336.01 2.9805 2.63158 0
M  V30 3587 N 337.007 -0.598083 1.45811 0
M  V30 3588 C 337.937 -1.71873 1.58057 0
M  V30 3589 C 338.918 -1.64533 0.431615 0
M  V30 3590 O 340.103 -1.82787 0.65595 0
M  V30 3591 C 337.233 -3.10495 1.55597 0
M  V30 3592 C 336.187 -3.32654 2.69305 0
M  V30 3593 C 335.513 -4.71646 2.51902 0
M  V30 3594 C 336.813 -3.21981 4.11248 0
M  V30 3595 H 338.507 -1.61881 2.51863 0
M  V30 3596 H 336.053 -0.777372 1.21214 0
M  V30 3597 H 338.006 -3.88699 1.6276 0
M  V30 3598 H 336.73 -3.2135 0.583255 0
M  V30 3599 H 335.389 -2.56843 2.61586 0
M  V30 3600 H 335.037 -4.79246 1.52748 0
M  V30 3601 H 334.737 -4.87426 3.2816 0
M  V30 3602 H 336.261 -5.52038 2.60933 0
M  V30 3603 H 337.675 -3.90049 4.20161 0
M  V30 3604 H 336.072 -3.49289 4.87972 0
M  V30 3605 H 337.142 -2.1928 4.32486 0
M  V30 3606 N 338.485 -1.33259 -0.841409 0
M  V30 3607 C 339.415 -1.25926 -1.96634 0
M  V30 3608 C 340.396 -0.140349 -1.6952 0
M  V30 3609 O 341.581 -0.329707 -1.91381 0
M  V30 3610 C 338.711 -0.99512 -3.32738 0
M  V30 3611 C 337.665 -2.0767 -3.74242 0
M  V30 3612 C 336.991 -1.66474 -5.08125 0
M  V30 3613 C 338.291 -3.49318 -3.88297 0
M  V30 3614 H 339.985 -2.20046 -2.03027 0
M  V30 3615 H 337.531 -1.05931 -0.975425 0
M  V30 3616 H 339.484 -0.930323 -4.11002 0
M  V30 3617 H 338.208 -0.0183004 -3.26595 0
M  V30 3618 H 336.867 -2.13187 -2.98239 0
M  V30 3619 H 336.515 -0.675012 -4.9845 0
M  V30 3620 H 336.215 -2.3885 -5.36865 0
M  V30 3621 H 337.739 -1.61455 -5.88867 0
M  V30 3622 H 339.153 -3.46316 -4.56879 0
M  V30 3623 H 337.55 -4.20158 -4.28471 0
M  V30 3624 H 338.62 -3.8801 -2.9082 0
M  V30 3625 N 339.963 1.05934 -1.16686 0
M  V30 3626 C 340.896 2.1295 -0.820225 0
M  V30 3627 C 341.874 1.61242 0.209722 0
M  V30 3628 O 343.058 1.88271 0.0929688 0
M  V30 3629 C 340.185 3.3797 -0.22223 0
M  V30 3630 C 339.231 4.08488 -1.22637 0
M  V30 3631 S 340.064 4.58015 -2.77457 0
M  V30 3632 C 341.22 5.86292 -2.19117 0
M  V30 3633 H 341.453 2.42025 -1.72659 0
M  V30 3634 H 338.986 1.18423 -0.990722 0
M  V30 3635 H 340.944 4.10335 0.116322 0
M  V30 3636 H 339.605 3.07045 0.66196 0
M  V30 3637 H 338.798 4.98291 -0.756455 0
M  V30 3638 H 338.4 3.42154 -1.51019 0
M  V30 3639 H 340.692 6.59246 -1.56209 0
M  V30 3640 H 341.635 6.38019 -3.07144 0
M  V30 3641 H 342.043 5.40497 -1.62858 0
M  V30 3642 N 341.441 0.965919 1.2453 0
M  V30 3643 C 342.404 0.499547 2.2369 0
M  V30 3644 C 343.404 -0.40294 1.5567 0
M  V30 3645 O 344.594 -0.19865 1.73064 0
M  V30 3646 C 341.726 -0.276792 3.39774 0
M  V30 3647 H 342.919 1.37613 2.66463 0
M  V30 3648 H 340.472 0.750324 1.37112 0
M  V30 3649 H 341.207 -1.17055 3.02438 0
M  V30 3650 H 340.992 0.370826 3.90343 0
M  V30 3651 H 342.482 -0.592175 4.1338 0
M  V30 3652 N 342.919 -1.39368 0.735821 0
M  V30 3653 C 344.165 -2.01272 0.293439 0
M  V30 3654 C 344.52 -1.57344 -1.10728 0
M  V30 3655 O 343.813 -0.792744 -1.74431 0
M  V30 3656 C 344.007 -3.5583 0.334651 0
M  V30 3657 C 343.836 -4.14764 1.73784 0
M  V30 3658 C 342.606 -4.47315 2.35026 0
M  V30 3659 C 344.804 -4.38246 2.69157 0
M  V30 3660 N 342.786 -4.91756 3.6749 0
M  V30 3661 C 344.157 -4.849 3.86357 0
M  V30 3662 C 346.212 -4.20315 2.66908 0
M  V30 3663 C 344.915 -5.15505 5.01645 0
M  V30 3664 C 346.941 -4.52033 3.8134 0
M  V30 3665 C 346.303 -4.98895 4.97276 0
M  V30 3666 H 342.402 -0.766756 0.153652 0
M  V30 3667 H 344.986 -1.69276 0.961967 0
M  V30 3668 H 343.157 -3.87212 -0.303527 0
M  V30 3669 H 344.889 -4.04503 -0.126358 0
M  V30 3670 H 341.644 -4.35143 1.86943 0
M  V30 3671 H 342.068 -5.18333 4.35499 0
M  V30 3672 H 346.71 -3.83287 1.78468 0
M  V30 3673 H 344.428 -5.51437 5.90713 0
M  V30 3674 H 348.014 -4.39781 3.80899 0
M  V30 3675 H 346.894 -5.22973 5.84353 0
M  V30 3676 N 344.397 -0.483516 -1.5 0
M  V30 3677 C 345.645 0.067027 -2.01989 0
M  V30 3678 C 345.966 1.3909 -1.36671 0
M  V30 3679 O 345.236 1.88978 -0.516152 0
M  V30 3680 H 343.816 0.0277606 -0.746484 0
M  V30 3681 H 346.478 -0.636773 -1.84204 0
M  V30 3682 H 345.574 0.209484 -3.11396 0
M  V30 3683 N 345.875 1.56104 -0.216619 0
M  V30 3684 C 346.807 2.17339 0.72776 0
M  V30 3685 C 347.82 1.14109 1.16116 0
M  V30 3686 O 349.009 1.4111 1.09317 0
M  V30 3687 C 346.109 2.73818 1.99693 0
M  V30 3688 C 345.282 4.02168 1.71988 0
M  V30 3689 C 344.341 4.43259 2.83562 0
M  V30 3690 O 343.367 5.10257 2.52244 0
M  V30 3691 N 344.569 4.08535 4.12407 0
M  V30 3692 H 347.334 2.99005 0.203983 0
M  V30 3693 H 344.895 1.61861 -0.0354289 0
M  V30 3694 H 346.887 2.9828 2.73516 0
M  V30 3695 H 345.457 1.96483 2.43132 0
M  V30 3696 H 344.677 3.85612 0.818337 0
M  V30 3697 H 345.965 4.85907 1.50903 0
M  V30 3698 H 345.363 3.54687 4.40696 0
M  V30 3699 H 343.92 4.37901 4.8279 0
M  V30 3700 N 347.353 -0.0568162 1.57498 0
M  V30 3701 C 348.583 -0.764515 1.91934 0
M  V30 3702 C 348.991 -1.70877 0.81227 0
M  V30 3703 O 348.334 -1.82351 -0.222213 0
M  V30 3704 C 348.396 -1.5994 3.21962 0
M  V30 3705 C 348.06 -0.822925 4.4953 0
M  V30 3706 C 349.057 -0.135464 5.19723 0
M  V30 3707 C 346.742 -0.785666 4.96117 0
M  V30 3708 C 348.736 0.578861 6.34766 0
M  V30 3709 C 346.423 -0.0675784 6.11063 0
M  V30 3710 C 347.421 0.613471 6.80239 0
M  V30 3711 O 347.109 1.31996 7.92989 0
M  V30 3712 H 346.841 -0.221647 0.63863 0
M  V30 3713 H 349.395 -0.0268218 2.05382 0
M  V30 3714 H 347.625 -2.38026 3.04763 0
M  V30 3715 H 349.314 -2.18715 3.41934 0
M  V30 3716 H 350.08 -0.155458 4.84751 0
M  V30 3717 H 345.959 -1.30524 4.42136 0
M  V30 3718 H 349.503 1.111 6.88696 0
M  V30 3719 H 345.4 -0.0455636 6.45484 0
M  V30 3720 H 346.168 1.23077 8.09194 0
M  V30 3721 N 348.832 -1.54138 -0.328536 0
M  V30 3722 C 350.081 -1.71318 -1.06456 0
M  V30 3723 C 350.394 -0.491109 -1.89334 0
M  V30 3724 O 351.6 -0.54416 -2.65991 0
M  V30 3725 C 350.056 -3.03 -1.94214 0
M  V30 3726 C 349.664 -4.32595 -1.16471 0
M  V30 3727 C 351.408 -3.29544 -2.67583 0
M  V30 3728 C 349.315 -5.55341 -2.03347 0
M  V30 3729 H 348.245 -0.638429 -0.401155 0
M  V30 3730 H 350.896 -1.80633 -0.323106 0
M  V30 3731 H 349.278 -2.87579 -2.72239 0
M  V30 3732 H 350.452 -4.58766 -0.432525 0
M  V30 3733 H 348.767 -4.12777 -0.548063 0
M  V30 3734 H 351.364 -4.18444 -3.3288 0
M  V30 3735 H 351.707 -2.47206 -3.34955 0
M  V30 3736 H 352.24 -3.45809 -1.96623 0
M  V30 3737 H 348.979 -6.40268 -1.40491 0
M  V30 3738 H 348.499 -5.33397 -2.74313 0
M  V30 3739 H 350.178 -5.91557 -2.62049 0
M  V30 3740 N 350.31 0.590341 -1.46126 0
M  V30 3741 C 351.587 1.35029 -1.41515 0
M  V30 3742 C 351.967 2.10888 -0.0946472 0
M  V30 3743 O 351.315 2.08998 0.923693 0
M  V30 3744 C 351.525 2.28269 -2.63997 0
M  V30 3745 C 352.873 2.90338 -3.09821 0
M  V30 3746 O 353.897 2.38585 -2.64492 0
M  V30 3747 O 352.756 3.84321 -3.88535 0
M  V30 3748 H 349.85 0.606317 -0.562413 0
M  V30 3749 H 352.396 0.611994 -1.58281 0
M  V30 3750 H 351.168 1.71591 -3.51671 0
M  V30 3751 H 350.791 3.0945 -2.49652 0
M  V30 3752 N 351.788 1.33704 0.83433 0
M  V30 3753 C 352.738 1.20899 1.93306 0
M  V30 3754 C 353.722 0.110783 1.60518 0
M  V30 3755 O 354.914 0.339331 1.73717 0
M  V30 3756 C 352.043 0.955018 3.29749 0
M  V30 3757 C 351.129 2.09587 3.68692 0
M  V30 3758 N 351.52 3.34621 3.79292 0
M  V30 3759 C 349.818 2.00358 3.98463 0
M  V30 3760 C 350.519 4.09472 4.13167 0
M  V30 3761 N 349.495 3.37954 4.25779 0
M  V30 3762 H 353.297 2.15665 1.99664 0
M  V30 3763 H 350.811 1.25777 1.02732 0
M  V30 3764 H 352.808 0.844208 4.08263 0
M  V30 3765 H 351.468 0.0159317 3.24696 0
M  V30 3766 H 352.479 3.69313 3.63082 0
M  V30 3767 H 349.156 1.14137 4.01596 0
M  V30 3768 H 350.546 5.17391 4.28668 0
M  V30 3769 N 353.266 -1.05314 1.17247 0
M  V30 3770 C 354.543 -1.75184 0.87005 0
M  V30 3771 C 354.923 -2.01481 -0.629965 0
M  V30 3772 O 354.271 -1.64988 -1.58086 0
M  V30 3773 C 354.481 -3.04594 1.70363 0
M  V30 3774 C 355.829 -3.78567 1.92281 0
M  V30 3775 O 356.853 -3.14461 1.67311 0
M  V30 3776 O 355.712 -4.93755 2.3424 0
M  V30 3777 H 352.806 -0.761729 0.322021 0
M  V30 3778 H 355.352 -1.11493 1.27935 0
M  V30 3779 H 354.124 -2.81201 2.72106 0
M  V30 3780 H 353.747 -3.76022 1.29202 0
M  V30 3781 N 354.744 -0.972509 -1.24016 0
M  V30 3782 C 355.993 -0.632603 -1.91523 0
M  V30 3783 C 356.306 0.836641 -1.76804 0
M  V30 3784 O 357.512 1.28728 -2.39043 0
M  V30 3785 C 355.968 -1.08082 -3.43287 0
M  V30 3786 C 355.576 -2.57386 -3.66683 0
M  V30 3787 C 357.32 -0.814288 -4.16617 0
M  V30 3788 C 355.227 -2.95915 -5.12043 0
M  V30 3789 H 354.157 -0.232898 -0.717129 0
M  V30 3790 H 356.808 -1.17936 -1.40582 0
M  V30 3791 H 355.19 -0.462339 -3.93292 0
M  V30 3792 H 356.364 -3.24405 -3.27258 0
M  V30 3793 H 354.679 -2.81701 -3.06649 0
M  V30 3794 H 357.276 -1.0781 -5.23718 0
M  V30 3795 H 357.619 0.24955 -4.15551 0
M  V30 3796 H 358.152 -1.39397 -3.72577 0
M  V30 3797 H 354.891 -4.0139 -5.18234 0
M  V30 3798 H 354.411 -2.33584 -5.52448 0
M  V30 3799 H 356.09 -2.86086 -5.80314 0
M  V30 3800 N 356.222 1.38976 -0.743202 0
M  V30 3801 C 357.185 2.28901 -0.117014 0
M  V30 3802 C 358.185 1.46698 0.658503 0
M  V30 3803 O 359.375 1.67274 0.486305 0
M  V30 3804 C 356.507 3.30309 0.84315 0
M  V30 3805 H 357.7 2.8578 -0.909373 0
M  V30 3806 H 355.253 1.47761 -0.509547 0
M  V30 3807 H 355.988 2.785 1.66157 0
M  V30 3808 H 355.773 3.91029 0.289594 0
M  V30 3809 H 357.263 3.97577 1.2776 0
M  V30 3810 N 357.7 0.491464 1.49741 0
M  V30 3811 C 358.947 -0.0564256 2.02421 0
M  V30 3812 C 359.275 -1.37872 1.37192 0
M  V30 3813 O 358.53 -1.89375 0.493508 0
M  V30 3814 C 358.829 -0.267329 3.56399 0
M  V30 3815 C 358.495 0.975775 4.40215 0
M  V30 3816 C 357.157 1.31655 4.62839 0
M  V30 3817 C 359.509 1.80251 4.89039 0
M  V30 3818 C 356.837 2.48375 5.31532 0
M  V30 3819 C 359.189 2.96116 5.59015 0
M  V30 3820 C 357.853 3.30585 5.79888 0
M  V30 3821 H 357.123 -0.0206476 0.740712 0
M  V30 3822 H 359.77 0.649686 1.80143 0
M  V30 3823 H 358.075 -1.05588 3.77304 0
M  V30 3824 H 359.772 -0.705549 3.94744 0
M  V30 3825 H 356.362 0.700315 4.2284 0
M  V30 3826 H 360.546 1.55239 4.71396 0
M  V30 3827 H 355.802 2.7533 5.45897 0
M  V30 3828 H 359.976 3.60509 5.95824 0
M  V30 3829 H 357.603 4.21132 6.32892 0
M  V30 3830 N 359.178 -1.55987 0.224894 0
M  V30 3831 C 360.406 -2.02784 -0.410665 0
M  V30 3832 C 360.821 -1.10464 -1.53112 0
M  V30 3833 O 360.178 -0.114871 -1.82138 0
M  V30 3834 C 360.229 -3.49087 -0.939165 0
M  V30 3835 O 359.95 -4.37887 0.136614 0
M  V30 3836 C 361.451 -4.11543 -1.64763 0
M  V30 3837 H 358.671 -0.663484 -0.100148 0
M  V30 3838 H 361.215 -2.01614 0.342326 0
M  V30 3839 H 359.37 -3.50861 -1.64242 0
M  V30 3840 H 359.784 -5.23849 -0.261155 0
M  V30 3841 H 361.258 -5.15673 -1.96939 0
M  V30 3842 H 361.735 -3.56736 -2.56195 0
M  V30 3843 H 362.341 -4.13629 -0.989503 0
M  V30 3844 N 360.656 0.0484629 -1.57525 0
M  V30 3845 C 362.067 0.597486 -1.76881 0
M  V30 3846 C 362.418 1.76664 -0.853475 0
M  V30 3847 O 361.543 2.16357 -0.0433656 0
M  V30 3848 C 362.138 1.09066 -3.20765 0
M  V30 3849 C 360.697 1.58535 -3.41385 0
M  V30 3850 C 359.844 0.514868 -2.72478 0
M  V30 3851 H 362.795 -0.177758 -1.57701 0
M  V30 3852 H 362.816 1.95875 -3.2621 0
M  V30 3853 H 362.328 0.239521 -3.8736 0
M  V30 3854 H 360.429 2.45898 -2.79937 0
M  V30 3855 H 360.542 1.64622 -4.49929 0
M  V30 3856 H 358.906 0.965407 -2.35695 0
M  V30 3857 H 359.689 -0.32648 -3.41744 0
M  V30 3858 N 362.134 1.5431 0.320358 0
M  V30 3859 C 363.066 1.80262 1.41556 0
M  V30 3860 C 364.079 0.684723 1.477 0
M  V30 3861 O 365.268 0.961886 1.50366 0
M  V30 3862 C 362.368 1.90825 2.8007 0
M  V30 3863 C 361.541 3.21023 2.97091 0
M  V30 3864 C 360.6 3.22247 4.15985 0
M  V30 3865 O 359.626 3.95871 4.08992 0
M  V30 3866 N 360.828 2.46258 5.25678 0
M  V30 3867 H 363.593 2.74778 1.19655 0
M  V30 3868 H 361.154 1.53646 0.510358 0
M  V30 3869 H 363.146 1.89067 3.57821 0
M  V30 3870 H 361.716 1.03392 2.95006 0
M  V30 3871 H 360.936 3.35715 2.06614 0
M  V30 3872 H 362.224 4.0698 3.05361 0
M  V30 3873 H 361.622 1.86037 5.34235 0
M  V30 3874 H 360.179 2.50275 6.01835 0
M  V30 3875 N 363.613 -0.582584 1.46437 0
M  V30 3876 C 364.838 -1.37168 1.55563 0
M  V30 3877 C 365.263 -1.87061 0.19743 0
M  V30 3878 O 364.621 -1.61572 -0.822451 0
M  V30 3879 C 364.669 -2.53511 2.56446 0
M  V30 3880 O 363.773 -3.54953 2.09958 0
M  V30 3881 H 363.114 -0.408494 0.523477 0
M  V30 3882 H 365.644 -0.706646 1.9201 0
M  V30 3883 H 365.654 -3.00426 2.76058 0
M  V30 3884 H 364.329 -2.16549 3.55076 0
M  V30 3885 H 362.906 -3.14516 2.00334 0
M  V30 3886 N 365.091 -1.34144 -0.827227 0
M  V30 3887 C 366.319 -1.29325 -1.61501 0
M  V30 3888 C 366.734 0.13354 -1.88327 0
M  V30 3889 O 366.091 1.0793 -1.47164 0
M  V30 3890 C 366.142 -2.07746 -2.95844 0
M  V30 3891 O 365.863 -3.4486 -2.70191 0
M  V30 3892 C 367.364 -2.10273 -3.90256 0
M  V30 3893 H 364.584 -0.445069 -0.50215 0
M  V30 3894 H 367.128 -1.76693 -1.02955 0
M  V30 3895 H 365.283 -1.6403 -3.5096 0
M  V30 3896 H 365.697 -3.85345 -3.55822 0
M  V30 3897 H 367.171 -2.69575 -4.81698 0
M  V30 3898 H 367.648 -1.096 -4.25305 0
M  V30 3899 H 368.254 -2.54059 -3.41078 0
M  V30 3900 N 366.569 1.04691 -1.17803 0
M  V30 3901 C 367.794 1.81984 -0.994813 0
M  V30 3902 C 368.219 1.82586 0.452112 0
M  V30 3903 O 367.577 1.23854 1.324 0
M  V30 3904 C 367.625 3.2575 -1.54659 0
M  V30 3905 O 366.729 4.05267 -0.763728 0
M  V30 3906 H 366.07 0.562483 -0.352857 0
M  V30 3907 H 368.6 1.3189 -1.56417 0
M  V30 3908 H 368.61 3.76541 -1.57102 0
M  V30 3909 H 367.285 3.24627 -2.59981 0
M  V30 3910 H 365.862 3.63972 -0.811108 0
M  V30 3911 N 368.047 0.979072 1.23499 0
M  V30 3912 C 368.994 0.517904 2.24914 0
M  V30 3913 C 369.964 -0.442525 1.60097 0
M  V30 3914 O 371.149 -0.350365 1.87556 0
M  V30 3915 C 368.289 -0.174813 3.44657 0
M  V30 3916 C 367.402 0.825721 4.24035 0
M  V30 3917 C 366.537 0.107946 5.3109 0
M  V30 3918 C 365.576 1.09778 6.02175 0
M  V30 3919 N 364.713 0.40925 7.00906 0
M  V30 3920 H 369.553 1.38751 2.63727 0
M  V30 3921 H 367.09 0.695303 1.2963 0
M  V30 3922 H 369.048 -0.593233 4.12961 0
M  V30 3923 H 367.678 -1.0083 3.06648 0
M  V30 3924 H 366.73 1.36253 3.55161 0
M  V30 3925 H 368.042 1.58005 4.73113 0
M  V30 3926 H 367.196 -0.367904 6.05583 0
M  V30 3927 H 365.935 -0.678994 4.8295 0
M  V30 3928 H 364.94 1.5844 5.26476 0
M  V30 3929 H 366.165 1.88536 6.52404 0
M  V30 3930 H 364.111 -0.358506 6.5502 0
M  V30 3931 H 364.028 1.10226 7.47921 0
M  V30 3932 H 365.296 -0.0442557 7.79487 0
M  V30 3933 N 369.525 -1.3858 0.750561 0
M  V30 3934 C 370.488 -2.28836 0.129152 0
M  V30 3935 C 371.488 -1.47045 -0.650714 0
M  V30 3936 O 372.678 -1.6753 -0.477428 0
M  V30 3937 C 369.81 -3.30751 -0.825622 0
M  V30 3938 H 371.003 -2.85294 0.924516 0
M  V30 3939 H 368.556 -1.47489 0.517376 0
M  V30 3940 H 369.291 -2.79378 -1.64677 0
M  V30 3941 H 369.076 -3.91177 -0.268852 0
M  V30 3942 H 370.566 -3.98249 -1.2565 0
M  V30 3943 N 371.003 -0.499398 -1.49478 0
M  V30 3944 C 371.966 0.268838 -2.27618 0
M  V30 3945 C 372.966 0.895383 -1.33565 0
M  V30 3946 O 374.156 0.760164 -1.56739 0
M  V30 3947 C 371.288 1.38559 -3.11471 0
M  V30 3948 H 372.481 -0.416812 -2.96989 0
M  V30 3949 H 370.034 -0.254313 -1.54217 0
M  V30 3950 H 370.769 2.10544 -2.46661 0
M  V30 3951 H 370.554 0.941797 -3.80621 0
M  V30 3952 H 372.044 1.92678 -3.70493 0
M  V30 3953 N 372.481 1.55866 -0.233164 0
M  V30 3954 C 373.728 1.98603 0.395374 0
M  V30 3955 C 374.056 1.12105 1.58942 0
M  V30 3956 O 373.311 0.168656 1.94972 0
M  V30 3957 C 373.61 3.46856 0.861724 0
M  V30 3958 C 373.276 4.50348 -0.223066 0
M  V30 3959 C 371.938 4.78371 -0.521038 0
M  V30 3960 C 374.29 5.12355 -0.956124 0
M  V30 3961 C 371.618 5.6568 -1.55638 0
M  V30 3962 C 373.97 6.00786 -1.98089 0
M  V30 3963 C 372.634 6.27148 -2.28565 0
M  V30 3964 H 371.904 0.726739 0.144677 0
M  V30 3965 H 374.551 1.88491 -0.338114 0
M  V30 3966 H 372.856 3.5423 1.67418 0
M  V30 3967 H 374.553 3.77302 1.35809 0
M  V30 3968 H 371.143 4.28596 0.0193234 0
M  V30 3969 H 375.327 4.90765 -0.739166 0
M  V30 3970 H 370.583 5.84365 -1.798 0
M  V30 3971 H 374.757 6.4788 -2.55391 0
M  V30 3972 H 372.384 6.94597 -3.08932 0
M  V30 3973 N 373.959 -0.0401083 1.57549 0
M  V30 3974 C 375.207 -0.731677 1.8839 0
M  V30 3975 C 375.528 -1.76481 0.829425 0
M  V30 3976 O 374.798 -1.95411 -0.1383 0
M  V30 3977 H 373.378 -0.273225 0.695239 0
M  V30 3978 H 376.04 -0.00867725 1.94898 0
M  V30 3979 H 375.136 -1.22816 2.86919 0
M  V30 3980 N 375.437 -1.54477 -0.31217 0
M  V30 3981 C 376.685 -1.72884 -1.04668 0
M  V30 3982 C 377.006 -0.511477 -1.88173 0
M  V30 3983 O 376.276 0.474407 -1.90069 0
M  V30 3984 H 374.856 -0.637461 -0.389425 0
M  V30 3985 H 377.518 -1.91807 -0.345852 0
M  V30 3986 H 376.614 -2.61334 -1.70619 0
M  V30 3987 N 376.915 0.57481 -1.46744 0
M  V30 3988 C 378.163 1.33009 -1.52161 0
M  V30 3989 C 378.484 1.94185 -0.178092 0
M  V30 3990 O 377.754 1.7899 0.796196 0
M  V30 3991 H 376.334 0.493873 -0.560445 0
M  V30 3992 H 378.996 0.672589 -1.82927 0
M  V30 3993 H 378.092 2.13273 -2.27862 0
M  V30 3994 N 378.394 1.34581 0.820102 0
M  V30 3995 C 379.357 1.2628 1.91275 0
M  V30 3996 C 380.357 0.177344 1.59819 0
M  V30 3997 O 381.547 0.430156 1.68806 0
M  V30 3998 C 378.679 0.950327 3.27386 0
M  V30 3999 H 379.872 2.23421 2.00057 0
M  V30 4000 H 377.425 1.1891 1.0144 0
M  V30 4001 H 378.16 -0.0177938 3.24295 0
M  V30 4002 H 377.945 1.73549 3.51601 0
M  V30 4003 H 379.435 0.917492 4.07396 0
M  V30 4004 N 379.872 -1.04064 1.18357 0
M  V30 4005 C 381.149 -1.74252 0.888581 0
M  V30 4006 C 381.529 -2.02138 -0.60856 0
M  V30 4007 O 380.877 -1.66656 -1.56327 0
M  V30 4008 C 381.087 -3.0277 1.73584 0
M  V30 4009 C 382.435 -3.76506 1.96286 0
M  V30 4010 O 383.459 -3.12668 1.70637 0
M  V30 4011 O 382.318 -4.91243 2.39464 0
M  V30 4012 H 379.412 -0.758271 0.330082 0
M  V30 4013 H 381.958 -1.1013 1.2911 0
M  V30 4014 H 380.73 -2.78299 2.75073 0
M  V30 4015 H 380.353 -3.74631 1.33183 0
M  V30 4016 N 381.35 -0.985608 -1.22978 0
M  V30 4017 C 382.59 -0.665487 -1.93263 0
M  V30 4018 C 382.954 0.78706 -1.75127 0
M  V30 4019 O 384.155 1.21826 -2.39608 0
M  V30 4020 C 382.426 -1.0515 -3.41582 0
M  V30 4021 S 383.985 -0.848637 -4.30516 0
M  V30 4022 H 380.803 -0.24355 -0.667985 0
M  V30 4023 H 383.405 -1.26635 -1.48942 0
M  V30 4024 H 382.109 -2.10517 -3.52293 0
M  V30 4025 H 381.64 -0.442134 -3.90908 0
M  V30 4026 H 383.655 0.264717 -4.95493 0
M  V30 4027 N 382.828 1.3818 -0.7579 0
M  V30 4028 C 383.76 2.2901 -0.0932177 0
M  V30 4029 C 384.773 1.47958 0.679136 0
M  V30 4030 O 385.962 1.70773 0.519514 0
M  V30 4031 C 383.062 3.26953 0.89192 0
M  V30 4032 C 382.235 4.37045 0.176303 0
M  V30 4033 C 381.294 5.15148 1.07281 0
M  V30 4034 O 380.32 5.66616 0.541728 0
M  V30 4035 N 381.522 5.28542 2.40049 0
M  V30 4036 H 384.287 2.86694 -0.873303 0
M  V30 4037 H 381.848 1.50007 -0.609054 0
M  V30 4038 H 383.84 3.76083 1.49479 0
M  V30 4039 H 382.41 2.70136 1.57306 0
M  V30 4040 H 381.63 3.89493 -0.607328 0
M  V30 4041 H 382.918 5.07801 -0.318718 0
M  V30 4042 H 382.316 4.88285 2.85647 0
M  V30 4043 H 380.873 5.8103 2.95376 0
M  V30 4044 N 384.306 0.507319 1.49211 0
M  V30 4045 C 385.239 -0.314509 2.26022 0
M  V30 4046 C 386.217 -0.964849 1.30879 0
M  V30 4047 O 387.401 -0.993707 1.6018 0
M  V30 4048 C 384.528 -1.44346 3.06402 0
M  V30 4049 C 383.574 -0.90685 4.16748 0
M  V30 4050 S 384.407 0.207392 5.35098 0
M  V30 4051 C 385.563 -0.924573 6.19033 0
M  V30 4052 H 385.796 0.337416 2.95379 0
M  V30 4053 H 383.329 0.292718 1.516 0
M  V30 4054 H 385.287 -2.09029 3.53295 0
M  V30 4055 H 383.948 -2.06702 2.36502 0
M  V30 4056 H 383.141 -1.75309 4.72528 0
M  V30 4057 H 382.743 -0.33712 3.72478 0
M  V30 4058 H 385.035 -1.82839 6.52362 0
M  V30 4059 H 385.978 -0.405248 7.06939 0
M  V30 4060 H 386.386 -1.19476 5.51712 0
M  V30 4061 N 385.784 -1.5574 0.241426 0
M  V30 4062 C 387.012 -2.03208 -0.389134 0
M  V30 4063 C 387.427 -1.12082 -1.51931 0
M  V30 4064 O 386.784 -0.134183 -1.82006 0
M  V30 4065 C 386.835 -3.50064 -0.902087 0
M  V30 4066 O 386.556 -4.37717 0.18305 0
M  V30 4067 C 388.057 -4.13268 -1.60389 0
M  V30 4068 H 385.277 -0.664509 -0.0931053 0
M  V30 4069 H 387.821 -2.0124 0.36369 0
M  V30 4070 H 385.976 -3.52583 -1.60511 0
M  V30 4071 H 386.39 -5.24097 -0.205579 0
M  V30 4072 H 387.864 -5.17733 -1.91458 0
M  V30 4073 H 388.341 -3.59434 -2.52397 0
M  V30 4074 H 388.947 -4.14655 -0.945576 0
M  V30 4075 N 387.262 0.0317525 -1.57568 0
M  V30 4076 C 388.502 0.727979 -1.90997 0
M  V30 4077 C 388.866 1.72664 -0.839708 0
M  V30 4078 O 390.067 2.47092 -1.05825 0
M  V30 4079 C 388.338 1.38239 -3.29583 0
M  V30 4080 S 389.897 2.10814 -3.84841 0
M  V30 4081 H 386.715 0.241226 -0.668828 0
M  V30 4082 H 389.317 -0.0173037 -1.95492 0
M  V30 4083 H 388.021 0.642288 -4.05343 0
M  V30 4084 H 387.552 2.16628 -3.28384 0
M  V30 4085 H 389.567 3.3792 -3.63352 0
M  V30 4086 N 388.74 1.54641 0.303973 0
M  V30 4087 C 389.65 1.88439 1.39743 0
M  V30 4088 C 390.666 0.778239 1.55626 0
M  V30 4089 O 391.842 1.07442 1.70347 0
M  V30 4090 C 388.907 2.12212 2.74166 0
M  V30 4091 C 387.968 3.35936 2.67293 0
M  V30 4092 C 387.201 3.58566 3.95305 0
M  V30 4093 O 387.424 2.84263 4.9452 0
M  V30 4094 O 386.358 4.52078 3.97378 0
M  V30 4095 H 390.184 2.81458 1.14083 0
M  V30 4096 H 387.769 1.40793 0.499768 0
M  V30 4097 H 389.651 2.29067 3.53704 0
M  V30 4098 H 388.326 1.22379 2.99675 0
M  V30 4099 H 387.233 3.24448 1.86237 0
M  V30 4100 H 388.566 4.2589 2.46736 0
M  V30 4101 N 390.218 -0.567019 1.47046 0
M  V30 4102 C 391.166 -1.69593 1.59188 0
M  V30 4103 C 392.16 -1.63046 0.459609 0
M  V30 4104 O 393.366 -1.6835 0.637058 0
M  V30 4105 H 389.741 -0.560993 0.500791 0
M  V30 4106 H 391.712 -1.56488 2.54075 0
M  V30 4107 C 390.461 -3.07964 1.61411 0
M  V30 4108 H 389.784 -3.13679 2.47881 0
M  V30 4109 H 391.224 -3.86671 1.73958 0
M  V30 4110 C 389.683 -3.35123 0.34559 0
M  V30 4111 O 390.213 -3.97812 -0.557521 0
M  V30 4112 N 388.419 -2.89699 0.22864 0
M  V30 4113 H 387.966 -2.38863 0.964479 0
M  V30 4114 H 387.924 -3.08242 -0.619192 0
M  V30 4115 N 391.696 -1.35014 -0.812953 0
M  V30 4116 C 392.628 -1.23262 -1.93233 0
M  V30 4117 C 393.641 -0.157371 -1.62038 0
M  V30 4118 O 394.83 -0.410096 -1.73725 0
M  V30 4119 C 391.93 -0.87392 -3.27438 0
M  V30 4120 C 391.103 -2.04622 -3.86586 0
M  V30 4121 C 390.162 -1.66432 -4.99186 0
M  V30 4122 O 389.188 -2.38222 -5.16951 0
M  V30 4123 N 390.39 -0.584248 -5.77552 0
M  V30 4124 H 393.155 -2.19699 -2.03844 0
M  V30 4125 H 390.716 -1.281 -0.99005 0
M  V30 4126 H 392.708 -0.600039 -4.00227 0
M  V30 4127 H 391.278 0.00057392 -3.126 0
M  V30 4128 H 390.498 -2.48427 -3.06068 0
M  V30 4129 H 391.786 -2.82999 -4.22835 0
M  V30 4130 H 391.184 0.0123526 -5.65699 0
M  V30 4131 H 389.741 -0.37013 -6.50748 0
M  V30 4132 N 393.175 1.03435 -1.18907 0
M  V30 4133 C 394.123 2.13703 -0.918353 0
M  V30 4134 C 395.117 1.68947 0.123767 0
M  V30 4135 O 396.323 1.79983 -0.0249701 0
M  V30 4136 H 392.698 0.698112 -0.279542 0
M  V30 4137 H 394.669 2.33731 -1.85506 0
M  V30 4138 C 393.418 3.44542 -0.467532 0
M  V30 4139 H 392.741 3.79394 -1.26095 0
M  V30 4140 H 394.181 4.22812 -0.317164 0
M  V30 4141 C 392.64 3.26829 0.817588 0
M  V30 4142 O 393.17 3.54975 1.88031 0
M  V30 4143 N 391.376 2.80139 0.772677 0
M  V30 4144 H 390.923 2.57434 -0.0923883 0
M  V30 4145 H 390.881 2.68668 1.63294 0
M  V30 4146 N 394.653 0.992116 1.22453 0
M  V30 4147 C 396.064 0.702776 1.72968 0
M  V30 4148 C 396.415 -0.780399 1.80012 0
M  V30 4149 O 395.54 -1.61007 1.44589 0
M  V30 4150 C 396.135 1.26903 3.14135 0
M  V30 4151 C 394.694 1.02909 3.62059 0
M  V30 4152 C 393.841 1.38969 2.39964 0
M  V30 4153 H 396.792 1.16457 1.07812 0
M  V30 4154 H 396.813 0.647223 3.74955 0
M  V30 4155 H 396.325 2.34851 3.08977 0
M  V30 4156 H 394.426 -0.0337979 3.72585 0
M  V30 4157 H 394.539 1.69191 4.48231 0
M  V30 4158 H 392.903 0.808279 2.41535 0
M  V30 4159 H 393.686 2.4792 2.37467 0
M  V30 4160 N 396.131 -1.37776 0.765217 0
M  V30 4161 C 397.371 -2.01691 0.331669 0
M  V30 4162 C 397.735 -1.59432 -1.06983 0
M  V30 4163 O 398.936 -2.15761 -1.60314 0
M  V30 4164 C 397.207 -3.54385 0.463261 0
M  V30 4165 S 398.766 -4.38652 0.114011 0
M  V30 4166 H 395.584 -0.699387 0.127979 0
M  V30 4167 H 398.186 -1.68084 0.998396 0
M  V30 4168 H 396.89 -3.82629 1.48401 0
M  V30 4169 H 396.421 -3.92783 -0.220246 0
M  V30 4170 H 398.436 -4.84021 -1.09261 0
M  V30 4171 N 397.609 -0.515225 -1.4894 0
M  V30 4172 C 398.856 0.024215 -2.02486 0
M  V30 4173 C 399.184 1.35671 -1.39368 0
M  V30 4174 O 398.439 1.88566 -0.523574 0
M  V30 4175 C 398.738 0.210595 -3.56779 0
M  V30 4176 C 398.404 -1.04569 -4.38607 0
M  V30 4177 C 397.066 -1.39002 -4.60686 0
M  V30 4178 C 399.418 -1.88008 -4.86109 0
M  V30 4179 C 396.746 -2.568 -5.27514 0
M  V30 4180 C 399.098 -3.04972 -5.54234 0
M  V30 4181 C 397.762 -3.39768 -5.74555 0
M  V30 4182 H 397.032 0.00886088 -0.740947 0
M  V30 4183 H 399.679 -0.678263 -1.79086 0
M  V30 4184 H 397.984 0.99572 -3.78936 0
M  V30 4185 H 399.681 0.642659 -3.95817 0
M  V30 4186 H 396.271 -0.767497 -4.21672 0
M  V30 4187 H 400.455 -1.62719 -4.68867 0
M  V30 4188 H 395.711 -2.8398 -5.41447 0
M  V30 4189 H 399.885 -3.69943 -5.90013 0
M  V30 4190 H 397.512 -4.31148 -6.26112 0
M  V30 4191 N 399.087 1.5561 -0.249682 0
M  V30 4192 C 400.498 1.84979 0.252949 0
M  V30 4193 C 400.849 1.17153 1.57384 0
M  V30 4194 O 399.974 0.450884 2.11651 0
M  V30 4195 C 400.569 3.35584 0.465732 0
M  V30 4196 C 399.128 3.65169 0.912624 0
M  V30 4197 C 398.275 2.77299 -0.00859085 0
M  V30 4198 H 401.226 1.51513 -0.47217 0
M  V30 4199 H 401.247 3.57313 1.30795 0
M  V30 4200 H 400.759 3.8492 -0.49579 0
M  V30 4201 H 398.86 3.21312 1.88652 0
M  V30 4202 H 398.973 4.72912 0.767559 0
M  V30 4203 H 397.337 2.49678 0.50327 0
M  V30 4204 H 398.12 3.29442 -0.965537 0
M  V30 4205 N 400.565 -0.0233959 1.57583 0
M  V30 4206 C 401.814 -0.712133 1.8871 0
M  V30 4207 C 402.127 -1.76217 0.848944 0
M  V30 4208 O 403.333 -2.50389 1.04964 0
M  V30 4209 C 401.789 -1.3177 3.3491 0
M  V30 4210 C 401.397 -0.303715 4.46969 0
M  V30 4211 C 403.141 -1.98598 3.75179 0
M  V30 4212 C 401.048 -0.917945 5.84233 0
M  V30 4213 H 399.978 -0.269735 0.704101 0
M  V30 4214 H 402.629 0.0333114 1.8347 0
M  V30 4215 H 401.011 -2.11304 3.34913 0
M  V30 4216 H 402.185 0.465325 4.58445 0
M  V30 4217 H 400.5 0.2628 4.1557 0
M  V30 4218 H 403.097 -2.45416 4.75053 0
M  V30 4219 H 403.44 -2.80659 3.07468 0
M  V30 4220 H 403.973 -1.25831 3.77374 0
M  V30 4221 H 400.712 -0.136633 6.55358 0
M  V30 4222 H 400.232 -1.65669 5.76467 0
M  V30 4223 H 401.911 -1.4236 6.31144 0
M  V30 4224 N 402.043 -1.548 -0.295768 0
M  V30 4225 C 402.975 -1.82492 -1.3867 0
M  V30 4226 C 403.988 -0.708134 -1.46592 0
M  V30 4227 O 405.177 -0.985686 -1.48817 0
M  V30 4228 C 402.277 -1.95256 -2.76999 0
M  V30 4229 C 401.45 -3.25709 -2.91946 0
M  V30 4230 C 400.509 -3.28824 -4.10806 0
M  V30 4231 O 399.535 -4.02328 -4.02643 0
M  V30 4232 N 400.737 -2.5459 -5.21694 0
M  V30 4233 H 403.502 -2.76646 -1.15269 0
M  V30 4234 H 401.063 -1.54438 -0.485849 0
M  V30 4235 H 403.055 -1.94736 -3.54768 0
M  V30 4236 H 401.625 -1.08072 -2.93324 0
M  V30 4237 H 400.845 -3.38959 -2.01247 0
M  V30 4238 H 402.133 -4.11786 -2.98847 0
M  V30 4239 H 401.531 -1.94512 -5.31208 0
M  V30 4240 H 400.088 -2.59818 -5.97778 0
M  V30 4241 N 403.521 0.559213 -1.47345 0
M  V30 4242 C 404.451 1.67622 -1.62558 0
M  V30 4243 C 405.432 1.63331 -0.475087 0
M  V30 4244 O 406.617 1.80983 -0.704182 0
M  V30 4245 C 403.747 3.0626 -1.63774 0
M  V30 4246 C 402.701 3.25397 -2.7803 0
M  V30 4247 C 402.027 4.64801 -2.64318 0
M  V30 4248 C 403.327 3.10965 -4.19641 0
M  V30 4249 H 405.021 1.55146 -2.56067 0
M  V30 4250 H 402.567 0.744961 -1.23233 0
M  V30 4251 H 404.52 3.84247 -1.73008 0
M  V30 4252 H 403.244 3.1969 -0.66825 0
M  V30 4253 H 401.903 2.49817 -2.68304 0
M  V30 4254 H 401.551 4.75028 -1.65401 0
M  V30 4255 H 401.251 4.78555 -3.40968 0
M  V30 4256 H 402.775 5.44926 -2.75478 0
M  V30 4257 H 404.189 3.78772 -4.30354 0
M  V30 4258 H 402.586 3.36229 -4.97062 0
M  V30 4259 H 403.656 2.07736 -4.38148 0
M  V30 4260 N 404.999 1.35443 0.805782 0
M  V30 4261 C 406.41 1.25768 1.37983 0
M  V30 4262 C 406.761 -0.10958 1.95894 0
M  V30 4263 O 405.886 -1.01056 1.91355 0
M  V30 4264 C 406.481 2.27727 2.5085 0
M  V30 4265 C 405.04 2.2179 3.04115 0
M  V30 4266 C 404.187 2.13393 1.77084 0
M  V30 4267 H 407.138 1.4656 0.608752 0
M  V30 4268 H 407.159 1.90422 3.29424 0
M  V30 4269 H 406.671 3.27227 2.08671 0
M  V30 4270 H 404.772 1.25703 3.50756 0
M  V30 4271 H 404.885 3.13788 3.62042 0
M  V30 4272 H 403.249 1.59384 1.98668 0
M  V30 4273 H 404.032 3.14755 1.37056 0
M  V30 4274 N 406.477 -1.02803 1.19454 0
M  V30 4275 C 407.387 -2.14575 0.948408 0
M  V30 4276 C 408.403 -1.73757 -0.091871 0
M  V30 4277 O 409.579 -2.01185 0.0929654 0
M  V30 4278 C 406.644 -3.43202 0.491265 0
M  V30 4279 C 405.705 -3.98328 1.60103 0
M  V30 4280 C 404.938 -5.20816 1.16561 0
M  V30 4281 O 405.161 -5.70392 0.0295238 0
M  V30 4282 O 404.095 -5.68801 1.96849 0
M  V30 4283 H 407.921 -2.38202 1.88397 0
M  V30 4284 H 405.506 -1.12989 0.977433 0
M  V30 4285 H 407.388 -4.20687 0.245015 0
M  V30 4286 H 406.063 -3.21018 -0.415851 0
M  V30 4287 H 404.97 -3.22174 1.90144 0
M  V30 4288 H 406.303 -4.24879 2.48473 0
M  V30 4289 N 407.956 -0.998596 -1.21925 0
M  V30 4290 C 408.866 -0.562736 -2.27751 0
M  V30 4291 C 409.882 0.391203 -1.69545 0
M  V30 4292 O 411.058 0.256625 -1.99758 0
M  V30 4293 C 408.123 0.11012 -3.46525 0
M  V30 4294 C 407.184 -0.887495 -4.20026 0
M  V30 4295 C 406.417 -0.246654 -5.3313 0
M  V30 4296 O 406.64 0.958088 -5.62296 0
M  V30 4297 O 405.574 -0.954374 -5.94286 0
M  V30 4298 H 409.4 -1.44329 -2.67213 0
M  V30 4299 H 406.985 -0.767135 -1.28201 0
M  V30 4300 H 408.867 0.486756 -4.18579 0
M  V30 4301 H 407.542 0.965154 -3.08976 0
M  V30 4302 H 406.449 -1.31517 -3.5022 0
M  V30 4303 H 407.782 -1.71191 -4.6147 0
M  V30 4304 N 409.434 1.37368 -0.772513 0
M  V30 4305 C 410.397 2.28601 -0.165541 0
M  V30 4306 C 411.397 1.48062 0.627238 0
M  V30 4307 O 412.587 1.68268 0.450715 0
M  V30 4308 C 409.719 3.32023 0.772897 0
M  V30 4309 H 410.912 2.83787 -0.969787 0
M  V30 4310 H 408.465 1.46647 -0.540775 0
M  V30 4311 H 409.2 2.81962 1.60212 0
M  V30 4312 H 408.985 3.91555 0.206585 0
M  V30 4313 H 410.475 4.00197 1.19298 0
M  V30 4314 N 410.912 0.523116 1.48665 0
M  V30 4315 C 412.328 0.180511 1.58576 0
M  V30 4316 C 412.528 -1.31597 1.52592 0
M  V30 4317 O 411.584 -2.0937 1.4114 0
M  V30 4318 C 412.897 0.776949 2.90489 0
M  V30 4319 C 414.445 0.745058 3.04003 0
M  V30 4320 C 414.92 1.31995 4.38567 0
M  V30 4321 N 416.411 1.28162 4.45117 0
M  V30 4322 C 417.146 1.6964 5.47731 0
M  V30 4323 N 416.642 2.18816 6.57337 0
M  V30 4324 N 418.435 1.6092 5.38573 0
M  V30 4325 H 410.586 1.4958 1.50797 0
M  V30 4326 H 412.849 0.621772 0.715614 0
M  V30 4327 H 412.555 1.82732 3.00503 0
M  V30 4328 H 412.429 0.25007 3.7637 0
M  V30 4329 H 414.816 -0.296532 2.93606 0
M  V30 4330 H 414.897 1.30933 2.1975 0
M  V30 4331 H 414.541 2.36043 4.49718 0
M  V30 4332 H 414.471 0.731418 5.21496 0
M  V30 4333 H 416.962 0.92155 3.66491 0
M  V30 4334 H 417.275 2.48478 7.31764 0
M  V30 4335 H 415.62 2.22805 6.58318 0
M  V30 4336 H 418.811 1.22304 4.5184 0
M  V30 4337 H 418.984 1.93567 6.18414 0
M  V30 4338 N 412.39 -1.55475 0.257931 0
M  V30 4339 C 413.801 -1.8511 -0.243135 0
M  V30 4340 C 414.152 -1.17986 -1.5676 0
M  V30 4341 O 413.277 -0.462102 -2.11409 0
M  V30 4342 C 413.872 -3.35826 -0.447929 0
M  V30 4343 C 412.431 -3.65647 -0.893245 0
M  V30 4344 C 411.578 -2.7729 0.0232965 0
M  V30 4345 H 414.529 -1.51261 0.480199 0
M  V30 4346 H 414.55 -3.58002 -1.28898 0
M  V30 4347 H 414.062 -3.84652 0.516196 0
M  V30 4348 H 412.163 -3.22308 -1.86945 0
M  V30 4349 H 412.276 -4.73312 -0.742469 0
M  V30 4350 H 410.64 -2.49942 -0.490021 0
M  V30 4351 H 411.423 -3.28926 0.982994 0
M  V30 4352 N 413.868 0.0150385 -1.57593 0
M  V30 4353 C 414.831 0.995996 -2.06428 0
M  V30 4354 C 415.831 1.2818 -0.970903 0
M  V30 4355 O 417.021 1.22949 -1.23406 0
M  V30 4356 C 414.153 2.32506 -2.49307 0
M  V30 4357 H 415.346 0.573873 -2.94358 0
M  V30 4358 H 412.899 0.262186 -1.54085 0
M  V30 4359 H 413.634 2.79438 -1.64575 0
M  V30 4360 H 413.419 2.13087 -3.29145 0
M  V30 4361 H 414.909 3.02906 -2.87468 0
M  V30 4362 N 415.346 1.54954 0.287554 0
M  V30 4363 C 416.309 1.86076 1.33823 0
M  V30 4364 C 417.309 0.734414 1.43049 0
M  V30 4365 O 418.499 1.00266 1.42452 0
M  V30 4366 C 415.631 2.05305 2.72144 0
M  V30 4367 H 416.824 2.79984 1.07465 0
M  V30 4368 H 414.377 1.47223 0.524902 0
M  V30 4369 H 415.112 1.1373 3.03704 0
M  V30 4370 H 414.897 2.873 2.66836 0
M  V30 4371 H 416.387 2.30706 3.48087 0
M  V30 4372 N 416.824 -0.551391 1.4764 0
M  V30 4373 C 418.072 -1.30572 1.54258 0
M  V30 4374 C 418.393 -1.93877 0.208963 0
M  V30 4375 O 417.663 -1.80234 -0.767619 0
M  V30 4376 H 416.243 -0.484894 0.568231 0
M  V30 4377 H 418.905 -0.643402 1.83974 0
M  V30 4378 H 418.001 -2.09621 2.31226 0
M  V30 4379 N 418.302 -1.35869 -0.798587 0
M  V30 4380 C 419.53 -1.32722 -1.58722 0
M  V30 4381 C 419.945 0.0935631 -1.88568 0
M  V30 4382 O 419.302 1.04784 -1.49421 0
M  V30 4383 C 419.353 -2.13974 -2.91371 0
M  V30 4384 O 419.074 -3.50514 -2.62815 0
M  V30 4385 C 420.575 -2.18504 -3.85708 0
M  V30 4386 H 417.795 -0.45562 -0.492596 0
M  V30 4387 H 420.339 -1.78837 -0.991843 0
M  V30 4388 H 418.494 -1.71438 -3.47402 0
M  V30 4389 H 418.908 -3.92806 -3.47568 0
M  V30 4390 H 420.382 -2.79732 -4.75872 0
M  V30 4391 H 420.859 -1.18597 -4.22885 0
M  V30 4392 H 421.465 -2.61236 -3.35612 0
M  V30 4393 N 419.78 1.02168 -1.19998 0
M  V30 4394 C 420.743 2.08765 -0.94604 0
M  V30 4395 C 421.743 1.60618 0.0763846 0
M  V30 4396 O 422.933 1.73472 -0.159135 0
M  V30 4397 C 420.065 3.38262 -0.423255 0
M  V30 4398 H 421.258 2.32726 -1.89153 0
M  V30 4399 H 418.811 1.1889 -1.01464 0
M  V30 4400 H 419.546 3.19974 0.527938 0
M  V30 4401 H 419.331 3.74532 -1.16053 0
M  V30 4402 H 420.821 4.16759 -0.264911 0
M  V30 4403 N 421.258 1.00505 1.21394 0
M  V30 4404 C 422.498 0.696149 1.9218 0
M  V30 4405 C 422.862 -0.759099 1.76357 0
M  V30 4406 O 424.063 -1.17998 2.41516 0
M  V30 4407 C 422.334 1.10571 3.39866 0
M  V30 4408 S 423.893 0.91702 4.29111 0
M  V30 4409 H 420.711 0.254147 0.664026 0
M  V30 4410 H 423.313 1.28988 1.46909 0
M  V30 4411 H 422.017 2.16096 3.489 0
M  V30 4412 H 421.548 0.504268 3.90155 0
M  V30 4413 H 423.563 -0.185855 4.95852 0
M  V30 4414 N 422.737 -1.36956 0.779787 0
M  V30 4415 C 423.667 -2.32761 0.185651 0
M  V30 4416 C 424.648 -1.56177 -0.673989 0
M  V30 4417 O 425.833 -1.84378 -0.609797 0
M  V30 4418 C 422.963 -3.40418 -0.687964 0
M  V30 4419 C 421.917 -4.27941 0.0710102 0
M  V30 4420 C 421.243 -5.26681 -0.922573 0
M  V30 4421 C 422.543 -5.07006 1.25467 0
M  V30 4422 H 424.237 -2.82698 0.986008 0
M  V30 4423 H 421.783 -1.3592 0.475592 0
M  V30 4424 H 423.736 -4.06423 -1.11348 0
M  V30 4425 H 422.46 -2.89025 -1.52093 0
M  V30 4426 H 421.119 -3.63478 0.47739 0
M  V30 4427 H 420.767 -4.71565 -1.7503 0
M  V30 4428 H 420.467 -5.86103 -0.419237 0
M  V30 4429 H 421.991 -5.9556 -1.34686 0
M  V30 4430 H 423.405 -5.66105 0.905401 0
M  V30 4431 H 421.802 -5.75793 1.69063 0
M  V30 4432 H 422.872 -4.3921 2.05481 0
M  V30 4433 N 424.215 -0.530993 -1.48385 0
M  V30 4434 C 425.626 -0.0907905 -1.86479 0
M  V30 4435 C 425.977 1.33213 -1.44044 0
M  V30 4436 O 425.102 1.99783 -0.831615 0
M  V30 4437 C 425.697 -0.157987 -3.38431 0
M  V30 4438 C 424.256 0.227026 -3.75715 0
M  V30 4439 C 423.403 -0.5173 -2.72432 0
M  V30 4440 H 426.354 -0.742186 -1.40276 0
M  V30 4441 H 426.375 0.630053 -3.75247 0
M  V30 4442 H 425.887 -1.19372 -3.69286 0
M  V30 4443 H 423.988 1.26486 -3.50474 0
M  V30 4444 H 424.101 -0.113288 -4.78966 0
M  V30 4445 H 422.465 0.0365527 -2.54674 0
M  V30 4446 H 423.248 -1.55368 -3.0613 0
M  V30 4447 N 425.693 1.55336 -0.266172 0
M  V30 4448 C 426.94 1.99397 0.353158 0
M  V30 4449 C 427.268 1.15451 1.56529 0
M  V30 4450 O 426.523 0.209974 1.9457 0
M  V30 4451 C 426.822 3.48606 0.787957 0
M  V30 4452 C 426.488 4.49773 -0.318541 0
M  V30 4453 C 425.15 4.77158 -0.62239 0
M  V30 4454 C 427.502 5.10212 -1.06459 0
M  V30 4455 C 424.83 5.62251 -1.67602 0
M  V30 4456 C 427.182 5.96449 -2.10788 0
M  V30 4457 C 425.846 6.22158 -2.41817 0
M  V30 4458 H 425.116 0.729644 0.12923 0
M  V30 4459 H 427.763 1.87732 -0.37802 0
M  V30 4460 H 426.068 3.57701 1.59866 0
M  V30 4461 H 427.765 3.80098 1.27775 0
M  V30 4462 H 424.355 4.2854 -0.0715925 0
M  V30 4463 H 428.539 4.89086 -0.843098 0
M  V30 4464 H 423.795 5.80419 -1.92155 0
M  V30 4465 H 427.969 6.42317 -2.69076 0
M  V30 4466 H 425.596 6.87888 -3.23596 0
M  V30 4467 N 427.171 -0.0066808 1.57599 0
M  V30 4468 C 428.401 -0.703066 1.94269 0
M  V30 4469 C 428.809 -1.68206 0.866222 0
M  V30 4470 O 428.152 -1.82966 -0.164087 0
M  V30 4471 C 428.214 -1.49616 3.26887 0
M  V30 4472 C 427.878 -0.679494 4.5192 0
M  V30 4473 C 428.875 0.0299508 5.19891 0
M  V30 4474 C 426.56 -0.627433 4.98366 0
M  V30 4475 C 428.554 0.780514 6.32603 0
M  V30 4476 C 426.241 0.126861 6.10968 0
M  V30 4477 C 427.239 0.829574 6.77943 0
M  V30 4478 O 426.927 1.57157 7.88389 0
M  V30 4479 H 426.659 -0.201217 0.645359 0
M  V30 4480 H 429.213 0.0385326 2.05364 0
M  V30 4481 H 427.443 -2.28209 3.12182 0
M  V30 4482 H 429.132 -2.07726 3.48719 0
M  V30 4483 H 429.898 -0.00115963 4.85 0
M  V30 4484 H 425.777 -1.16392 4.46065 0
M  V30 4485 H 429.321 1.32954 6.84813 0
M  V30 4486 H 425.218 0.159815 6.45302 0
M  V30 4487 H 425.986 1.48758 8.04868 0
M  V30 4488 N 428.649 -1.55105 -0.279332 0
M  V30 4489 C 430.065 -1.46803 -0.626187 0
M  V30 4490 C 430.265 -0.676939 -1.89789 0
M  V30 4491 O 429.321 -0.19326 -2.51759 0
M  V30 4492 C 430.634 -2.90962 -0.759034 0
M  V30 4493 C 432.182 -3.01138 -0.853504 0
M  V30 4494 C 432.657 -4.46539 -1.01818 0
M  V30 4495 N 434.148 -4.50341 -1.08386 0
M  V30 4496 C 434.883 -5.60053 -1.22996 0
M  V30 4497 N 434.379 -6.79645 -1.34366 0
M  V30 4498 N 436.172 -5.47783 -1.26056 0
M  V30 4499 H 428.323 -2.04996 0.555921 0
M  V30 4500 H 430.586 -0.929325 0.187239 0
M  V30 4501 H 430.292 -3.51544 0.104852 0
M  V30 4502 H 430.166 -3.39619 -1.64131 0
M  V30 4503 H 432.553 -2.40658 -1.70786 0
M  V30 4504 H 432.634 -2.55745 0.0532466 0
M  V30 4505 H 432.278 -5.0762 -0.168504 0
M  V30 4506 H 432.208 -4.89583 -1.93948 0
M  V30 4507 H 434.699 -3.64191 -1.00864 0
M  V30 4508 H 435.012 -7.59012 -1.4533 0
M  V30 4509 H 433.357 -6.82469 -1.31382 0
M  V30 4510 H 436.548 -4.53294 -1.168 0
M  V30 4511 H 436.721 -6.33331 -1.37098 0
M  V30 4512 N 430.127 0.543554 -1.4793 0
M  V30 4513 C 431.352 1.32995 -1.59145 0
M  V30 4514 C 431.777 1.86472 -0.246956 0
M  V30 4515 O 431.135 1.63696 0.779324 0
M  V30 4516 C 431.183 2.46623 -2.63077 0
M  V30 4517 O 430.287 3.49261 -2.19295 0
M  V30 4518 H 429.628 0.394472 -0.534124 0
M  V30 4519 H 432.158 0.655489 -1.93816 0
M  V30 4520 H 432.168 2.93001 -2.83926 0
M  V30 4521 H 430.843 2.07059 -3.60693 0
M  V30 4522 H 429.42 3.09094 -2.08603 0
M  V30 4523 N 431.605 1.3629 0.791371 0
M  V30 4524 C 432.83 1.33726 1.58531 0
M  V30 4525 C 433.255 -0.0794933 1.87932 0
M  V30 4526 O 432.613 -1.05087 1.47738 0
M  V30 4527 C 432.661 2.16425 2.88431 0
M  V30 4528 O 431.765 1.5554 3.81944 0
M  V30 4529 H 431.106 0.457793 0.480959 0
M  V30 4530 H 433.636 1.79547 0.981031 0
M  V30 4531 H 433.646 2.28933 3.37718 0
M  V30 4532 H 432.321 3.19415 2.66359 0
M  V30 4533 H 430.898 1.51961 3.40532 0
M  V30 4534 N 433.083 -1.0153 1.20538 0
M  V30 4535 C 434.046 -2.0826 0.957098 0
M  V30 4536 C 435.046 -1.60657 -0.0678655 0
M  V30 4537 O 436.236 -1.73385 0.168332 0
M  V30 4538 C 433.368 -3.38033 0.441188 0
M  V30 4539 H 434.561 -2.31719 1.90384 0
M  V30 4540 H 432.114 -1.1835 1.02093 0
M  V30 4541 H 432.849 -3.20249 -0.510961 0
M  V30 4542 H 432.634 -3.73911 1.18038 0
M  V30 4543 H 434.124 -4.16613 0.287009 0
M  V30 4544 N 434.561 -1.01147 -1.20859 0
M  V30 4545 C 435.524 -0.582224 -2.21682 0
M  V30 4546 C 436.524 0.344887 -1.57058 0
M  V30 4547 O 437.714 0.134281 -1.73682 0
M  V30 4548 C 434.846 0.150496 -3.40568 0
M  V30 4549 H 436.039 -1.47408 -2.61172 0
M  V30 4550 H 433.592 -0.800695 -1.34233 0
M  V30 4551 H 434.327 1.0575 -3.06574 0
M  V30 4552 H 434.112 -0.515444 -3.88697 0
M  V30 4553 H 435.602 0.438344 -4.15293 0
M  V30 4554 N 436.039 1.36541 -0.78704 0
M  V30 4555 C 437.279 2.01138 -0.363714 0
M  V30 4556 C 437.643 1.61114 1.04433 0
M  V30 4557 O 438.844 2.18285 1.56861 0
M  V30 4558 C 437.115 3.53603 -0.519582 0
M  V30 4559 S 438.674 4.38415 -0.183782 0
M  V30 4560 H 435.492 0.697263 -0.13909 0
M  V30 4561 H 438.094 1.66475 -1.02501 0
M  V30 4562 H 436.798 3.8022 -1.5447 0
M  V30 4563 H 436.329 3.93084 0.15773 0
M  V30 4564 H 438.344 4.85698 1.01547 0
M  V30 4565 N 437.518 0.538854 1.48102 0
M  V30 4566 C 438.766 0.00798599 2.02098 0
M  V30 4567 C 439.087 -1.33922 1.41739 0
M  V30 4568 O 438.357 -1.86932 0.585934 0
M  V30 4569 H 436.937 -3.62179e-05 0.747 0
M  V30 4570 H 439.599 0.7047 1.81714 0
M  V30 4571 H 438.695 -0.0937672 3.11959 0
M  V30 4572 N 438.996 -1.55193 0.274407 0
M  V30 4573 C 440.224 -2.03987 -0.345943 0
M  V30 4574 C 440.639 -1.15279 -1.4952 0
M  V30 4575 O 439.996 -0.172759 -1.8168 0
M  V30 4576 C 440.047 -3.51898 -0.827631 0
M  V30 4577 O 439.768 -4.37231 0.275855 0
M  V30 4578 C 441.269 -4.16577 -1.51587 0
M  V30 4579 H 438.489 -0.666335 -0.0789892 0
M  V30 4580 H 441.033 -2.00423 0.406294 0
M  V30 4581 H 439.188 -3.55909 -1.52996 0
M  V30 4582 H 439.602 -5.24415 -0.0943638 0
M  V30 4583 H 441.076 -5.21678 -1.80433 0
M  V30 4584 H 441.553 -3.64707 -2.44716 0
M  V30 4585 H 442.159 -4.16568 -0.857409 0
M  V30 4586 N 440.474 -0.00167713 -1.576 0
M  V30 4587 C 441.722 0.681471 -1.90264 0
M  V30 4588 C 442.043 1.7422 -0.875924 0
M  V30 4589 O 441.313 1.95709 0.0864412 0
M  V30 4590 H 439.893 0.254696 -0.702239 0
M  V30 4591 H 442.555 -0.0429996 -1.94853 0
M  V30 4592 H 441.651 1.15166 -2.90075 0
M  V30 4593 N 441.952 1.55251 0.271103 0
M  V30 4594 C 443.229 1.66664 1.02384 0
M  V30 4595 C 443.609 0.534363 2.04225 0
M  V30 4596 O 442.957 -0.465337 2.23712 0
M  V30 4597 C 443.167 3.05961 1.67895 0
M  V30 4598 C 444.515 3.63772 2.18986 0
M  V30 4599 O 445.539 3.08606 1.77878 0
M  V30 4600 O 444.398 4.60429 2.94393 0
M  V30 4601 H 441.492 0.676957 0.475035 0
M  V30 4602 H 444.038 1.67589 0.26681 0
M  V30 4603 H 442.81 3.79815 0.941071 0
M  V30 4604 H 442.433 3.08943 2.5028 0
M  V30 4605 N 443.43 -0.535701 1.48216 0
M  V30 4606 C 444.362 -1.65662 1.58394 0
M  V30 4607 C 445.375 -1.5591 0.468607 0
M  V30 4608 O 446.564 -1.62475 0.7392 0
M  V30 4609 C 443.664 -3.04276 1.4923 0
M  V30 4610 C 442.837 -3.39567 2.75705 0
M  V30 4611 C 441.896 -4.57436 2.60075 0
M  V30 4612 O 440.922 -4.60942 3.33948 0
M  V30 4613 N 442.124 -5.55259 1.69315 0
M  V30 4614 H 444.889 -1.5737 2.55058 0
M  V30 4615 H 442.45 -0.722845 1.44867 0
M  V30 4616 H 444.442 -3.80994 1.36477 0
M  V30 4617 H 443.012 -3.06677 0.605632 0
M  V30 4618 H 442.232 -2.52083 3.03064 0
M  V30 4619 H 443.52 -3.59929 3.59623 0
M  V30 4620 H 442.918 -5.552 1.08489 0
M  V30 4621 H 441.475 -6.31218 1.62504 0
M  V30 4622 N 444.908 -1.36708 -0.784132 0
M  V30 4623 C 446.156 -1.30972 -1.53918 0
M  V30 4624 C 446.477 0.109086 -1.94695 0
M  V30 4625 O 445.747 1.05048 -1.65353 0
M  V30 4626 H 444.327 -0.481819 -0.570841 0
M  V30 4627 H 446.989 -1.71063 -0.934002 0
M  V30 4628 H 446.085 -1.94061 -2.44431 0
M  V30 4629 N 446.386 1.0089 -1.21074 0
M  V30 4630 C 447.349 2.0775 -0.968129 0
M  V30 4631 C 448.349 1.6069 0.0593445 0
M  V30 4632 O 449.539 1.73293 -0.177525 0
M  V30 4633 C 446.671 3.37794 -0.459108 0
M  V30 4634 H 447.864 2.30707 -1.9161 0
M  V30 4635 H 445.417 1.17807 -1.02719 0
M  V30 4636 H 446.152 3.20516 0.49397 0
M  V30 4637 H 445.937 3.7328 -1.20019 0
M  V30 4638 H 447.427 4.16454 -0.309099 0
M  V30 4639 N 447.864 1.01787 1.20321 0
M  V30 4640 C 448.794 0.609625 2.25401 0
M  V30 4641 C 449.775 -0.375951 1.65893 0
M  V30 4642 O 450.96 -0.261101 1.92437 0
M  V30 4643 C 448.09 -0.0515995 3.47262 0
M  V30 4644 C 447.044 0.855095 4.19371 0
M  V30 4645 C 446.37 0.0595757 5.34667 0
M  V30 4646 C 447.67 2.16374 4.75373 0
M  V30 4647 H 449.364 1.48803 2.59804 0
M  V30 4648 H 446.91 0.716934 1.24884 0
M  V30 4649 H 448.863 -0.348764 4.19954 0
M  V30 4650 H 447.587 -0.964726 3.12027 0
M  V30 4651 H 446.246 1.13628 3.48546 0
M  V30 4652 H 445.894 -0.85524 4.95676 0
M  V30 4653 H 445.594 0.663406 5.83843 0
M  V30 4654 H 447.118 -0.231105 6.10162 0
M  V30 4655 H 448.532 1.92885 5.39878 0
M  V30 4656 H 446.929 2.71853 5.34991 0
M  V30 4657 H 447.999 2.82589 3.94045 0
M  V30 4658 N 449.342 -1.36122 0.79427 0
M  V30 4659 C 450.589 -1.99111 0.368905 0
M  V30 4660 C 450.917 -1.63032 -1.0607 0
M  V30 4661 O 450.172 -0.879303 -1.74833 0
M  V30 4662 C 450.471 -3.5409 0.48527 0
M  V30 4663 C 450.137 -4.10003 1.87638 0
M  V30 4664 C 448.799 -4.24986 2.257 0
M  V30 4665 C 451.151 -4.40423 2.78706 0
M  V30 4666 C 448.479 -4.67701 3.54221 0
M  V30 4667 C 450.831 -4.84573 4.0666 0
M  V30 4668 C 449.495 -4.97761 4.44737 0
M  V30 4669 H 448.765 -0.7286 0.134992 0
M  V30 4670 H 451.412 -1.62534 1.01267 0
M  V30 4671 H 449.717 -3.91052 -0.241984 0
M  V30 4672 H 451.414 -4.00766 0.137109 0
M  V30 4673 H 448.004 -3.98784 1.57064 0
M  V30 4674 H 452.188 -4.28412 2.50553 0
M  V30 4675 H 447.444 -4.761 3.83587 0
M  V30 4676 H 451.618 -5.07074 4.77336 0
M  V30 4677 H 449.245 -5.30618 5.44379 0
M  V30 4678 N 450.82 -0.546701 -1.47814 0
M  V30 4679 C 452.068 -0.0187037 -2.02091 0
M  V30 4680 C 452.389 1.33168 -1.42447 0
M  V30 4681 O 451.659 1.86619 -0.595839 0
M  V30 4682 H 450.239 -0.00392531 -0.74699 0
M  V30 4683 H 452.901 -0.714327 -1.81338 0
M  V30 4684 H 451.997 0.0772219 -3.12004 0
M  V30 4685 N 452.299 1.55045 -0.282633 0
M  V30 4686 C 453.247 2.24254 0.617478 0
M  V30 4687 C 454.241 1.24215 1.15183 0
M  V30 4688 O 455.447 1.42123 1.10459 0
M  V30 4689 H 451.822 0.719801 0.217693 0
M  V30 4690 H 453.793 2.98398 0.0110076 0
M  V30 4691 C 452.542 2.98281 1.78672 0
M  V30 4692 H 451.865 3.75053 1.38475 0
M  V30 4693 H 453.305 3.50017 2.393 0
M  V30 4694 C 451.764 2.04184 2.67975 0
M  V30 4695 O 452.294 1.59792 3.6855 0
M  V30 4696 N 450.5 1.70526 2.35307 0
M  V30 4697 H 450.047 2.06821 1.53567 0
M  V30 4698 H 450.005 1.07839 2.95327 0
M  V30 4699 N 453.777 0.010035 1.57597 0
M  V30 4700 C 454.707 -0.976857 2.12084 0
M  V30 4701 C 455.688 -1.35191 1.03235 0
M  V30 4702 O 456.873 -1.43389 1.3097 0
M  V30 4703 C 454.003 -2.26548 2.63236 0
M  V30 4704 C 452.957 -2.03175 3.76701 0
M  V30 4705 C 452.283 -3.38138 4.14206 0
M  V30 4706 C 453.583 -1.38625 5.03568 0
M  V30 4707 H 455.277 -0.523145 2.94794 0
M  V30 4708 H 452.823 -0.250195 1.4181 0
M  V30 4709 H 454.776 -2.95952 2.99984 0
M  V30 4710 H 453.5 -2.74051 1.77661 0
M  V30 4711 H 452.159 -1.36195 3.40362 0
M  V30 4712 H 451.807 -3.83363 3.25641 0
M  V30 4713 H 451.507 -3.23312 4.90656 0
M  V30 4714 H 453.031 -4.08841 4.53521 0
M  V30 4715 H 454.445 -1.98 5.38023 0
M  V30 4716 H 452.842 -1.34256 5.84889 0
M  V30 4717 H 453.912 -0.356722 4.83586 0
M  V30 4718 N 455.255 -1.55392 -0.262866 0
M  V30 4719 C 456.48 -1.80847 -1.01533 0
M  V30 4720 C 456.905 -0.584946 -1.78774 0
M  V30 4721 O 456.263 0.465701 -1.75217 0
M  V30 4722 C 456.311 -3.03866 -1.94159 0
M  V30 4723 O 455.415 -2.79662 -3.03089 0
M  V30 4724 H 454.756 -0.597441 -0.289759 0
M  V30 4725 H 457.286 -2.02553 -0.288698 0
M  V30 4726 H 457.296 -3.32872 -2.35924 0
M  V30 4727 H 455.971 -3.92564 -1.37354 0
M  V30 4728 H 454.548 -2.61781 -2.65566 0
M  V30 4729 N 456.733 0.527833 -1.48498 0
M  V30 4730 C 457.961 1.30823 -1.6029 0
M  V30 4731 C 458.376 1.86945 -0.263974 0
M  V30 4732 O 457.733 1.6651 0.747034 0
M  V30 4733 C 457.784 2.45756 -2.65116 0
M  V30 4734 O 457.505 1.91946 -3.93813 0
M  V30 4735 C 459.006 3.37543 -2.87367 0
M  V30 4736 H 456.226 0.397763 -0.540394 0
M  V30 4737 H 458.77 0.636529 -1.94341 0
M  V30 4738 H 456.925 3.08806 -2.33917 0
M  V30 4739 H 457.339 2.67195 -4.51339 0
M  V30 4740 H 458.813 4.14532 -3.6451 0
M  V30 4741 H 459.29 3.92905 -1.9627 0
M  V30 4742 H 459.896 2.80283 -3.19878 0
M  V30 4743 N 458.211 1.37122 0.776871 0
M  V30 4744 C 459.174 1.32301 1.8716 0
M  V30 4745 C 460.174 0.228099 1.59174 0
M  V30 4746 O 461.364 0.483642 1.67352 0
M  V30 4747 C 458.496 1.054 3.24197 0
M  V30 4748 H 459.689 2.29673 1.92848 0
M  V30 4749 H 457.242 1.22077 0.97606 0
M  V30 4750 H 457.977 0.0853872 3.24188 0
M  V30 4751 H 457.762 1.84648 3.45901 0
M  V30 4752 H 459.252 1.04664 4.04271 0
M  V30 4753 N 459.689 -1.00246 1.21608 0
M  V30 4754 C 460.637 -2.11193 0.97469 0
M  V30 4755 C 461.631 -1.69216 -0.0789303 0
M  V30 4756 O 462.837 -1.79853 0.0726806 0
M  V30 4757 H 459.212 -0.690455 0.297953 0
M  V30 4758 H 461.183 -2.2873 1.91638 0
M  V30 4759 C 459.932 -3.43182 0.558717 0
M  V30 4760 H 459.255 -3.75918 1.3611 0
M  V30 4761 H 460.695 -4.21823 0.429154 0
M  V30 4762 C 459.154 -3.28882 -0.730648 0
M  V30 4763 O 459.684 -3.59835 -1.78554 0
M  V30 4764 N 457.89 -2.8209 -0.698131 0
M  V30 4765 H 457.437 -2.57099 0.16061 0
M  V30 4766 H 457.395 -2.72903 -1.56113 0
M  V30 4767 N 461.167 -1.02423 -1.1978 0
M  V30 4768 C 462.578 -0.748389 -1.71044 0
M  V30 4769 C 462.929 0.732398 -1.82017 0
M  V30 4770 O 462.054 1.57116 -1.48807 0
M  V30 4771 C 462.649 -1.35187 -3.1066 0
M  V30 4772 C 461.208 -1.12472 -3.59203 0
M  V30 4773 C 460.355 -1.45283 -2.36195 0
M  V30 4774 H 463.306 -1.19275 -1.04686 0
M  V30 4775 H 463.327 -0.746408 -3.73107 0
M  V30 4776 H 462.839 -2.4296 -3.02642 0
M  V30 4777 H 460.94 -0.0649983 -3.72543 0
M  V30 4778 H 461.053 -1.81016 -4.43588 0
M  V30 4779 H 459.417 -0.872034 -2.39307 0
M  V30 4780 H 460.2 -2.54129 -2.30811 0
M  V30 4781 N 462.645 1.35699 -0.801477 0
M  V30 4782 C 464.061 1.52065 -0.484596 0
M  V30 4783 C 464.261 1.75215 0.995084 0
M  V30 4784 O 463.317 1.79061 1.78026 0
M  V30 4785 C 464.63 2.69908 -1.32552 0
M  V30 4786 C 466.178 2.83784 -1.32044 0
M  V30 4787 C 466.653 4.04646 -2.14536 0
M  V30 4788 N 468.144 4.11814 -2.12046 0
M  V30 4789 C 468.879 5.04437 -2.72636 0
M  V30 4790 N 468.375 6.02426 -3.42133 0
M  V30 4791 N 470.168 4.97144 -2.62305 0
M  V30 4792 H 462.319 1.18928 -1.75983 0
M  V30 4793 H 464.582 0.581455 -0.748741 0
M  V30 4794 H 464.288 2.59363 -2.37537 0
M  V30 4795 H 464.162 3.64376 -0.975181 0
M  V30 4796 H 466.549 2.93783 -0.27846 0
M  V30 4797 H 466.63 1.90188 -1.71062 0
M  V30 4798 H 466.274 3.95407 -3.18772 0
M  V30 4799 H 466.204 4.97413 -1.72882 0
M  V30 4800 H 468.695 3.41664 -1.61476 0
M  V30 4801 H 469.008 6.69688 -3.85666 0
M  V30 4802 H 467.353 6.02615 -3.46237 0
M  V30 4803 H 470.544 4.19546 -2.07603 0
M  V30 4804 H 470.717 5.69138 -3.09815 0
M  V30 4805 N 464.123 0.554532 1.47522 0
M  V30 4806 C 465.055 -0.232106 2.28022 0
M  V30 4807 C 466.068 -0.881865 1.36847 0
M  V30 4808 O 467.257 -0.756168 1.61692 0
M  V30 4809 C 464.357 -1.34604 3.11022 0
M  V30 4810 C 463.53 -0.793582 4.30141 0
M  V30 4811 C 462.589 -1.79168 4.94758 0
M  V30 4812 O 461.615 -1.33886 5.5323 0
M  V30 4813 N 462.817 -3.12495 4.89211 0
M  V30 4814 H 465.582 0.458407 2.96173 0
M  V30 4815 H 463.143 0.390433 1.57122 0
M  V30 4816 H 465.135 -2.01243 3.51118 0
M  V30 4817 H 463.705 -1.93983 2.45131 0
M  V30 4818 H 462.925 0.0495025 3.94169 0
M  V30 4819 H 464.213 -0.403776 5.07195 0
M  V30 4820 H 463.611 -3.51931 4.42901 0
M  V30 4821 H 462.168 -3.74698 5.33333 0
M  V30 4822 N 465.601 -1.54893 0.290851 0
M  V30 4823 C 466.533 -2.20564 -0.623236 0
M  V30 4824 C 467.546 -1.19519 -1.1054 0
M  V30 4825 O 468.735 -1.46165 -1.02459 0
M  V30 4826 C 465.835 -2.83033 -1.86401 0
M  V30 4827 C 465.008 -4.09916 -1.52604 0
M  V30 4828 C 464.067 -4.56284 -2.62091 0
M  V30 4829 O 463.093 -5.2171 -2.27612 0
M  V30 4830 N 464.295 -4.27746 -3.92446 0
M  V30 4831 H 467.06 -2.99638 -0.0610915 0
M  V30 4832 H 464.621 -1.61508 0.112615 0
M  V30 4833 H 466.613 -3.1099 -2.58973 0
M  V30 4834 H 465.183 -2.0786 -2.33481 0
M  V30 4835 H 464.403 -3.89078 -0.633424 0
M  V30 4836 H 465.691 -4.92554 -1.27547 0
M  V30 4837 H 465.089 -3.7531 -4.23272 0
M  V30 4838 H 463.646 -4.60437 -4.61347 0
M  V30 4839 N 467.08 -0.0183926 -1.57589 0
M  V30 4840 C 468.013 1.00148 -2.0505 0
M  V30 4841 C 468.991 1.32387 -0.944058 0
M  V30 4842 O 470.175 1.44237 -1.21358 0
M  V30 4843 C 467.302 2.32435 -2.46357 0
M  V30 4844 C 466.348 2.15731 -3.67916 0
M  V30 4845 S 467.181 1.46613 -5.15039 0
M  V30 4846 C 468.337 2.80293 -5.59631 0
M  V30 4847 H 468.57 0.597429 -2.91235 0
M  V30 4848 H 466.103 0.193002 -1.53189 0
M  V30 4849 H 468.061 3.0849 -2.70822 0
M  V30 4850 H 466.722 2.69975 -1.60537 0
M  V30 4851 H 465.915 3.13502 -3.9463 0
M  V30 4852 H 465.517 1.4782 -3.43548 0
M  V30 4853 H 467.809 3.76557 -5.63215 0
M  V30 4854 H 468.752 2.58256 -6.59325 0
M  V30 4855 H 469.16 2.85047 -4.87246 0
M  V30 4856 N 468.558 1.5553 0.254621 0
M  V30 4857 C 469.506 1.9048 1.33492 0
M  V30 4858 C 470.5 0.78304 1.50216 0
M  V30 4859 O 471.706 0.967582 1.51782 0
M  V30 4860 H 468.081 0.604846 0.44684 0
M  V30 4861 H 470.052 2.80688 1.01275 0
M  V30 4862 C 468.801 2.20928 2.68489 0
M  V30 4863 H 468.124 3.06742 2.56417 0
M  V30 4864 H 469.564 2.49291 3.42972 0
M  V30 4865 C 468.023 1.023 3.20993 0
M  V30 4866 O 468.553 0.267027 4.00811 0
M  V30 4867 N 466.759 0.815714 2.78917 0
M  V30 4868 H 466.306 1.43217 2.14119 0
M  V30 4869 H 466.264 0.0236532 3.14391 0
M  V30 4870 N 470.036 -0.519951 1.48776 0
M  V30 4871 C 471.284 -1.2727 1.56993 0
M  V30 4872 C 471.605 -1.9339 0.25004 0
M  V30 4873 O 470.875 -1.81822 -0.729216 0
M  V30 4874 H 469.455 -0.472732 0.578389 0
M  V30 4875 H 472.117 -0.604234 1.85297 0
M  V30 4876 H 471.213 -2.04669 2.3562 0
M  V30 4877 N 471.514 -1.37532 -0.769588 0
M  V30 4878 C 472.444 -1.36172 -1.89682 0
M  V30 4879 C 473.425 -0.23001 -1.68538 0
M  V30 4880 O 474.61 -0.43069 -1.89364 0
M  V30 4881 C 471.74 -1.1701 -3.26995 0
M  V30 4882 C 470.694 -2.27216 -3.62708 0
M  V30 4883 C 470.02 -1.93174 -4.98586 0
M  V30 4884 C 471.32 -3.6941 -3.69234 0
M  V30 4885 H 473.014 -2.30499 -1.91078 0
M  V30 4886 H 470.56 -1.10953 -0.917902 0
M  V30 4887 H 472.513 -1.14688 -4.05493 0
M  V30 4888 H 471.237 -0.191395 -3.26039 0
M  V30 4889 H 469.896 -2.28697 -2.86519 0
M  V30 4890 H 469.544 -0.938281 -4.94171 0
M  V30 4891 H 469.244 -2.66973 -5.23449 0
M  V30 4892 H 470.768 -1.92443 -5.79481 0
M  V30 4893 H 472.182 -3.70047 -4.37879 0
M  V30 4894 H 470.579 -4.4228 -4.05597 0
M  V30 4895 H 471.649 -4.0288 -2.69844 0
M  V30 4896 N 472.992 0.995999 -1.22138 0
M  V30 4897 C 474.22 1.77066 -1.07029 0
M  V30 4898 C 474.635 1.8495 0.379357 0
M  V30 4899 O 473.992 1.3174 1.26297 0
M  V30 4900 C 474.043 3.20533 -1.67155 0
M  V30 4901 O 473.764 3.13082 -3.06449 0
M  V30 4902 C 475.265 4.14461 -1.5728 0
M  V30 4903 H 472.485 0.556179 -0.375374 0
M  V30 4904 H 475.029 1.25238 -1.61666 0
M  V30 4905 H 473.184 3.6944 -1.16589 0
M  V30 4906 H 473.598 4.03283 -3.35355 0
M  V30 4907 H 475.072 5.1289 -2.04078 0
M  V30 4908 H 475.549 4.36005 -0.528795 0
M  V30 4909 H 476.155 3.71449 -2.07136 0
M  V30 4910 N 474.47 1.03057 1.19235 0
M  V30 4911 C 475.695 0.74757 1.93458 0
M  V30 4912 C 476.12 -0.687648 1.7508 0
M  V30 4913 O 475.478 -1.47499 1.05422 0
M  V30 4914 C 475.526 1.10604 3.43219 0
M  V30 4915 O 474.63 0.225671 4.11782 0
M  V30 4916 H 473.971 0.276047 0.603899 0
M  V30 4917 H 476.501 1.3777 1.51263 0
M  V30 4918 H 476.511 1.06366 3.93891 0
M  V30 4919 H 475.186 2.15165 3.55917 0
M  V30 4920 H 473.763 0.326795 3.71465 0
M  V30 4921 N 475.948 -1.35272 0.808662 0
M  V30 4922 C 477.195 -1.98709 0.390003 0
M  V30 4923 C 477.523 -1.64148 -1.04335 0
M  V30 4924 O 476.778 -0.897797 -1.73891 0
M  V30 4925 C 477.077 -3.53556 0.522798 0
M  V30 4926 C 476.743 -4.0799 1.91977 0
M  V30 4927 C 475.405 -4.22568 2.30195 0
M  V30 4928 C 477.757 -4.37442 2.83361 0
M  V30 4929 C 475.085 -4.63918 3.59162 0
M  V30 4930 C 477.437 -4.80232 4.11776 0
M  V30 4931 C 476.101 -4.93016 4.49991 0
M  V30 4932 H 475.371 -0.727127 0.142712 0
M  V30 4933 H 478.018 -1.6145 1.02985 0
M  V30 4934 H 476.323 -3.91287 -0.200494 0
M  V30 4935 H 478.02 -4.00598 0.179608 0
M  V30 4936 H 474.61 -3.97096 1.61284 0
M  V30 4937 H 478.794 -4.25731 2.55083 0
M  V30 4938 H 474.05 -4.72005 3.88615 0
M  V30 4939 H 478.224 -5.01982 4.82687 0
M  V30 4940 H 475.851 -5.24814 5.49976 0
M  V30 4941 N 477.426 -0.562348 -1.47226 0
M  V30 4942 C 478.356 0.170627 -2.32876 0
M  V30 4943 C 479.337 0.903748 -1.44106 0
M  V30 4944 O 480.522 0.883206 -1.72954 0
M  V30 4945 C 477.652 1.19786 -3.25989 0
M  V30 4946 C 476.606 0.580875 -4.2404 0
M  V30 4947 C 475.932 1.71311 -5.06514 0
M  V30 4948 C 477.232 -0.468714 -5.20193 0
M  V30 4949 H 478.926 -0.544441 -2.94408 0
M  V30 4950 H 476.472 -0.263271 -1.41573 0
M  V30 4951 H 478.425 1.71884 -3.84752 0
M  V30 4952 H 477.149 1.94294 -2.62521 0
M  V30 4953 H 475.808 0.0811538 -3.6651 0
M  V30 4954 H 475.456 2.44736 -4.39447 0
M  V30 4955 H 475.156 1.30604 -5.72902 0
M  V30 4956 H 476.68 2.23725 -5.68137 0
M  V30 4957 H 478.094 -0.0336028 -5.7329 0
M  V30 4958 H 476.491 -0.794957 -5.94811 0
M  V30 4959 H 477.561 -1.36269 -4.65359 0
M  V30 4960 N 478.904 1.54736 -0.299062 0
M  V30 4961 C 480.181 1.92187 0.363802 0
M  V30 4962 C 480.561 1.22607 1.71845 0
M  V30 4963 O 479.909 0.361141 2.25628 0
M  V30 4964 C 480.119 3.45678 0.480377 0
M  V30 4965 C 481.467 4.17885 0.752147 0
M  V30 4966 O 482.491 3.51702 0.564264 0
M  V30 4967 O 481.35 5.35048 1.11294 0
M  V30 4968 H 478.444 0.801681 0.203066 0
M  V30 4969 H 480.99 1.66115 -0.346978 0
M  V30 4970 H 479.762 3.88443 -0.471999 0
M  V30 4971 H 479.385 3.77779 1.2397 0
M  V30 4972 N 480.382 0.0267497 1.57577 0
M  V30 4973 C 481.345 -0.940916 2.08996 0
M  V30 4974 C 482.345 -1.25561 1.00455 0
M  V30 4975 O 483.535 -1.19634 1.26623 0
M  V30 4976 C 480.667 -2.25814 2.55384 0
M  V30 4977 H 481.86 -0.495628 2.95776 0
M  V30 4978 H 479.413 -0.221241 1.54726 0
M  V30 4979 H 480.148 -2.74976 1.71926 0
M  V30 4980 H 479.933 -2.04285 3.34679 0
M  V30 4981 H 481.423 -2.95178 2.95398 0
M  V30 4982 N 481.861 -1.55662 -0.24637 0
M  V30 4983 C 483.086 -1.81914 -0.996093 0
M  V30 4984 C 483.511 -0.603875 -1.78143 0
M  V30 4985 O 482.869 0.447091 -1.75701 0
M  V30 4986 C 482.917 -3.05908 -1.90925 0
M  V30 4987 O 482.021 -2.82861 -3.00105 0
M  V30 4988 H 481.362 -0.600481 -0.283406 0
M  V30 4989 H 483.892 -2.02848 -0.267199 0
M  V30 4990 H 483.902 -3.35356 -2.3238 0
M  V30 4991 H 482.577 -3.93999 -1.33183 0
M  V30 4992 H 481.154 -2.64583 -2.62775 0
M  V30 4993 N 483.339 0.512053 -1.4905 0
M  V30 4994 C 484.567 1.29116 -1.61669 0
M  V30 4995 C 484.982 1.86655 -0.283787 0
M  V30 4996 O 484.339 1.67293 0.729331 0
M  V30 4997 C 484.39 2.4293 -2.67707 0
M  V30 4998 O 484.111 1.87758 -3.95826 0
M  V30 4999 C 485.612 3.34476 -2.90931 0
M  V30 5000 H 482.832 0.392009 -0.544583 0
M  V30 5001 H 485.376 0.615881 -1.95006 0
M  V30 5002 H 483.531 3.06308 -2.37179 0
M  V30 5003 H 483.945 2.62393 -4.54148 0
M  V30 5004 H 485.419 4.10642 -3.68886 0
M  V30 5005 H 485.896 3.90801 -2.00427 0
M  V30 5006 H 486.502 2.76874 -3.22832 0
M  V30 5007 N 484.817 1.37938 0.762283 0
M  V30 5008 C 486.063 1.33866 1.52341 0
M  V30 5009 C 486.396 -0.0738961 1.94059 0
M  V30 5010 O 485.671 -1.03326 1.64785 0
M  V30 5011 C 485.954 2.28644 2.78197 0
M  V30 5012 C 485.807 3.78722 2.42672 0
M  V30 5013 C 487.126 2.21702 3.80179 0
M  V30 5014 H 484.245 0.487593 0.55265 0
M  V30 5015 H 486.887 1.68717 0.873767 0
M  V30 5016 H 485.037 1.99055 3.33631 0
M  V30 5017 H 486.709 4.18948 1.93081 0
M  V30 5018 H 484.952 3.96827 1.75244 0
M  V30 5019 H 485.623 4.40486 3.3268 0
M  V30 5020 H 488.099 2.47805 3.34263 0
M  V30 5021 H 486.975 2.90143 4.65949 0
M  V30 5022 H 487.236 1.21301 4.25133 0
M  V30 5023 N 486.295 -0.989507 1.22664 0
M  V30 5024 C 487.525 -1.7624 1.0781 0
M  V30 5025 C 487.933 -1.85466 -0.374036 0
M  V30 5026 O 487.276 -1.32645 -1.27087 0
M  V30 5027 C 487.338 -3.21007 1.61849 0
M  V30 5028 C 487.002 -3.35316 3.10503 0
M  V30 5029 C 487.999 -3.22362 4.07896 0
M  V30 5030 C 485.684 -3.60258 3.50028 0
M  V30 5031 C 487.678 -3.34139 5.42798 0
M  V30 5032 C 485.365 -3.71676 4.85078 0
M  V30 5033 C 486.363 -3.58625 5.81272 0
M  V30 5034 O 486.051 -3.69655 7.1387 0
M  V30 5035 H 485.783 -0.560209 0.378341 0
M  V30 5036 H 488.337 -1.25252 1.62792 0
M  V30 5037 H 486.567 -3.73202 1.01279 0
M  V30 5038 H 488.256 -3.80024 1.42606 0
M  V30 5039 H 489.022 -3.03 3.78703 0
M  V30 5040 H 484.901 -3.69492 2.75675 0
M  V30 5041 H 488.445 -3.23869 6.17863 0
M  V30 5042 H 484.342 -3.90545 5.1395 0
M  V30 5043 H 485.11 -3.86507 7.21495 0
M  V30 5044 N 487.773 -1.03688 -1.18687 0
M  V30 5045 C 489.021 -0.736572 -1.88199 0
M  V30 5046 C 489.342 0.737665 -1.80509 0
M  V30 5047 O 488.612 1.53204 -1.22088 0
M  V30 5048 H 487.192 -0.269466 -0.696704 0
M  V30 5049 H 489.854 -1.31282 -1.44052 0
M  V30 5050 H 488.95 -1.03802 -2.94332 0
M  V30 5051 N 489.251 1.34841 -0.815825 0
M  V30 5052 C 490.476 2.03261 -0.41226 0
M  V30 5053 C 490.901 1.61055 0.971751 0
M  V30 5054 O 490.259 0.7917 1.63101 0
M  V30 5055 C 490.307 3.56914 -0.514289 0
M  V30 5056 O 489.411 4.09728 0.468675 0
M  V30 5057 H 488.752 0.641664 -0.170771 0
M  V30 5058 H 491.282 1.72241 -1.10427 0
M  V30 5059 H 491.292 4.06156 -0.387457 0
M  V30 5060 H 489.967 3.86982 -1.52375 0
M  V30 5061 H 488.544 3.71681 0.301316 0
M  V30 5062 N 490.729 0.570148 1.46925 0
M  V30 5063 C 491.954 0.0542592 2.07329 0
M  V30 5064 C 492.379 -1.23582 1.41806 0
M  V30 5065 O 491.737 -1.74341 0.497479 0
M  V30 5066 C 491.785 -0.111175 3.60429 0
M  V30 5067 O 490.889 -1.17071 3.95434 0
M  V30 5068 H 490.23 0.0571425 0.661537 0
M  V30 5069 H 492.76 0.789516 1.88753 0
M  V30 5070 H 492.77 -0.321315 4.06733 0
M  V30 5071 H 491.445 0.831012 4.07513 0
M  V30 5072 H 490.022 -0.940029 3.60857 0
M  V30 5073 N 492.207 -1.54576 0.307264 0
M  V30 5074 C 493.618 -1.8579 -0.184121 0
M  V30 5075 C 493.969 -1.22914 -1.52927 0
M  V30 5076 O 493.094 -0.529126 -2.09831 0
M  V30 5077 C 493.689 -3.37081 -0.340862 0
M  V30 5078 C 492.248 -3.68304 -0.776465 0
M  V30 5079 C 491.395 -2.77076 0.111503 0
M  V30 5080 H 494.346 -1.49656 0.528078 0
M  V30 5081 H 494.367 -3.61922 -1.17443 0
M  V30 5082 H 493.879 -3.82815 0.638309 0
M  V30 5083 H 491.98 -3.28092 -1.76596 0
M  V30 5084 H 492.093 -4.75434 -0.591512 0
M  V30 5085 H 490.457 -2.51374 -0.410256 0
M  V30 5086 H 491.24 -3.25632 1.08714 0
M  V30 5087 N 493.685 -0.035106 -1.57561 0
M  V30 5088 C 494.648 0.929819 -2.09492 0
M  V30 5089 C 495.648 1.25026 -1.01119 0
M  V30 5090 O 496.838 1.18961 -1.27255 0
M  V30 5091 C 493.97 2.24457 -2.56577 0
M  V30 5092 H 495.163 0.479935 -2.96035 0
M  V30 5093 H 492.716 0.213033 -1.54841 0
M  V30 5094 H 493.451 2.74061 -1.73382 0
M  V30 5095 H 493.236 2.02508 -3.35757 0
M  V30 5096 H 494.726 2.93607 -2.96959 0
M  V30 5097 N 495.163 1.55791 0.238111 0
M  V30 5098 C 496.093 1.94068 1.29846 0
M  V30 5099 C 497.074 0.806726 1.49753 0
M  V30 5100 O 498.259 1.06772 1.62214 0
M  V30 5101 C 495.389 2.24302 2.65153 0
M  V30 5102 C 494.343 3.40032 2.59927 0
M  V30 5103 C 493.669 3.55829 3.99111 0
M  V30 5104 C 494.969 4.75476 2.16148 0
M  V30 5105 H 496.663 2.82887 0.980563 0
M  V30 5106 H 494.209 1.36105 0.470253 0
M  V30 5107 H 496.162 2.4967 3.39475 0
M  V30 5108 H 494.886 1.32318 2.98596 0
M  V30 5109 H 493.545 3.14687 1.88063 0
M  V30 5110 H 493.193 2.6125 4.29834 0
M  V30 5111 H 492.893 4.3366 3.96501 0
M  V30 5112 H 494.417 3.83528 4.7512 0
M  V30 5113 H 495.831 5.00158 2.80205 0
M  V30 5114 H 494.228 5.56472 2.24631 0
M  V30 5115 H 495.298 4.71946 1.11333 0
M  V30 5116 N 496.642 -0.504142 1.49319 0
M  V30 5117 C 497.552 -1.63248 1.68486 0
M  V30 5118 C 498.568 -1.64488 0.567432 0
M  V30 5119 O 499.744 -1.82966 0.841749 0
M  V30 5120 C 496.809 -2.99627 1.74426 0
M  V30 5121 C 495.87 -3.09039 2.97982 0
M  V30 5122 C 495.103 -4.38913 3.0363 0
M  V30 5123 O 495.326 -5.27528 2.16958 0
M  V30 5124 O 494.26 -4.53231 3.96062 0
M  V30 5125 H 498.086 -1.50008 2.64067 0
M  V30 5126 H 495.671 -0.680086 1.33023 0
M  V30 5127 H 497.553 -3.80689 1.80705 0
M  V30 5128 H 496.228 -3.13136 0.820233 0
M  V30 5129 H 495.135 -2.27177 2.97223 0
M  V30 5130 H 496.468 -3.00456 3.89855 0
M  V30 5131 N 498.12 -1.38341 -0.754957 0
M  V30 5132 C 499.536 -1.19508 -1.05783 0
M  V30 5133 C 499.736 -0.0428005 -2.01455 0
M  V30 5134 O 498.792 0.611861 -2.44975 0
M  V30 5135 C 500.105 -2.52091 -1.63923 0
M  V30 5136 C 501.653 -2.58762 -1.76101 0
M  V30 5137 C 502.128 -3.91517 -2.37652 0
M  V30 5138 N 503.619 -3.93049 -2.45085 0
M  V30 5139 C 504.354 -4.9253 -2.93602 0
M  V30 5140 N 503.85 -6.02408 -3.42165 0
M  V30 5141 N 505.643 -4.79921 -2.92629 0
M  V30 5142 H 497.794 -2.1206 -0.120056 0
M  V30 5143 H 500.057 -0.94089 -0.11589 0
M  V30 5144 H 499.763 -3.36858 -1.01093 0
M  V30 5145 H 499.637 -2.70388 -2.63003 0
M  V30 5146 H 502.024 -1.74391 -2.38058 0
M  V30 5147 H 502.105 -2.44333 -0.757294 0
M  V30 5148 H 501.749 -4.76309 -1.76329 0
M  V30 5149 H 501.679 -4.03256 -3.38662 0
M  V30 5150 H 504.17 -3.13685 -2.10736 0
M  V30 5151 H 504.483 -6.74248 -3.77637 0
M  V30 5152 H 502.828 -6.0603 -3.40225 0
M  V30 5153 H 506.019 -3.93194 -2.54001 0
M  V30 5154 H 506.192 -5.57601 -3.30128 0
M  V30 5155 N 499.598 0.982988 -1.23187 0
M  V30 5156 C 500.53 2.07729 -0.968572 0
M  V30 5157 C 501.543 1.62702 0.0564821 0
M  V30 5158 O 502.732 1.77603 -0.178733 0
M  V30 5159 C 499.832 3.36071 -0.436974 0
M  V30 5160 C 499.005 4.10081 -1.52159 0
M  V30 5161 C 498.064 5.16701 -0.99532 0
M  V30 5162 O 497.09 5.43727 -1.68373 0
M  V30 5163 N 498.292 5.80226 0.178192 0
M  V30 5164 H 501.057 2.30894 -1.9107 0
M  V30 5165 H 498.618 1.14949 -1.1401 0
M  V30 5166 H 500.61 4.04639 -0.0700051 0
M  V30 5167 H 499.18 3.09893 0.410509 0
M  V30 5168 H 498.4 3.36004 -2.06144 0
M  V30 5169 H 499.688 4.56295 -2.25105 0
M  V30 5170 H 499.086 5.60651 0.754096 0
M  V30 5171 H 497.643 6.49982 0.486449 0
M  V30 5172 N 501.076 1.04316 1.18135 0
M  V30 5173 C 502.006 0.657299 2.24058 0
M  V30 5174 C 502.987 -0.340678 1.66654 0
M  V30 5175 O 504.172 -0.220223 1.92947 0
M  V30 5176 C 501.302 0.0220715 3.47293 0
M  V30 5177 C 500.256 0.943857 4.17463 0
M  V30 5178 C 499.582 0.172973 5.3442 0
M  V30 5179 C 500.882 2.26409 4.70677 0
M  V30 5180 H 502.576 1.5428 2.56589 0
M  V30 5181 H 500.122 0.743263 1.23335 0
M  V30 5182 H 502.075 -0.259607 4.206 0
M  V30 5183 H 500.799 -0.898323 3.14003 0
M  V30 5184 H 499.458 1.20996 3.46057 0
M  V30 5185 H 499.106 -0.749907 4.97379 0
M  V30 5186 H 498.806 0.787098 5.82304 0
M  V30 5187 H 500.33 -0.101628 6.10515 0
M  V30 5188 H 501.744 2.04294 5.35665 0
M  V30 5189 H 500.141 2.8314 5.29105 0
M  V30 5190 H 501.211 2.90883 3.87962 0
M  V30 5191 N 502.554 -1.34406 0.822964 0
M  V30 5192 C 503.97 -1.51275 0.508727 0
M  V30 5193 C 504.17 -1.76776 -0.967083 0
M  V30 5194 O 503.226 -1.81871 -1.75155 0
M  V30 5195 C 504.539 -2.67765 1.36829 0
M  V30 5196 C 506.087 -2.81647 1.36542 0
M  V30 5197 C 506.562 -4.01181 2.20947 0
M  V30 5198 N 508.053 -4.08388 2.18571 0
M  V30 5199 C 508.788 -5.00036 2.80627 0
M  V30 5200 N 508.284 -5.96906 3.51674 0
M  V30 5201 N 510.077 -4.92908 2.70181 0
M  V30 5202 H 502.228 -1.16113 1.77852 0
M  V30 5203 H 504.491 -0.56947 0.757897 0
M  V30 5204 H 504.197 -2.55551 2.41633 0
M  V30 5205 H 504.071 -3.62779 1.03303 0
M  V30 5206 H 506.458 -2.93303 0.325163 0
M  V30 5207 H 506.539 -1.87443 1.74066 0
M  V30 5208 H 506.183 -3.90286 3.25022 0
M  V30 5209 H 506.113 -4.94599 1.80774 0
M  V30 5210 H 508.604 -3.39051 1.66891 0
M  V30 5211 H 508.917 -6.63468 3.96271 0
M  V30 5212 H 507.262 -5.9703 3.5578 0
M  V30 5213 H 510.453 -4.1619 2.14251 0
M  V30 5214 H 510.626 -5.64137 3.18831 0
M  V30 5215 N 504.032 -0.577932 -1.46621 0
M  V30 5216 C 504.98 0.170882 -2.31971 0
M  V30 5217 C 505.974 0.889086 -1.44193 0
M  V30 5218 O 507.18 0.808017 -1.60845 0
M  V30 5219 H 503.555 0.0739763 -0.748353 0
M  V30 5220 H 505.526 -0.567856 -2.92947 0
M  V30 5221 C 504.275 1.17438 -3.27267 0
M  V30 5222 H 503.598 0.63116 -3.94787 0
M  V30 5223 H 505.038 1.66882 -3.89778 0
M  V30 5224 C 503.497 2.23292 -2.52274 0
M  V30 5225 O 504.027 3.30567 -2.28229 0
M  V30 5226 N 502.233 1.97772 -2.12919 0
M  V30 5227 H 501.78 1.10545 -2.32675 0
M  V30 5228 H 501.738 2.68809 -1.63062 0
M  V30 5229 N 505.51 1.54411 -0.315457 0
M  V30 5230 C 506.756 2.01425 0.282775 0
M  V30 5231 C 507.111 1.19978 1.5041 0
M  V30 5232 O 506.404 0.271766 1.89663 0
M  V30 5233 C 506.598 3.50936 0.676652 0
M  V30 5234 C 506.427 4.46856 -0.504954 0
M  V30 5235 C 505.197 4.95275 -1.00152 0
M  V30 5236 C 507.395 4.96141 -1.35456 0
M  V30 5237 N 505.377 5.75081 -2.14838 0
M  V30 5238 C 506.748 5.73791 -2.3487 0
M  V30 5239 C 508.803 4.78299 -1.38327 0
M  V30 5240 C 507.506 6.35498 -3.36949 0
M  V30 5241 C 509.532 5.40836 -2.39271 0
M  V30 5242 C 508.894 6.1833 -3.37413 0
M  V30 5243 H 504.993 0.779078 0.0675398 0
M  V30 5244 H 507.577 1.8946 -0.448656 0
M  V30 5245 H 505.748 3.63162 1.37723 0
M  V30 5246 H 507.48 3.84728 1.25566 0
M  V30 5247 H 504.235 4.70107 -0.574123 0
M  V30 5248 H 504.659 6.19664 -2.72665 0
M  V30 5249 H 509.301 4.17956 -0.638196 0
M  V30 5250 H 507.019 6.94967 -4.12367 0
M  V30 5251 H 510.605 5.28952 -2.42284 0
M  V30 5252 H 509.485 6.65861 -4.14244 0
M  V30 5253 N 506.988 0.0434614 1.5754 0
M  V30 5254 C 508.216 -0.641835 1.96693 0
M  V30 5255 C 508.631 -1.64832 0.920652 0
M  V30 5256 O 507.988 -1.82247 -0.095993 0
M  V30 5257 C 508.039 -1.33557 3.35924 0
M  V30 5258 O 507.76 -0.369403 4.3654 0
M  V30 5259 C 509.261 -2.11135 3.89791 0
M  V30 5260 H 506.481 -0.176013 0.647503 0
M  V30 5261 H 509.025 0.107478 2.04217 0
M  V30 5262 H 507.18 -2.03617 3.29574 0
M  V30 5263 H 507.594 -0.863674 5.1734 0
M  V30 5264 H 509.068 -2.55107 4.89514 0
M  V30 5265 H 509.545 -2.95634 3.24803 0
M  V30 5266 H 510.151 -1.46002 3.99454 0
M  V30 5267 N 508.466 -1.55915 -0.229846 0
M  V30 5268 C 509.691 -1.8296 -0.976743 0
M  V30 5269 C 510.116 -0.622735 -1.77493 0
M  V30 5270 O 509.474 0.428431 -1.76165 0
M  V30 5271 C 509.522 -3.07916 -1.8767 0
M  V30 5272 O 508.626 -2.86028 -2.97088 0
M  V30 5273 H 507.967 -0.603453 -0.277021 0
M  V30 5274 H 510.497 -2.0312 -0.245669 0
M  V30 5275 H 510.507 -3.37802 -2.2881 0
M  V30 5276 H 509.182 -3.95389 -1.28996 0
M  V30 5277 H 507.759 -2.67355 -2.59954 0
M  V30 5278 N 509.944 0.496216 -1.49584 0
M  V30 5279 C 510.907 1.57952 -1.66084 0
M  V30 5280 C 511.907 1.51729 -0.53244 0
M  V30 5281 O 513.097 1.54796 -0.79899 0
M  V30 5282 C 510.229 2.97604 -1.66268 0
M  V30 5283 H 511.422 1.44649 -2.6271 0
M  V30 5284 H 508.975 0.7208 -1.38687 0
M  V30 5285 H 509.71 3.16378 -0.712432 0
M  V30 5286 H 509.495 3.03528 -2.4822 0
M  V30 5287 H 510.985 3.76301 -1.81073 0
M  V30 5288 N 511.423 1.38739 0.74761 0
M  V30 5289 C 512.333 1.38696 1.89211 0
M  V30 5290 C 513.349 0.283303 1.71678 0
M  V30 5291 O 514.525 0.522713 1.94498 0
M  V30 5292 C 511.59 1.21662 3.24653 0
M  V30 5293 C 510.651 2.41886 3.54669 0
M  V30 5294 C 509.884 2.25655 4.83648 0
M  V30 5295 O 510.107 1.25339 5.56459 0
M  V30 5296 O 509.041 3.14372 5.13277 0
M  V30 5297 H 512.867 2.35143 1.92202 0
M  V30 5298 H 510.452 1.19721 0.893708 0
M  V30 5299 H 512.334 1.14246 4.05618 0
M  V30 5300 H 511.009 0.283024 3.2246 0
M  V30 5301 H 509.916 2.54877 2.73841 0
M  V30 5302 H 511.249 3.33895 3.61628 0
M  V30 5303 N 512.901 -0.976442 1.23707 0
M  V30 5304 C 514.149 -1.71487 1.06942 0
M  V30 5305 C 514.47 -1.9098 -0.393897 0
M  V30 5306 O 513.74 -1.48128 -1.28198 0
M  V30 5307 H 512.32 -0.635425 0.392739 0
M  V30 5308 H 514.982 -1.17515 1.55487 0
M  V30 5309 H 514.078 -2.70286 1.56051 0
M  V30 5310 N 514.379 -1.04941 -1.1758 0
M  V30 5311 C 515.309 -0.669172 -2.23706 0
M  V30 5312 C 516.29 0.331835 -1.66832 0
M  V30 5313 O 517.475 0.209988 -1.93061 0
M  V30 5314 C 514.605 -0.0404889 -3.47276 0
M  V30 5315 C 513.559 -0.965983 -4.16957 0
M  V30 5316 C 512.885 -0.201312 -5.34321 0
M  V30 5317 C 514.185 -2.28902 -4.69469 0
M  V30 5318 H 515.879 -1.55639 -2.55767 0
M  V30 5319 H 513.425 -0.749793 -1.22939 0
M  V30 5320 H 515.378 0.237298 -4.20731 0
M  V30 5321 H 514.102 0.881658 -3.14475 0
M  V30 5322 H 512.761 -1.22829 -3.45411 0
M  V30 5323 H 512.409 0.723519 -4.97769 0
M  V30 5324 H 512.109 -0.817968 -5.81879 0
M  V30 5325 H 513.633 0.0692499 -6.10561 0
M  V30 5326 H 515.047 -2.07132 -5.34574 0
M  V30 5327 H 513.444 -2.85942 -5.27596 0
M  V30 5328 H 514.514 -2.92937 -3.86414 0
M  V30 5329 N 515.857 1.33968 -0.830081 0
M  V30 5330 C 516.787 2.31911 -0.271911 0
M  V30 5331 C 517.768 1.58571 0.61556 0
M  V30 5332 O 518.953 1.86514 0.540946 0
M  V30 5333 C 516.083 3.42737 0.561146 0
M  V30 5334 C 515.037 4.27383 -0.229789 0
M  V30 5335 C 514.363 5.29742 0.726463 0
M  V30 5336 C 515.663 5.02 -1.44197 0
M  V30 5337 H 517.357 2.78844 -1.09025 0
M  V30 5338 H 514.903 1.34061 -0.52571 0
M  V30 5339 H 516.856 4.10276 0.961867 0
M  V30 5340 H 515.58 2.94471 1.41261 0
M  V30 5341 H 514.239 3.61456 -0.611964 0
M  V30 5342 H 513.887 4.77736 1.57408 0
M  V30 5343 H 513.587 5.87255 0.20142 0
M  V30 5344 H 515.111 6.00149 1.12489 0
M  V30 5345 H 516.525 5.62355 -1.11488 0
M  V30 5346 H 514.922 5.69122 -1.90317 0
M  V30 5347 H 515.992 4.31281 -2.2164 0
M  V30 5348 N 517.335 0.585699 1.46312 0
M  V30 5349 C 518.751 0.247607 1.57668 0
M  V30 5350 C 518.951 -1.25007 1.58037 0
M  V30 5351 O 518.007 -2.03196 1.49893 0
M  V30 5352 C 519.32 0.899456 2.86933 0
M  V30 5353 C 520.868 0.873326 3.00569 0
M  V30 5354 C 521.343 1.50477 4.32574 0
M  V30 5355 N 522.834 1.46925 4.3928 0
M  V30 5356 C 523.569 1.92719 5.40044 0
M  V30 5357 N 523.065 2.46499 6.47464 0
M  V30 5358 N 524.858 1.83617 5.31264 0
M  V30 5359 H 517.009 1.55841 1.44317 0
M  V30 5360 H 519.272 0.651564 0.688599 0
M  V30 5361 H 518.978 1.95313 2.92482 0
M  V30 5362 H 518.852 0.409476 3.74971 0
M  V30 5363 H 521.239 -0.171736 2.946 0
M  V30 5364 H 521.32 1.40136 2.13999 0
M  V30 5365 H 520.964 2.54905 4.39302 0
M  V30 5366 H 520.894 0.951944 5.17924 0
M  V30 5367 H 523.385 1.07616 3.62253 0
M  V30 5368 H 523.698 2.79291 7.20567 0
M  V30 5369 H 522.043 2.50526 6.48276 0
M  V30 5370 H 525.234 1.41358 4.46246 0
M  V30 5371 H 525.407 2.19622 6.09648 0
M  V30 5372 N 518.813 -1.54241 0.323641 0
M  V30 5373 C 520.059 -2.00867 -0.279323 0
M  V30 5374 C 520.392 -1.21146 -1.5178 0
M  V30 5375 O 519.667 -0.29378 -1.92269 0
M  V30 5376 C 519.95 -3.54837 -0.613387 0
M  V30 5377 C 519.803 -4.45284 0.635803 0
M  V30 5378 C 521.122 -4.16186 -1.43099 0
M  V30 5379 H 518.241 -0.730177 -0.100049 0
M  V30 5380 H 520.883 -1.84829 0.440235 0
M  V30 5381 H 519.033 -3.68634 -1.22641 0
M  V30 5382 H 520.705 -4.43357 1.27406 0
M  V30 5383 H 518.948 -4.14956 1.26466 0
M  V30 5384 H 519.619 -5.5084 0.357597 0
M  V30 5385 H 522.095 -4.05964 -0.912814 0
M  V30 5386 H 520.971 -5.24031 -1.6335 0
M  V30 5387 H 521.232 -3.69516 -2.42715 0
M  V30 5388 N 520.291 -0.0518155 -1.57515 0
M  V30 5389 C 521.241 0.932017 -2.0808 0
M  V30 5390 C 522.225 1.27141 -0.986098 0
M  V30 5391 O 523.417 1.25373 -1.24943 0
M  V30 5392 C 520.546 2.20665 -2.62986 0
M  V30 5393 C 519.632 1.89462 -3.79427 0
M  V30 5394 N 520.023 1.28621 -4.89173 0
M  V30 5395 C 518.321 2.19327 -3.88345 0
M  V30 5396 C 519.022 1.15062 -5.70207 0
M  V30 5397 N 517.998 1.65372 -5.17835 0
M  V30 5398 H 521.8 0.456964 -2.90326 0
M  V30 5399 H 519.314 0.152619 -1.61681 0
M  V30 5400 H 521.311 2.92044 -2.97516 0
M  V30 5401 H 519.971 2.68776 -1.8218 0
M  V30 5402 H 520.982 0.958341 -5.08956 0
M  V30 5403 H 517.659 2.69955 -3.18482 0
M  V30 5404 H 519.049 0.678243 -6.68468 0
M  V30 5405 N 521.769 1.56035 0.221574 0
M  V30 5406 C 522.732 1.91584 1.2581 0
M  V30 5407 C 523.732 0.794425 1.39805 0
M  V30 5408 O 524.922 1.06217 1.38071 0
M  V30 5409 C 522.054 2.16663 2.63192 0
M  V30 5410 H 523.247 2.8429 0.954935 0
M  V30 5411 H 520.8 1.49316 0.461988 0
M  V30 5412 H 521.535 1.26508 2.98607 0
M  V30 5413 H 521.32 2.98358 2.5441 0
M  V30 5414 H 522.81 2.45262 3.37988 0
M  V30 5415 N 523.247 -0.488276 1.49845 0
M  V30 5416 C 524.663 -0.820566 1.3689 0
M  V30 5417 C 524.863 -1.97248 0.411752 0
M  V30 5418 O 523.919 -2.52042 -0.151931 0
M  V30 5419 C 525.232 -1.1488 2.77891 0
M  V30 5420 C 526.78 -1.25626 2.86683 0
M  V30 5421 C 527.255 -1.61772 4.28479 0
M  V30 5422 N 528.746 -1.68797 4.31349 0
M  V30 5423 C 529.481 -1.98235 5.38043 0
M  V30 5424 N 528.977 -2.2581 6.54967 0
M  V30 5425 N 530.77 -1.99593 5.2547 0
M  V30 5426 H 522.921 0.271123 2.10662 0
M  V30 5427 H 525.184 0.058735 0.946179 0
M  V30 5428 H 524.89 -0.375614 3.49688 0
M  V30 5429 H 524.764 -2.08919 3.14058 0
M  V30 5430 H 527.151 -2.02014 2.15114 0
M  V30 5431 H 527.232 -0.296072 2.54081 0
M  V30 5432 H 526.876 -0.859295 5.00578 0
M  V30 5433 H 526.806 -2.58912 4.58554 0
M  V30 5434 H 529.297 -1.49595 3.4703 0
M  V30 5435 H 529.61 -2.47497 7.32096 0
M  V30 5436 H 527.955 -2.23239 6.58171 0
M  V30 5437 H 531.146 -1.77535 4.33127 0
M  V30 5438 H 531.319 -2.222 6.08713 0
M  V30 5439 N 524.725 -1.39134 -0.740242 0
M  V30 5440 C 525.655 -1.40165 -1.86751 0
M  V30 5441 C 526.636 -0.265708 -1.68012 0
M  V30 5442 O 527.821 -0.47076 -1.88408 0
M  V30 5443 C 524.951 -1.2392 -3.2444 0
M  V30 5444 C 523.905 -2.34858 -3.57807 0
M  V30 5445 C 523.231 -2.03707 -4.94376 0
M  V30 5446 C 524.531 -3.77159 -3.61315 0
M  V30 5447 H 526.225 -2.345 -1.86145 0
M  V30 5448 H 523.771 -1.12875 -0.89416 0
M  V30 5449 H 525.724 -1.23263 -4.02969 0
M  V30 5450 H 524.448 -0.26051 -3.25559 0
M  V30 5451 H 523.107 -2.34723 -2.81604 0
M  V30 5452 H 522.755 -1.04289 -4.9207 0
M  V30 5453 H 522.455 -2.78016 -5.17669 0
M  V30 5454 H 523.979 -2.04691 -5.75268 0
M  V30 5455 H 525.393 -3.79252 -4.29931 0
M  V30 5456 H 523.79 -4.50784 -3.96124 0
M  V30 5457 H 524.86 -4.08513 -2.61238 0
M  V30 5458 N 526.204 0.969867 -1.24223 0
M  V30 5459 C 527.62 1.23809 -1.00716 0
M  V30 5460 C 527.82 1.99469 0.285358 0
M  V30 5461 O 526.876 2.31764 1.00207 0
M  V30 5462 C 528.189 2.02734 -2.2208 0
M  V30 5463 C 529.737 2.15834 -2.26681 0
M  V30 5464 C 530.212 2.98154 -3.47661 0
M  V30 5465 N 531.703 3.05737 -3.47964 0
M  V30 5466 C 532.438 3.69785 -4.38231 0
M  V30 5467 N 531.934 4.35569 -5.3875 0
M  V30 5468 N 533.727 3.66775 -4.25949 0
M  V30 5469 H 525.878 0.463294 -2.07286 0
M  V30 5470 H 528.141 0.267348 -0.909521 0
M  V30 5471 H 527.847 1.54524 -3.15935 0
M  V30 5472 H 527.721 3.0347 -2.24021 0
M  V30 5473 H 530.108 2.63248 -1.33359 0
M  V30 5474 H 530.189 1.14453 -2.28767 0
M  V30 5475 H 529.833 2.51435 -4.41297 0
M  V30 5476 H 529.763 3.99729 -3.42818 0
M  V30 5477 H 532.254 2.58941 -2.75242 0
M  V30 5478 H 532.567 4.82251 -6.03866 0
M  V30 5479 H 530.912 4.34244 -5.42639 0
M  V30 5480 H 534.103 3.14558 -3.46657 0
M  V30 5481 H 534.276 4.16407 -4.96497 0
M  V30 5482 N 527.682 1.05563 1.17022 0
M  V30 5483 C 528.959 0.68165 1.83338 0
M  V30 5484 C 529.339 -0.837665 1.93769 0
M  V30 5485 O 528.687 -1.74507 1.47511 0
M  V30 5486 C 528.897 1.375 3.20772 0
M  V30 5487 C 530.245 1.51545 3.96635 0
M  V30 5488 O 531.269 1.33431 3.30264 0
M  V30 5489 O 530.128 1.812 5.15586 0
M  V30 5490 H 527.222 0.240412 0.791285 0
M  V30 5491 H 529.768 1.15545 1.24288 0
M  V30 5492 H 528.54 2.41135 3.08171 0
M  V30 5493 H 528.163 0.890798 3.87493 0
M  V30 5494 N 529.16 -1.33526 0.837174 0
M  V30 5495 C 530.385 -2.0258 0.444545 0
M  V30 5496 C 530.81 -1.6258 -0.946006 0
M  V30 5497 O 530.168 -0.817548 -1.6182 0
M  V30 5498 C 530.216 -3.5605 0.571006 0
M  V30 5499 O 529.32 -4.10422 -0.403431 0
M  V30 5500 H 528.661 -0.638866 0.180958 0
M  V30 5501 H 531.191 -1.70462 1.13154 0
M  V30 5502 H 531.201 -4.05488 0.452024 0
M  V30 5503 H 529.876 -3.84509 1.58512 0
M  V30 5504 H 528.453 -3.72113 -0.242147 0
M  V30 5505 N 530.638 -0.59345 -1.46 0
M  V30 5506 C 531.886 -0.082988 -2.0193 0
M  V30 5507 C 532.207 1.28569 -1.46612 0
M  V30 5508 O 531.477 1.84629 -0.654909 0
M  V30 5509 H 530.057 -0.0276882 -0.746487 0
M  V30 5510 H 532.719 -0.771657 -1.78973 0
M  V30 5511 H 531.815 -0.022079 -3.12092 0
M  V30 5512 N 532.116 1.54067 -0.331816 0
M  V30 5513 C 533.532 1.59587 0.0205388 0
M  V30 5514 C 533.732 1.34813 1.49759 0
M  V30 5515 O 532.788 1.13661 2.25471 0
M  V30 5516 C 534.101 2.97959 -0.405103 0
M  V30 5517 C 535.649 3.10964 -0.356454 0
M  V30 5518 C 536.124 4.51694 -0.757384 0
M  V30 5519 N 537.615 4.57709 -0.71111 0
M  V30 5520 C 538.35 5.64729 -0.993427 0
M  V30 5521 N 537.846 6.79652 -1.3433 0
M  V30 5522 N 539.639 5.54546 -0.918442 0
M  V30 5523 H 531.79 1.68426 -1.29407 0
M  V30 5524 H 534.053 0.78819 -0.526745 0
M  V30 5525 H 533.759 3.21115 -1.43451 0
M  V30 5526 H 533.633 3.76524 0.225692 0
M  V30 5527 H 536.02 2.87538 0.663763 0
M  V30 5528 H 536.101 2.34484 -1.02229 0
M  V30 5529 H 535.745 4.75853 -1.77555 0
M  V30 5530 H 535.675 5.26555 -0.0691444 0
M  V30 5531 H 538.166 3.75176 -0.452883 0
M  V30 5532 H 538.479 7.57221 -1.54388 0
M  V30 5533 H 536.824 6.81128 -1.38164 0
M  V30 5534 H 540.015 4.63641 -0.644536 0
M  V30 5535 H 540.188 6.37861 -1.14181 0
M  V30 5536 N 533.594 0.0601682 1.57485 0
M  V30 5537 C 534.557 -0.896373 2.10945 0
M  V30 5538 C 535.557 -1.23402 1.03095 0
M  V30 5539 O 536.747 -1.16921 1.29132 0
M  V30 5540 C 533.879 -2.20346 2.60116 0
M  V30 5541 H 535.072 -0.432778 2.96761 0
M  V30 5542 H 532.625 -0.188372 1.55161 0
M  V30 5543 H 533.36 -2.71268 1.7772 0
M  V30 5544 H 533.145 -1.9714 3.38937 0
M  V30 5545 H 534.635 -2.88846 3.01592 0
M  V30 5546 N 535.072 -1.5615 -0.213296 0
M  V30 5547 C 536.302 -1.83372 -0.951757 0
M  V30 5548 C 536.71 -0.638158 -1.78113 0
M  V30 5549 O 536.053 0.402609 -1.79234 0
M  V30 5550 C 536.115 -3.04444 -1.91192 0
M  V30 5551 C 535.779 -4.39107 -1.26627 0
M  V30 5552 C 536.776 -5.15794 -0.652087 0
M  V30 5553 C 534.461 -4.85834 -1.27556 0
M  V30 5554 C 536.455 -6.37376 -0.055814 0
M  V30 5555 C 534.142 -6.07356 -0.675451 0
M  V30 5556 C 535.14 -6.82967 -0.0666367 0
M  V30 5557 O 534.828 -8.0219 0.524119 0
M  V30 5558 H 534.56 -0.613398 -0.284111 0
M  V30 5559 H 537.114 -2.04096 -0.231112 0
M  V30 5560 H 535.344 -2.79559 -2.67178 0
M  V30 5561 H 537.033 -3.18466 -2.51662 0
M  V30 5562 H 537.799 -4.80796 -0.637172 0
M  V30 5563 H 533.678 -4.26949 -1.73883 0
M  V30 5564 H 537.222 -6.96334 0.420004 0
M  V30 5565 H 533.119 -6.41825 -0.687806 0
M  V30 5566 H 533.887 -8.17426 0.419243 0
M  V30 5567 N 536.55 0.480323 -1.50102 0
M  V30 5568 C 537.48 1.58769 -1.71215 0
M  V30 5569 C 538.461 1.60583 -0.560997 0
M  V30 5570 O 539.646 1.76996 -0.799127 0
M  V30 5571 C 536.776 2.97148 -1.79778 0
M  V30 5572 C 535.73 3.10201 -2.94888 0
M  V30 5573 C 535.056 4.50137 -2.88584 0
M  V30 5574 C 536.356 2.88283 -4.35534 0
M  V30 5575 H 538.05 1.41354 -2.6393 0
M  V30 5576 H 535.596 0.678591 -1.27008 0
M  V30 5577 H 537.549 3.74536 -1.93133 0
M  V30 5578 H 536.273 3.15699 -0.836772 0
M  V30 5579 H 534.932 2.35244 -2.81169 0
M  V30 5580 H 534.58 4.65593 -1.90349 0
M  V30 5581 H 534.28 4.59808 -3.65856 0
M  V30 5582 H 535.804 5.29558 -3.03976 0
M  V30 5583 H 537.218 3.55427 -4.49827 0
M  V30 5584 H 535.615 3.09408 -5.14186 0
M  V30 5585 H 536.685 1.84219 -4.48544 0
M  V30 5586 N 538.028 1.39524 0.732853 0
M  V30 5587 C 539.439 1.32905 1.31122 0
M  V30 5588 C 539.79 -0.00558708 1.96199 0
M  V30 5589 O 538.915 -0.907706 1.96443 0
M  V30 5590 C 539.51 2.40704 2.38426 0
M  V30 5591 C 538.069 2.37599 2.91931 0
M  V30 5592 C 537.216 2.2248 1.65523 0
M  V30 5593 H 540.167 1.49581 0.530207 0
M  V30 5594 H 540.188 2.07616 3.18867 0
M  V30 5595 H 539.7 3.37829 1.91033 0
M  V30 5596 H 537.801 1.44119 3.43599 0
M  V30 5597 H 537.914 3.32538 3.44899 0
M  V30 5598 H 536.278 1.69691 1.8994 0
M  V30 5599 H 537.061 3.21577 1.20178 0
M  V30 5600 N 539.506 -0.963266 1.24736 0
M  V30 5601 C 540.753 -1.7068 1.0897 0
M  V30 5602 C 541.081 -1.90934 -0.370751 0
M  V30 5603 O 540.336 -1.47155 -1.29011 0
M  V30 5604 C 540.635 -3.09944 1.7796 0
M  V30 5605 C 540.301 -3.09518 3.27887 0
M  V30 5606 C 538.963 -3.09109 3.68789 0
M  V30 5607 C 541.315 -3.03509 4.23712 0
M  V30 5608 C 538.643 -3.00429 5.03944 0
M  V30 5609 C 540.995 -2.96371 5.5888 0
M  V30 5610 C 539.659 -2.94293 5.99123 0
M  V30 5611 H 538.929 -0.624564 0.398749 0
M  V30 5612 H 541.576 -1.12603 1.54896 0
M  V30 5613 H 539.881 -3.71513 1.2444 0
M  V30 5614 H 541.578 -3.66278 1.63222 0
M  V30 5615 H 538.168 -3.10603 2.95337 0
M  V30 5616 H 542.352 -3.0295 3.93109 0
M  V30 5617 H 537.608 -2.97183 5.34314 0
M  V30 5618 H 541.782 -2.90681 6.32833 0
M  V30 5619 H 539.409 -2.87322 7.03811 0
M  V30 5620 N 540.985 -1.06182 -1.16461 0
M  V30 5621 C 542.231 -0.779015 -1.87241 0
M  V30 5622 C 542.564 0.692715 -1.81425 0
M  V30 5623 O 541.839 1.5074 -1.22913 0
M  V30 5624 C 542.122 -1.2728 -3.36856 0
M  V30 5625 C 541.975 -2.80821 -3.51368 0
M  V30 5626 C 543.294 -0.879799 -4.31216 0
M  V30 5627 H 540.413 -0.284464 -0.679889 0
M  V30 5628 H 543.055 -1.31755 -1.36896 0
M  V30 5629 H 541.205 -0.814673 -3.79862 0
M  V30 5630 H 542.877 -3.34833 -3.17308 0
M  V30 5631 H 541.12 -3.19606 -2.93316 0
M  V30 5632 H 541.791 -3.10435 -4.56436 0
M  V30 5633 H 544.267 -1.27436 -3.96105 0
M  V30 5634 H 543.143 -1.25278 -5.34412 0
M  V30 5635 H 543.404 0.215372 -4.41575 0
M  V30 5636 N 542.463 1.3308 -0.844243 0
M  V30 5637 C 543.874 1.7992 -0.498566 0
M  V30 5638 C 544.225 1.69808 0.982834 0
M  V30 5639 O 543.35 1.25051 1.7661 0
M  V30 5640 C 543.945 3.26677 -0.898204 0
M  V30 5641 C 542.504 3.71513 -0.604583 0
M  V30 5642 C 541.651 2.54393 -1.10362 0
M  V30 5643 H 544.602 1.20526 -1.03244 0
M  V30 5644 H 544.623 3.79918 -0.21039 0
M  V30 5645 H 544.135 3.34004 -1.97643 0
M  V30 5646 H 542.236 3.69708 0.46335 0
M  V30 5647 H 542.349 4.64755 -1.16358 0
M  V30 5648 H 540.713 2.49246 -0.524273 0
M  V30 5649 H 541.496 2.6448 -2.18873 0
M  V30 5650 N 543.941 0.601185 1.45683 0
M  V30 5651 C 545.352 0.179659 1.85834 0
M  V30 5652 C 545.703 -1.26189 1.50236 0
M  V30 5653 O 544.828 -1.95587 0.925987 0
M  V30 5654 C 545.423 0.319277 3.37292 0
M  V30 5655 C 543.982 -0.0475092 3.7637 0
M  V30 5656 C 543.129 0.646692 2.69654 0
M  V30 5657 H 546.08 0.808268 1.36575 0
M  V30 5658 H 546.101 -0.4503 3.77826 0
M  V30 5659 H 545.613 1.36855 3.6317 0
M  V30 5660 H 543.714 -1.0962 3.5611 0
M  V30 5661 H 543.827 0.34168 4.7788 0
M  V30 5662 H 542.191 0.0849971 2.54558 0
M  V30 5663 H 542.974 1.69797 2.98369 0
M  V30 5664 N 545.419 -1.53889 0.339982 0
M  V30 5665 C 546.835 -1.59595 -0.0120752 0
M  V30 5666 C 547.035 -1.35605 -1.49042 0
M  V30 5667 O 546.091 -1.14856 -2.24865 0
M  V30 5668 C 547.404 -2.9774 0.420898 0
M  V30 5669 C 548.952 -3.1077 0.37294 0
M  V30 5670 C 549.427 -4.51286 0.781327 0
M  V30 5671 N 550.918 -4.57325 0.735374 0
M  V30 5672 C 551.653 -5.64194 1.02336 0
M  V30 5673 N 551.149 -6.7893 1.37933 0
M  V30 5674 N 552.942 -5.54051 0.947838 0
M  V30 5675 H 545.093 -1.67738 1.30299 0
M  V30 5676 H 547.356 -0.785385 0.530918 0
M  V30 5677 H 547.062 -3.20349 1.45152 0
M  V30 5678 H 546.936 -3.76639 -0.205721 0
M  V30 5679 H 549.323 -2.87886 -0.648505 0
M  V30 5680 H 549.404 -2.33939 1.03472 0
M  V30 5681 H 549.048 -4.74905 1.80077 0
M  V30 5682 H 548.978 -5.26511 0.0970679 0
M  V30 5683 H 551.469 -3.74931 0.472773 0
M  V30 5684 H 551.782 -7.56392 1.58402 0
M  V30 5685 H 550.127 -6.80386 1.41774 0
M  V30 5686 H 553.318 -4.63293 0.669115 0
M  V30 5687 H 553.491 -6.37246 1.17563 0
M  V30 5688 N 546.897 -0.0685191 -1.57451 0
M  V30 5689 C 547.86 0.885173 -2.11417 0
M  V30 5690 C 548.86 1.22853 -1.03748 0
M  V30 5691 O 550.05 1.16235 -1.2975 0
M  V30 5692 C 547.182 2.18964 -2.61281 0
M  V30 5693 H 548.375 0.417034 -2.96986 0
M  V30 5694 H 545.928 0.18014 -1.55258 0
M  V30 5695 H 546.663 2.70321 -1.79156 0
M  V30 5696 H 546.448 1.9534 -3.39977 0
M  V30 5697 H 547.938 2.87242 -3.0312 0
M  V30 5698 N 548.375 1.56261 0.205012 0
M  V30 5699 C 549.786 1.70056 0.770574 0
M  V30 5700 C 550.137 0.673398 1.84282 0
M  V30 5701 O 549.262 -0.172196 2.15714 0
M  V30 5702 C 549.857 3.08316 1.40451 0
M  V30 5703 C 548.416 3.2391 1.91727 0
M  V30 5704 C 547.563 2.66001 0.783516 0
M  V30 5705 H 550.514 1.58688 -0.019911 0
M  V30 5706 H 550.535 3.05094 2.27371 0
M  V30 5707 H 550.047 3.83053 0.623882 0
M  V30 5708 H 548.148 2.54072 2.7254 0
M  V30 5709 H 548.261 4.3131 2.08588 0
M  V30 5710 H 546.625 2.24915 1.19521 0
M  V30 5711 H 547.408 3.43297 0.0152883 0
M  V30 5712 N 549.853 -0.472356 1.50355 0
M  V30 5713 C 550.816 -1.5529 1.68576 0
M  V30 5714 C 551.816 -1.50863 0.556511 0
M  V30 5715 O 553.006 -1.53505 0.823516 0
M  V30 5716 C 550.138 -2.94921 1.70981 0
M  V30 5717 H 551.331 -1.40451 2.64978 0
M  V30 5718 H 548.884 -0.698645 1.39816 0
M  V30 5719 H 549.619 -3.15204 0.762675 0
M  V30 5720 H 549.404 -2.99541 2.53017 0
M  V30 5721 H 550.894 -3.73372 1.87037 0
M  V30 5722 N 551.331 -1.39911 -0.725443 0
M  V30 5723 C 552.294 -1.39156 -1.82121 0
M  V30 5724 C 553.294 -0.287018 -1.58218 0
M  V30 5725 O 554.484 -0.545421 -1.65441 0
M  V30 5726 C 551.616 -1.1736 -3.20062 0
M  V30 5727 H 552.809 -2.36672 -1.84191 0
M  V30 5728 H 550.362 -1.25615 -0.930079 0
M  V30 5729 H 551.097 -0.205648 -3.23647 0
M  V30 5730 H 550.882 -1.97358 -3.3881 0
M  V30 5731 H 552.372 -1.19596 -4.00108 0
M  V30 5732 N 552.809 0.956637 -1.25245 0
M  V30 5733 C 554.049 1.71585 -1.11076 0
M  V30 5734 C 554.413 1.88916 0.34277 0
M  V30 5735 O 555.614 2.61875 0.606227 0
M  V30 5736 C 553.885 3.06267 -1.84215 0
M  V30 5737 S 555.444 3.97469 -1.85914 0
M  V30 5738 H 552.262 0.589803 -0.397055 0
M  V30 5739 H 554.864 1.14114 -1.58739 0
M  V30 5740 H 553.568 2.91322 -2.89067 0
M  V30 5741 H 553.099 3.688 -1.36931 0
M  V30 5742 H 555.114 4.87316 -0.93474 0
M  V30 5743 N 554.287 1.06798 1.15896 0
M  V30 5744 C 555.25 0.687328 2.18651 0
M  V30 5745 C 556.25 -0.269559 1.58524 0
M  V30 5746 O 557.44 -0.0512627 1.74125 0
M  V30 5747 C 554.572 0.0121642 3.40898 0
M  V30 5748 H 555.765 1.59701 2.53842 0
M  V30 5749 H 553.318 0.863828 1.3026 0
M  V30 5750 H 554.053 -0.910025 3.1127 0
M  V30 5751 H 553.838 0.700309 3.85795 0
M  V30 5752 H 555.328 -0.239703 4.16911 0
M  V30 5753 N 555.766 -1.3263 0.851289 0
M  V30 5754 C 557.177 -1.79653 0.5081 0
M  V30 5755 C 557.528 -1.70327 -0.973815 0
M  V30 5756 O 556.653 -1.25986 -1.75944 0
M  V30 5757 C 557.248 -3.26196 0.915515 0
M  V30 5758 C 555.807 -3.71187 0.624277 0
M  V30 5759 C 554.954 -2.53804 1.11709 0
M  V30 5760 H 557.905 -1.19976 1.03882 0
M  V30 5761 H 557.926 -3.79801 0.230535 0
M  V30 5762 H 557.438 -3.32952 1.99411 0
M  V30 5763 H 555.539 -3.69948 -0.443737 0
M  V30 5764 H 555.652 -4.64132 1.18821 0
M  V30 5765 H 554.016 -2.48964 0.537484 0
M  V30 5766 H 554.799 -2.63315 2.20272 0
M  V30 5767 N 557.244 -0.608902 -1.45362 0
M  V30 5768 C 558.154 0.110969 -2.34337 0
M  V30 5769 C 559.17 0.859007 -1.51318 0
M  V30 5770 O 560.346 0.816296 -1.84116 0
M  V30 5771 C 557.411 1.09494 -3.28956 0
M  V30 5772 C 556.472 0.348718 -4.27881 0
M  V30 5773 C 555.705 1.28582 -5.17979 0
M  V30 5774 O 555.928 2.52369 -5.11533 0
M  V30 5775 O 554.862 0.782172 -5.96796 0
M  V30 5776 H 558.688 -0.620258 -2.97299 0
M  V30 5777 H 556.273 -0.36916 -1.44767 0
M  V30 5778 H 558.155 1.66163 -3.87257 0
M  V30 5779 H 556.83 1.80717 -2.68557 0
M  V30 5780 H 555.737 -0.260465 -3.73192 0
M  V30 5781 H 557.07 -0.323049 -4.91139 0
M  V30 5782 N 558.722 1.53707 -0.348139 0
M  V30 5783 C 560.133 1.86213 0.134797 0
M  V30 5784 C 560.484 1.26925 1.49614 0
M  V30 5785 O 559.609 0.584573 2.08355 0
M  V30 5786 C 560.204 3.37866 0.251371 0
M  V30 5787 C 558.763 3.70233 0.678543 0
M  V30 5788 C 557.91 2.76683 -0.184925 0
M  V30 5789 H 560.861 1.48204 -0.567571 0
M  V30 5790 H 560.882 3.64908 1.07806 0
M  V30 5791 H 560.394 3.80988 -0.739581 0
M  V30 5792 H 558.495 3.32659 1.67835 0
M  V30 5793 H 558.608 4.76836 0.465251 0
M  V30 5794 H 556.972 2.52374 0.343465 0
M  V30 5795 H 557.755 3.22635 -1.1731 0
M  V30 5796 N 560.2 0.0768682 1.57412 0
M  V30 5797 C 561.448 -0.589918 1.93299 0
M  V30 5798 C 561.769 -1.69842 0.958049 0
M  V30 5799 O 561.039 -1.95899 0.00703261 0
M  V30 5800 H 559.619 -0.220901 0.713591 0
M  V30 5801 H 562.281 0.135917 1.94425 0
M  V30 5802 H 561.377 -1.01195 2.95239 0
M  V30 5803 N 561.678 -1.56367 -0.196722 0
M  V30 5804 C 562.927 -1.79724 -0.915539 0
M  V30 5805 C 563.24 -0.649804 -1.84491 0
M  V30 5806 O 564.446 -0.767631 -2.60422 0
M  V30 5807 C 562.902 -3.18369 -1.67836 0
M  V30 5808 C 562.51 -4.4091 -0.793897 0
M  V30 5809 C 564.254 -3.51037 -2.38691 0
M  V30 5810 C 562.161 -5.70577 -1.55549 0
M  V30 5811 H 561.091 -0.67013 -0.345604 0
M  V30 5812 H 563.742 -1.82721 -0.168856 0
M  V30 5813 H 562.124 -3.09617 -2.46887 0
M  V30 5814 H 563.298 -4.60781 -0.042163 0
M  V30 5815 H 561.613 -4.15937 -0.19626 0
M  V30 5816 H 564.21 -4.4515 -2.96219 0
M  V30 5817 H 564.553 -2.74704 -3.12799 0
M  V30 5818 H 565.086 -3.61229 -1.66608 0
M  V30 5819 H 561.825 -6.49871 -0.857226 0
M  V30 5820 H 561.345 -5.54726 -2.2812 0
M  V30 5821 H 563.024 -6.11637 -2.10971 0
M  V30 5822 N 563.156 0.464375 -1.50603 0
M  V30 5823 C 564.567 1.04507 -1.5471 0
M  V30 5824 C 564.918 1.9297 -0.354542 0
M  V30 5825 O 564.043 2.09763 0.531812 0
M  V30 5826 C 564.638 1.90207 -2.80369 0
M  V30 5827 C 563.197 2.43373 -2.87135 0
M  V30 5828 C 562.344 1.21886 -2.49076 0
M  V30 5829 H 565.295 0.246716 -1.56771 0
M  V30 5830 H 565.316 2.75353 -2.62604 0
M  V30 5831 H 564.828 1.25796 -3.67147 0
M  V30 5832 H 562.929 3.11318 -2.04724 0
M  V30 5833 H 563.042 2.7802 -3.90181 0
M  V30 5834 H 561.406 1.55575 -2.01664 0
M  V30 5835 H 562.189 0.591268 -3.3817 0
M  V30 5836 N 564.634 1.40294 0.718013 0
M  V30 5837 C 565.882 1.38167 1.47494 0
M  V30 5838 C 566.203 -0.01607 1.94993 0
M  V30 5839 O 565.473 -0.970396 1.70177 0
M  V30 5840 H 564.053 0.508505 0.547203 0
M  V30 5841 H 566.715 1.75324 0.851322 0
M  V30 5842 H 565.811 2.05503 2.34894 0
M  V30 5843 N 566.112 -0.949982 1.2575 0
M  V30 5844 C 567.022 -2.08109 1.08295 0
M  V30 5845 C 568.038 -1.7399 0.0188181 0
M  V30 5846 O 569.214 -2.00187 0.220724 0
M  V30 5847 C 566.279 -3.39383 0.708534 0
M  V30 5848 C 565.34 -3.8734 1.85111 0
M  V30 5849 C 564.573 -5.12349 1.49447 0
M  V30 5850 O 564.796 -5.6905 0.392212 0
M  V30 5851 O 563.73 -5.5513 2.32624 0
M  V30 5852 H 567.556 -2.25738 2.03165 0
M  V30 5853 H 565.141 -1.06545 1.04731 0
M  V30 5854 H 567.023 -4.18277 0.512061 0
M  V30 5855 H 565.698 -3.23013 -0.210854 0
M  V30 5856 H 564.605 -3.09429 2.10248 0
M  V30 5857 H 565.938 -4.08216 2.74991 0
M  V30 5858 N 567.59 -1.07411 -1.15328 0
M  V30 5859 C 568.818 -0.818782 -1.90009 0
M  V30 5860 C 569.233 0.628072 -1.78047 0
M  V30 5861 O 568.59 1.43085 -1.13282 0
M  V30 5862 C 568.641 -1.21874 -3.40337 0
M  V30 5863 O 568.362 -2.60883 -3.51954 0
M  V30 5864 C 569.863 -0.992796 -4.3204 0
M  V30 5865 H 567.083 -0.296007 -0.60218 0
M  V30 5866 H 569.627 -1.43073 -1.46117 0
M  V30 5867 H 567.782 -0.651103 -3.81889 0
M  V30 5868 H 568.196 -2.77216 -4.45255 0
M  V30 5869 H 569.67 -1.32215 -5.35932 0
M  V30 5870 H 570.147 0.0708331 -4.39143 0
M  V30 5871 H 570.753 -1.54537 -3.9623 0
M  V30 5872 N 569.068 1.32177 -0.85831 0
M  V30 5873 C 570.484 1.49873 -0.548656 0
M  V30 5874 C 570.684 1.79278 0.919874 0
M  V30 5875 O 569.74 1.86451 1.70271 0
M  V30 5876 C 571.053 2.64043 -1.4388 0
M  V30 5877 C 572.601 2.77928 -1.43961 0
M  V30 5878 C 573.076 3.95182 -2.31506 0
M  V30 5879 N 574.567 4.0245 -2.29321 0
M  V30 5880 C 575.302 4.9242 -2.93786 0
M  V30 5881 N 574.798 5.87373 -3.67376 0
M  V30 5882 N 576.591 4.85572 -2.83155 0
M  V30 5883 H 568.742 1.11357 -1.80868 0
M  V30 5884 H 571.005 0.549175 -0.772729 0
M  V30 5885 H 570.711 2.49055 -2.48324 0
M  V30 5886 H 570.585 3.59912 -1.12885 0
M  V30 5887 H 572.972 2.92338 -0.402813 0
M  V30 5888 H 573.053 1.82762 -1.78974 0
M  V30 5889 H 572.697 3.81531 -3.35256 0
M  V30 5890 H 572.627 4.89633 -1.93823 0
M  V30 5891 H 575.118 3.34507 -1.75822 0
M  V30 5892 H 575.431 6.52728 -4.13722 0
M  V30 5893 H 573.776 5.87388 -3.71484 0
M  V30 5894 H 576.967 4.10363 -2.25211 0
M  V30 5895 H 577.14 5.55486 -3.33676 0
M  V30 5896 N 570.547 0.616602 1.45037 0
M  V30 5897 C 571.795 0.115103 2.01772 0
M  V30 5898 C 572.116 -1.2622 1.48639 0
M  V30 5899 O 571.386 -1.83563 0.684199 0
M  V30 5900 H 569.966 0.0395607 0.745952 0
M  V30 5901 H 572.628 0.800032 1.77723 0
M  V30 5902 H 571.724 0.0717274 3.12018 0
M  V30 5903 N 572.025 -1.5352 0.356285 0
M  V30 5904 C 573.436 -1.86282 -0.12492 0
M  V30 5905 C 573.787 -1.27717 -1.48939 0
M  V30 5906 O 572.912 -0.595614 -2.08042 0
M  V30 5907 C 573.507 -3.37995 -0.23345 0
M  V30 5908 C 572.066 -3.70588 -0.658899 0
M  V30 5909 C 571.213 -2.76581 0.199596 0
M  V30 5910 H 574.164 -1.47901 0.575423 0
M  V30 5911 H 574.185 -3.65475 -1.0587 0
M  V30 5912 H 573.697 -3.8059 0.759776 0
M  V30 5913 H 571.798 -3.33544 -1.66069 0
M  V30 5914 H 571.911 -4.77076 -0.439957 0
M  V30 5915 H 570.275 -2.52552 -0.330076 0
M  V30 5916 H 571.058 -3.22008 1.19019 0
M  V30 5917 N 573.503 -0.0852151 -1.57369 0
M  V30 5918 C 574.743 0.584297 -1.95871 0
M  V30 5919 C 575.107 1.6596 -0.965473 0
M  V30 5920 O 576.308 2.38561 -1.23862 0
M  V30 5921 C 574.579 1.13411 -3.38929 0
M  V30 5922 S 576.138 1.81687 -3.99419 0
M  V30 5923 H 572.956 0.19095 -0.684879 0
M  V30 5924 H 575.558 -0.162267 -1.94825 0
M  V30 5925 H 574.262 0.339845 -4.0899 0
M  V30 5926 H 573.793 1.91672 -3.43548 0
M  V30 5927 H 575.808 3.10037 -3.87417 0
M  V30 5928 N 574.981 1.5647 0.188427 0
M  V30 5929 C 576.228 1.81013 0.907779 0
M  V30 5930 C 576.556 0.65953 1.82977 0
M  V30 5931 O 575.811 -0.354308 1.92466 0
M  V30 5932 C 576.11 3.11596 1.7505 0
M  V30 5933 C 575.776 4.40145 0.978922 0
M  V30 5934 C 574.438 4.75066 0.765912 0
M  V30 5935 C 576.79 5.19369 0.436498 0
M  V30 5936 C 574.118 5.867 -0.00089868 0
M  V30 5937 C 576.47 6.31805 -0.317136 0
M  V30 5938 C 575.134 6.65303 -0.541103 0
M  V30 5939 H 574.404 0.662373 0.33218 0
M  V30 5940 H 577.051 1.9071 0.173732 0
M  V30 5941 H 575.356 2.97165 2.55343 0
M  V30 5942 H 577.053 3.27793 2.30983 0
M  V30 5943 H 573.643 4.12745 1.15497 0
M  V30 5944 H 577.827 4.92799 0.588449 0
M  V30 5945 H 573.083 6.11122 -0.184329 0
M  V30 5946 H 577.257 6.92406 -0.744788 0
M  V30 5947 H 574.884 7.51646 -1.13718 0
M  V30 5948 N 576.459 -0.456382 1.50847 0
M  V30 5949 C 577.389 -1.56025 1.73719 0
M  V30 5950 C 578.37 -1.5967 0.586473 0
M  V30 5951 O 579.555 -1.75702 0.827185 0
M  V30 5952 C 576.685 -2.94251 1.84483 0
M  V30 5953 C 575.639 -3.05471 2.99786 0
M  V30 5954 C 574.965 -4.45489 2.95709 0
M  V30 5955 C 576.265 -2.81318 4.40065 0
M  V30 5956 H 577.959 -1.37138 2.66146 0
M  V30 5957 H 575.505 -0.658299 1.28072 0
M  V30 5958 H 577.458 -3.71417 1.99067 0
M  V30 5959 H 576.182 -3.14328 0.886891 0
M  V30 5960 H 574.841 -2.30741 2.84876 0
M  V30 5961 H 574.489 -4.62505 1.97732 0
M  V30 5962 H 574.189 -4.53929 3.73125 0
M  V30 5963 H 575.713 -5.24655 3.12362 0
M  V30 5964 H 577.127 -3.48226 4.55425 0
M  V30 5965 H 575.524 -3.01188 5.19043 0
M  V30 5966 H 576.594 -1.7706 4.51418 0
M  V30 5967 N 577.937 -1.40673 -0.710563 0
M  V30 5968 C 578.9 -1.4108 -1.80635 0
M  V30 5969 C 579.9 -0.303783 -1.57904 0
M  V30 5970 O 581.09 -0.562937 -1.64853 0
M  V30 5971 C 578.222 -1.20748 -3.18799 0
M  V30 5972 H 579.415 -2.38612 -1.81671 0
M  V30 5973 H 576.968 -1.26595 -0.916704 0
M  V30 5974 H 577.703 -0.239964 -3.23411 0
M  V30 5975 H 577.488 -2.00941 -3.36698 0
M  V30 5976 H 578.978 -1.23833 -3.98817 0
M  V30 5977 N 579.415 0.9433 -1.26252 0
M  V30 5978 C 580.663 1.68592 -1.11451 0
M  V30 5979 C 580.984 1.91957 0.343123 0
M  V30 5980 O 580.254 1.51475 1.24226 0
M  V30 5981 H 578.834 0.624789 -0.409448 0
M  V30 5982 H 581.496 1.13351 -1.58548 0
M  V30 5983 H 580.592 2.66054 -1.63162 0
M  V30 5984 N 580.893 1.08022 1.14757 0
M  V30 5985 C 582.17 0.720386 1.81851 0
M  V30 5986 C 582.55 -0.796375 1.95502 0
M  V30 5987 O 581.898 -1.71339 1.51179 0
M  V30 5988 C 582.108 1.44273 3.17783 0
M  V30 5989 C 583.456 1.59925 3.93331 0
M  V30 5990 O 584.48 1.40407 3.2736 0
M  V30 5991 O 583.339 1.92096 5.11626 0
M  V30 5992 H 580.433 0.257142 0.786007 0
M  V30 5993 H 582.979 1.18155 1.21809 0
M  V30 5994 H 581.751 2.47618 3.02987 0
M  V30 5995 H 581.374 0.97279 3.85516 0
M  V30 5996 N 582.371 -1.3172 0.865308 0
M  V30 5997 C 583.619 -1.96487 0.472995 0
M  V30 5998 C 583.94 -1.68761 -0.976975 0
M  V30 5999 O 583.21 -1.00051 -1.68424 0
M  V30 6000 H 581.79 -0.726947 0.171922 0
M  V30 6001 H 584.452 -1.60612 1.10407 0
M  V30 6002 H 583.548 -3.0574 0.62687 0
M  V30 6003 N 583.85 -0.624285 -1.44708 0
M  V30 6004 C 585.266 -0.289322 -1.56956 0
M  V30 6005 C 585.466 1.20773 -1.61295 0
M  V30 6006 O 584.522 1.9915 -1.55227 0
M  V30 6007 C 585.835 -0.975215 -2.84447 0
M  V30 6008 C 587.383 -0.952709 -2.98148 0
M  V30 6009 C 587.858 -1.61893 -4.28433 0
M  V30 6010 N 589.349 -1.5852 -4.35231 0
M  V30 6011 C 590.084 -2.06969 -5.34744 0
M  V30 6012 N 589.58 -2.63579 -6.40701 0
M  V30 6013 N 591.373 -1.97638 -5.26209 0
M  V30 6014 H 583.524 -1.59612 -1.40135 0
M  V30 6015 H 585.787 -0.669592 -0.671081 0
M  V30 6016 H 585.493 -2.02999 -2.87201 0
M  V30 6017 H 585.367 -0.508749 -3.73753 0
M  V30 6018 H 587.754 0.093568 -2.94952 0
M  V30 6019 H 587.835 -1.4576 -2.10209 0
M  V30 6020 H 587.479 -2.66463 -4.32389 0
M  V30 6021 H 587.409 -1.08893 -5.15218 0
M  V30 6022 H 589.899 -1.17183 -3.59272 0
M  V30 6023 H 590.213 -2.98298 -7.12908 0
M  V30 6024 H 588.558 -2.67626 -6.41406 0
M  V30 6025 H 591.749 -1.5314 -4.42341 0
M  V30 6026 H 591.922 -2.35708 -6.03611 0
M  V30 6027 N 585.328 1.53329 -0.364422 0
M  V30 6028 C 586.291 2.24323 0.470292 0
M  V30 6029 C 587.291 1.25068 1.01067 0
M  V30 6030 O 588.481 1.49354 0.896605 0
M  V30 6031 C 585.613 2.97908 1.65722 0
M  V30 6032 H 586.806 2.9952 -0.150917 0
M  V30 6033 H 584.359 1.55868 -0.116092 0
M  V30 6034 H 585.094 2.2695 2.31655 0
M  V30 6035 H 584.879 3.70732 1.27671 0
M  V30 6036 H 586.369 3.5188 2.24878 0
M  V30 6037 N 586.806 0.0935595 1.57322 0
M  V30 6038 C 588.031 -0.582324 1.99057 0
M  V30 6039 C 588.456 -1.61025 0.972242 0
M  V30 6040 O 587.814 -1.81202 -0.0594622 0
M  V30 6041 C 587.862 -1.20799 3.39765 0
M  V30 6042 O 586.966 -2.32382 3.40694 0
M  V30 6043 H 586.307 -0.147884 0.647323 0
M  V30 6044 H 588.837 0.174516 2.03854 0
M  V30 6045 H 588.847 -1.54966 3.77425 0
M  V30 6046 H 587.522 -0.454914 4.13405 0
M  V30 6047 H 586.099 -1.99845 3.14827 0
M  V30 6048 N 588.284 -1.56567 -0.180126 0
M  V30 6049 C 589.194 -1.98947 -1.24327 0
M  V30 6050 C 590.21 -0.899446 -1.4895 0
M  V30 6051 O 591.386 -1.20639 -1.61271 0
M  V30 6052 C 588.451 -2.33328 -2.56435 0
M  V30 6053 C 587.512 -3.56114 -2.39752 0
M  V30 6054 C 586.745 -3.88845 -3.65561 0
M  V30 6055 O 586.968 -3.22662 -4.70368 0
M  V30 6056 O 585.902 -4.82226 -3.60197 0
M  V30 6057 H 589.728 -2.89634 -0.913565 0
M  V30 6058 H 587.313 -1.44319 -0.386306 0
M  V30 6059 H 589.195 -2.5645 -3.34382 0
M  V30 6060 H 587.87 -1.45806 -2.89002 0
M  V30 6061 H 586.777 -3.38221 -1.59866 0
M  V30 6062 H 588.11 -4.4415 -2.12113 0
M  V30 6063 N 589.762 0.448376 -1.51087 0
M  V30 6064 C 591.008 1.20049 -1.6345 0
M  V30 6065 C 591.341 1.91121 -0.344444 0
M  V30 6066 O 590.616 1.83125 0.655396 0
M  V30 6067 C 590.899 2.22624 -2.83038 0
M  V30 6068 C 590.752 1.55708 -4.21989 0
M  V30 6069 C 592.071 3.23718 -2.98152 0
M  V30 6070 H 589.19 0.435085 -0.59487 0
M  V30 6071 H 591.832 0.491183 -1.83541 0
M  V30 6072 H 589.982 2.83117 -2.66039 0
M  V30 6073 H 591.654 0.986367 -4.50631 0
M  V30 6074 H 589.897 0.859647 -4.25197 0
M  V30 6075 H 590.568 2.30357 -5.01637 0
M  V30 6076 H 593.044 2.73269 -3.13788 0
M  V30 6077 H 591.92 3.92795 -3.83411 0
M  V30 6078 H 592.181 3.89179 -2.09743 0
M  V30 6079 N 591.24 1.41047 0.703093 0
M  V30 6080 C 592.651 1.35657 1.28274 0
M  V30 6081 C 593.002 0.0360309 1.96167 0
M  V30 6082 O 592.127 -0.865833 1.98324 0
M  V30 6083 C 592.722 2.45707 2.33267 0
M  V30 6084 C 591.281 2.43738 2.86825 0
M  V30 6085 C 590.428 2.25941 1.60767 0
M  V30 6086 H 593.379 1.50672 0.49836 0
M  V30 6087 H 593.4 2.14333 3.14391 0
M  V30 6088 H 592.912 3.41805 1.83824 0
M  V30 6089 H 591.013 1.51375 3.40465 0
M  V30 6090 H 591.126 3.39779 3.37768 0
M  V30 6091 H 589.49 1.73681 1.86298 0
M  V30 6092 H 590.273 3.24054 1.1333 0
M  V30 6093 N 592.718 -0.936591 1.26751 0
M  V30 6094 C 593.943 -1.72288 1.15462 0
M  V30 6095 C 594.368 -1.85915 -0.285887 0
M  V30 6096 O 593.726 -1.35272 -1.20711 0
M  V30 6097 C 593.774 -3.10503 1.83359 0
M  V30 6098 O 592.878 -3.96745 1.1255 0
M  V30 6099 H 592.219 -0.52843 0.402067 0
M  V30 6100 H 594.749 -1.17271 1.67656 0
M  V30 6101 H 594.759 -3.60867 1.90365 0
M  V30 6102 H 593.434 -2.99901 2.88153 0
M  V30 6103 H 592.011 -3.55191 1.13551 0
M  V30 6104 N 594.196 -1.08629 -1.14182 0
M  V30 6105 C 595.126 -0.740003 -2.21464 0
M  V30 6106 C 596.107 0.278591 -1.67803 0
M  V30 6107 O 597.292 0.148461 -1.93632 0
M  V30 6108 C 594.422 -0.150952 -3.46972 0
M  V30 6109 C 593.376 -1.09815 -4.13672 0
M  V30 6110 C 592.702 -0.3712 -5.3341 0
M  V30 6111 C 594.002 -2.43722 -4.61949 0
M  V30 6112 H 595.696 -1.63697 -2.50686 0
M  V30 6113 H 593.242 -0.788526 -1.20492 0
M  V30 6114 H 595.195 0.103325 -4.21273 0
M  V30 6115 H 593.919 0.781164 -3.1712 0
M  V30 6116 H 592.578 -1.33756 -3.41328 0
M  V30 6117 H 592.226 0.564792 -4.99819 0
M  V30 6118 H 591.926 -1.00267 -5.78982 0
M  V30 6119 H 593.45 -0.12503 -6.10472 0
M  V30 6120 H 594.864 -2.24034 -5.27714 0
M  V30 6121 H 593.261 -3.02582 -5.18232 0
M  V30 6122 H 594.331 -3.05082 -3.76899 0
M  V30 6123 N 595.674 1.31259 -0.872281 0
M  V30 6124 C 596.902 2.00795 -0.498907 0
M  V30 6125 C 597.317 1.65464 0.909238 0
M  V30 6126 O 596.674 0.885073 1.59602 0
M  V30 6127 C 596.725 3.55625 -0.649092 0
M  V30 6128 O 596.446 3.89692 -2.00179 0
M  V30 6129 C 597.947 4.42434 -0.277034 0
M  V30 6130 H 595.167 0.642299 -0.194145 0
M  V30 6131 H 597.711 1.67438 -1.17408 0
M  V30 6132 H 595.866 3.87394 -0.0214402 0
M  V30 6133 H 596.28 4.84407 -2.01122 0
M  V30 6134 H 597.754 5.50299 -0.433064 0
M  V30 6135 H 598.231 4.32146 0.783989 0
M  V30 6136 H 598.837 4.16086 -0.880483 0
M  V30 6137 N 597.152 0.631951 1.44375 0
M  V30 6138 C 598.115 -0.0628142 2.29114 0
M  V30 6139 C 599.115 -0.771494 1.41084 0
M  V30 6140 O 600.305 -0.615959 1.62947 0
M  V30 6141 C 597.437 -1.09953 3.22681 0
M  V30 6142 H 598.63 0.682509 2.92031 0
M  V30 6143 H 596.183 0.392128 1.51301 0
M  V30 6144 H 596.918 -1.87481 2.64616 0
M  V30 6145 H 596.703 -0.595286 3.87555 0
M  V30 6146 H 598.193 -1.58538 3.86336 0
M  V30 6147 N 598.631 -1.53133 0.372548 0
M  V30 6148 C 599.561 -2.28876 -0.462412 0
M  V30 6149 C 600.542 -1.31583 -1.07796 0
M  V30 6150 O 601.727 -1.60461 -1.09389 0
M  V30 6151 C 598.857 -3.08317 -1.59868 0
M  V30 6152 C 597.811 -4.13355 -1.11003 0
M  V30 6153 C 597.137 -4.8092 -2.33708 0
M  V30 6154 C 598.437 -5.21955 -0.18983 0
M  V30 6155 H 600.131 -2.9892 0.169511 0
M  V30 6156 H 597.677 -1.43761 0.0829658 0
M  V30 6157 H 599.63 -3.60055 -2.18949 0
M  V30 6158 H 598.354 -2.35976 -2.25794 0
M  V30 6159 H 597.013 -3.62573 -0.541869 0
M  V30 6160 H 596.661 -4.05144 -2.98106 0
M  V30 6161 H 596.361 -5.51904 -2.01682 0
M  V30 6162 H 597.885 -5.35455 -2.93462 0
M  V30 6163 H 599.299 -5.69153 -0.688319 0
M  V30 6164 H 597.696 -6.00087 0.0398887 0
M  V30 6165 H 598.766 -4.78811 0.766057 0
M  V30 6166 N 600.109 -0.101901 -1.5727 0
M  V30 6167 C 601.059 0.865346 -2.1094 0
M  V30 6168 C 602.043 1.2394 -1.02605 0
M  V30 6169 O 603.235 1.21334 -1.28868 0
M  V30 6170 C 600.364 2.12187 -2.69874 0
M  V30 6171 C 599.45 1.77295 -3.85263 0
M  V30 6172 N 599.841 1.12993 -4.93017 0
M  V30 6173 C 598.139 2.06862 -3.95126 0
M  V30 6174 C 598.84 0.968631 -5.73579 0
M  V30 6175 N 597.816 1.48814 -5.22834 0
M  V30 6176 H 601.618 0.364368 -2.91633 0
M  V30 6177 H 599.132 0.101104 -1.62085 0
M  V30 6178 H 601.129 2.82431 -3.06657 0
M  V30 6179 H 599.789 2.62844 -1.90639 0
M  V30 6180 H 600.8 0.795935 -5.11747 0
M  V30 6181 H 597.477 2.59686 -3.26909 0
M  V30 6182 H 598.867 0.465231 -6.70287 0
M  V30 6183 N 601.587 1.56661 0.17182 0
M  V30 6184 C 602.815 1.861 0.904115 0
M  V30 6185 C 603.23 0.687227 1.75848 0
M  V30 6186 O 602.587 -0.343671 1.79235 0
M  V30 6187 C 602.638 3.14568 1.78127 0
M  V30 6188 O 602.359 4.27422 0.961366 0
M  V30 6189 C 603.86 3.5735 2.62327 0
M  V30 6190 H 601.08 0.617445 0.262684 0
M  V30 6191 H 603.624 2.03775 0.172068 0
M  V30 6192 H 601.779 2.98721 2.46666 0
M  V30 6193 H 602.193 5.00725 1.56123 0
M  V30 6194 H 603.667 4.50144 3.1949 0
M  V30 6195 H 604.144 2.81445 3.37173 0
M  V30 6196 H 604.75 3.75807 1.99121 0
M  V30 6197 N 603.065 -0.440357 1.51323 0
M  V30 6198 C 603.995 -1.54174 1.75364 0
M  V30 6199 C 604.976 -1.59039 0.603375 0
M  V30 6200 O 606.161 -1.74815 0.845774 0
M  V30 6201 C 603.291 -2.92277 1.87593 0
M  V30 6202 C 602.245 -3.02274 3.03009 0
M  V30 6203 C 601.571 -4.42327 3.00418 0
M  V30 6204 C 602.871 -2.76634 4.43024 0
M  V30 6205 H 604.565 -1.34307 2.67585 0
M  V30 6206 H 602.111 -0.644678 1.28763 0
M  V30 6207 H 604.064 -3.69284 2.02995 0
M  V30 6208 H 602.788 -3.13369 0.920179 0
M  V30 6209 H 601.447 -2.27706 2.87307 0
M  V30 6210 H 601.095 -4.60382 2.02626 0
M  V30 6211 H 600.795 -4.49946 3.77918 0
M  V30 6212 H 602.319 -5.21312 3.17909 0
M  V30 6213 H 603.733 -3.43376 4.59093 0
M  V30 6214 H 602.13 -2.95666 5.22208 0
M  V30 6215 H 603.2 -1.72262 4.5327 0
M  V30 6216 N 604.543 -1.41418 -0.695603 0
M  V30 6217 C 605.789 -1.41983 -1.45645 0
M  V30 6218 C 606.144 -0.0282216 -1.92379 0
M  V30 6219 O 605.437 0.945916 -1.66622 0
M  V30 6220 C 605.631 -2.36112 -2.68302 0
M  V30 6221 C 605.46 -3.84288 -2.33566 0
M  V30 6222 C 604.23 -4.52971 -2.23932 0
M  V30 6223 C 606.428 -4.75264 -1.96543 0
M  V30 6224 N 604.41 -5.86276 -1.82081 0
M  V30 6225 C 605.781 -5.97517 -1.6545 0
M  V30 6226 C 607.836 -4.62911 -1.83352 0
M  V30 6227 C 606.539 -7.08793 -1.22492 0
M  V30 6228 C 608.565 -5.74149 -1.41799 0
M  V30 6229 C 607.927 -6.95501 -1.11617 0
M  V30 6230 H 604.026 -0.574771 -0.530247 0
M  V30 6231 H 606.61 -1.77289 -0.804788 0
M  V30 6232 H 604.781 -2.02902 -3.31188 0
M  V30 6233 H 606.513 -2.27397 -3.34773 0
M  V30 6234 H 603.268 -4.06909 -2.42327 0
M  V30 6235 H 603.692 -6.56926 -1.63638 0
M  V30 6236 H 608.334 -3.69588 -2.05341 0
M  V30 6237 H 606.052 -8.01982 -0.992482 0
M  V30 6238 H 609.638 -5.66595 -1.32143 0
M  V30 6239 H 608.518 -7.80114 -0.799493 0
M  V30 6240 N 606.021 0.929856 -1.27246 0
M  V30 6241 C 606.951 2.04722 -1.12299 0
M  V30 6242 C 607.932 1.70082 -0.0250464 0
M  V30 6243 O 609.117 1.93176 -0.199141 0
M  V30 6244 C 606.247 3.38721 -0.767145 0
M  V30 6245 C 605.201 3.87466 -1.81808 0
M  V30 6246 C 604.527 5.18246 -1.31626 0
M  V30 6247 C 605.827 4.11095 -3.22177 0
M  V30 6248 H 607.521 2.17485 -2.05769 0
M  V30 6249 H 605.067 1.04503 -0.990715 0
M  V30 6250 H 607.02 4.16366 -0.649413 0
M  V30 6251 H 605.744 3.25967 0.203259 0
M  V30 6252 H 604.403 3.12012 -1.92468 0
M  V30 6253 H 604.051 5.01881 -0.335378 0
M  V30 6254 H 603.751 5.51829 -2.01887 0
M  V30 6255 H 605.275 5.98462 -1.21143 0
M  V30 6256 H 606.689 4.79316 -3.1453 0
M  V30 6257 H 605.086 4.55982 -3.90129 0
M  V30 6258 H 606.156 3.16468 -3.67391 0
M  V30 6259 N 607.499 1.09233 1.13605 0
M  V30 6260 C 608.915 0.82163 1.36826 0
M  V30 6261 C 609.115 -0.565021 1.93416 0
M  V30 6262 O 608.171 -1.32026 2.15234 0
M  V30 6263 C 609.484 1.91124 2.32147 0
M  V30 6264 C 611.032 1.93824 2.45767 0
M  V30 6265 C 611.507 3.01923 3.44393 0
M  V30 6266 N 612.998 3.01149 3.51942 0
M  V30 6267 C 613.733 3.81434 4.2813 0
M  V30 6268 N 613.229 4.71621 5.07489 0
M  V30 6269 N 615.022 3.69702 4.23411 0
M  V30 6270 H 607.173 1.98633 0.752234 0
M  V30 6271 H 609.436 0.862482 0.393482 0
M  V30 6272 H 609.142 2.90862 1.97717 0
M  V30 6273 H 609.016 1.78777 3.32142 0
M  V30 6274 H 611.403 0.94726 2.79483 0
M  V30 6275 H 611.484 2.10248 1.45703 0
M  V30 6276 H 611.128 4.01232 3.11408 0
M  V30 6277 H 611.058 2.82742 4.44257 0
M  V30 6278 H 613.549 2.35789 2.95317 0
M  V30 6279 H 613.862 5.29468 5.62924 0
M  V30 6280 H 612.207 4.75658 5.06729 0
M  V30 6281 H 615.398 2.98606 3.60489 0
M  V30 6282 H 615.571 4.32509 4.82535 0
M  V30 6283 N 608.977 -1.30795 0.87923 0
M  V30 6284 C 609.887 -2.32041 0.345565 0
M  V30 6285 C 610.903 -1.65103 -0.549265 0
M  V30 6286 O 612.079 -1.9645 -0.443763 0
M  V30 6287 C 609.144 -3.43944 -0.436245 0
M  V30 6288 C 608.205 -4.26521 0.48765 0
M  V30 6289 C 607.438 -5.33081 -0.256943 0
M  V30 6290 O 607.661 -5.50762 -1.48381 0
M  V30 6291 O 606.595 -6.00635 0.389985 0
M  V30 6292 H 610.421 -2.79627 1.18501 0
M  V30 6293 H 608.006 -1.3486 0.642885 0
M  V30 6294 H 609.888 -4.12128 -0.879119 0
M  V30 6295 H 608.563 -2.98504 -1.25208 0
M  V30 6296 H 607.47 -3.61057 0.979216 0
M  V30 6297 H 608.803 -4.75551 1.26933 0
M  V30 6298 N 610.455 -0.639598 -1.44038 0
M  V30 6299 C 611.405 0.0823038 -2.27851 0
M  V30 6300 C 612.389 0.807991 -1.39141 0
M  V30 6301 O 613.581 0.692702 -1.62882 0
M  V30 6302 C 610.71 1.05742 -3.26609 0
M  V30 6303 C 609.796 0.330911 -4.22807 0
M  V30 6304 N 610.187 -0.645126 -5.01669 0
M  V30 6305 C 608.485 0.574214 -4.42288 0
M  V30 6306 C 609.186 -1.07513 -5.71678 0
M  V30 6307 N 608.162 -0.412164 -5.42035 0
M  V30 6308 H 611.964 -0.666861 -2.86234 0
M  V30 6309 H 609.478 -0.465777 -1.55577 0
M  V30 6310 H 611.475 1.58927 -3.85419 0
M  V30 6311 H 610.135 1.80679 -2.69787 0
M  V30 6312 H 611.146 -1.02329 -5.0769 0
M  V30 6313 H 607.823 1.30581 -3.96554 0
M  V30 6314 H 609.213 -1.88196 -6.45005 0
M  V30 6315 N 611.933 1.52934 -0.380664 0
M  V30 6316 C 612.881 2.27727 0.47361 0
M  V30 6317 C 613.875 1.31288 1.0705 0
M  V30 6318 O 615.081 1.4886 1.01197 0
M  V30 6319 H 611.456 0.732189 0.171475 0
M  V30 6320 H 613.427 2.97864 -0.178785 0
M  V30 6321 C 612.176 3.0904 1.59341 0
M  V30 6322 H 611.499 3.831 1.14343 0
M  V30 6323 H 612.939 3.64527 2.16555 0
M  V30 6324 C 611.398 2.20813 2.54447 0
M  V30 6325 O 611.928 1.82907 3.57642 0
M  V30 6326 N 610.134 1.85145 2.23986 0
M  V30 6327 H 609.681 2.16169 1.40103 0
M  V30 6328 H 609.639 1.26402 2.87871 0
M  V30 6329 N 613.412 0.11024 1.57214 0
M  V30 6330 C 614.828 -0.24638 1.57687 0
M  V30 6331 C 615.028 -1.67344 1.12241 0
M  V30 6332 O 614.084 -2.39298 0.805783 0
M  V30 6333 C 615.397 -0.0210288 3.00693 0
M  V30 6334 C 616.945 -0.0876077 3.12877 0
M  V30 6335 C 617.42 0.10994 4.57868 0
M  V30 6336 N 618.911 0.0556135 4.63167 0
M  V30 6337 C 619.646 0.183495 5.73106 0
M  V30 6338 N 619.142 0.367058 6.91827 0
M  V30 6339 N 620.935 0.123689 5.61964 0
M  V30 6340 H 613.086 1.04246 1.85058 0
M  V30 6341 H 615.349 0.40979 0.854854 0
M  V30 6342 H 615.055 0.965203 3.38196 0
M  V30 6343 H 614.929 -0.756748 3.69531 0
M  V30 6344 H 617.316 -1.06436 2.75237 0
M  V30 6345 H 617.397 0.67985 2.466 0
M  V30 6346 H 617.041 1.08362 4.96206 0
M  V30 6347 H 616.971 -0.677397 5.22225 0
M  V30 6348 H 619.462 -0.0831062 3.77809 0
M  V30 6349 H 619.775 0.455739 7.71455 0
M  V30 6350 H 618.12 0.40292 6.93831 0
M  V30 6351 H 621.311 -0.0186928 4.68096 0
M  V30 6352 H 621.484 0.226797 6.47603 0
M  V30 6353 N 614.89 -1.56749 -0.16351 0
M  V30 6354 C 615.82 -2.00042 -1.20438 0
M  V30 6355 C 616.801 -0.877256 -1.45733 0
M  V30 6356 O 617.986 -1.1439 -1.56935 0
M  V30 6357 C 615.116 -2.36697 -2.54149 0
M  V30 6358 C 614.07 -3.52046 -2.43408 0
M  V30 6359 C 613.396 -3.74466 -3.81679 0
M  V30 6360 C 614.696 -4.85247 -1.93216 0
M  V30 6361 H 616.39 -2.87244 -0.844477 0
M  V30 6362 H 613.936 -1.38194 -0.40478 0
M  V30 6363 H 615.889 -2.65582 -3.27176 0
M  V30 6364 H 614.613 -1.46414 -2.91943 0
M  V30 6365 H 613.272 -3.23301 -1.72834 0
M  V30 6366 H 612.92 -2.81461 -4.1688 0
M  V30 6367 H 612.62 -4.52084 -3.75359 0
M  V30 6368 H 614.144 -4.0576 -4.5628 0
M  V30 6369 H 615.558 -5.12957 -2.56023 0
M  V30 6370 H 613.955 -5.66556 -1.97825 0
M  V30 6371 H 615.025 -4.7672 -0.88689 0
M  V30 6372 N 616.368 0.432326 -1.51554 0
M  V30 6373 C 617.331 1.50765 -1.72634 0
M  V30 6374 C 618.331 1.49334 -0.596314 0
M  V30 6375 O 619.521 1.51268 -0.863925 0
M  V30 6376 C 616.653 2.90284 -1.7874 0
M  V30 6377 H 617.846 1.33377 -2.68609 0
M  V30 6378 H 615.399 0.661329 -1.4162 0
M  V30 6379 H 616.134 3.13071 -0.845977 0
M  V30 6380 H 615.919 2.92727 -2.6087 0
M  V30 6381 H 617.409 3.68282 -1.96871 0
M  V30 6382 N 617.846 1.41785 0.688094 0
M  V30 6383 C 618.809 1.43936 1.78368 0
M  V30 6384 C 619.809 0.328866 1.57401 0
M  V30 6385 O 620.999 0.589093 1.63937 0
M  V30 6386 C 618.131 1.25804 3.16838 0
M  V30 6387 H 619.324 2.41472 1.77852 0
M  V30 6388 H 616.877 1.28037 0.896448 0
M  V30 6389 H 617.612 0.291386 3.22988 0
M  V30 6390 H 617.397 2.06272 3.33458 0
M  V30 6391 H 618.887 1.30162 3.96797 0
M  V30 6392 N 619.324 -0.923095 1.27737 0
M  V30 6393 C 620.287 -2.00587 1.10894 0
M  V30 6394 C 621.287 -1.60718 0.0514927 0
M  V30 6395 O 622.477 -1.71658 0.296481 0
M  V30 6396 C 619.609 -3.33829 0.690717 0
M  V30 6397 H 620.802 -2.16959 2.07048 0
M  V30 6398 H 618.355 -1.10451 1.1059 0
M  V30 6399 H 619.09 -3.23157 -0.272 0
M  V30 6400 H 618.875 -3.64125 1.45448 0
M  V30 6401 H 620.365 -4.13336 0.595252 0
M  V30 6402 N 620.802 -1.09834 -1.13024 0
M  V30 6403 C 621.732 -0.763451 -2.20666 0
M  V30 6404 C 622.713 0.260778 -1.68089 0
M  V30 6405 O 623.898 0.127915 -1.93778 0
M  V30 6406 C 621.028 -0.187744 -3.46792 0
M  V30 6407 C 619.982 -1.14196 -4.12484 0
M  V30 6408 C 619.308 -0.427755 -5.32986 0
M  V30 6409 C 620.608 -2.48607 -4.59338 0
M  V30 6410 H 622.302 -1.66347 -2.48936 0
M  V30 6411 H 619.848 -0.801261 -1.19649 0
M  V30 6412 H 621.801 0.0586375 -4.21359 0
M  V30 6413 H 620.525 0.747485 -3.17931 0
M  V30 6414 H 619.184 -1.37369 -3.3989 0
M  V30 6415 H 618.832 0.511747 -5.0039 0
M  V30 6416 H 618.532 -1.06403 -5.77886 0
M  V30 6417 H 620.056 -0.189772 -6.10305 0
M  V30 6418 H 621.47 -2.29618 -5.25308 0
M  V30 6419 H 619.867 -3.08062 -5.14993 0
M  V30 6420 H 620.937 -3.09062 -3.73642 0
M  V30 6421 N 622.28 1.30327 -0.886154 0
M  V30 6422 C 623.227 2.28099 -0.352069 0
M  V30 6423 C 624.197 1.56433 0.558397 0
M  V30 6424 O 625.382 1.84492 0.486561 0
M  V30 6425 C 622.522 3.42456 0.426346 0
M  V30 6426 C 621.635 4.28938 -0.513472 0
M  V30 6427 C 620.77 5.30458 0.280657 0
M  V30 6428 C 619.809 6.0859 -0.654556 0
M  V30 6429 N 618.946 7.02022 0.104322 0
M  V30 6430 H 623.786 2.73166 -1.19097 0
M  V30 6431 H 621.323 1.34367 -0.598662 0
M  V30 6432 H 623.281 4.07518 0.893587 0
M  V30 6433 H 621.911 2.98455 1.22981 0
M  V30 6434 H 620.963 3.64173 -1.09921 0
M  V30 6435 H 622.275 4.83399 -1.2299 0
M  V30 6436 H 621.429 6.01273 0.8097 0
M  V30 6437 H 620.168 4.76693 1.03029 0
M  V30 6438 H 619.173 5.36651 -1.19522 0
M  V30 6439 H 620.398 6.64443 -1.4033 0
M  V30 6440 H 618.344 6.50645 0.836472 0
M  V30 6441 H 618.261 7.53979 -0.552453 0
M  V30 6442 H 619.529 7.77077 0.614069 0
M  V30 6443 N 623.758 0.647228 1.43697 0
M  V30 6444 C 624.721 -0.0385101 2.29168 0
M  V30 6445 C 625.721 -0.756487 1.41894 0
M  V30 6446 O 626.911 -0.598641 1.63591 0
M  V30 6447 C 624.043 -1.06524 3.23829 0
M  V30 6448 H 625.236 0.713445 2.9129 0
M  V30 6449 H 622.789 0.408153 1.50877 0
M  V30 6450 H 623.524 -1.84664 2.66589 0
M  V30 6451 H 623.309 -0.554147 3.88164 0
M  V30 6452 H 624.799 -1.54432 3.87996 0
M  V30 6453 N 625.236 -1.5273 0.388769 0
M  V30 6454 C 626.166 -2.29353 -0.438111 0
M  V30 6455 C 627.147 -1.32719 -1.06394 0
M  V30 6456 O 628.332 -1.61612 -1.07681 0
M  V30 6457 C 625.462 -3.09995 -1.56589 0
M  V30 6458 C 624.416 -4.14509 -1.06613 0
M  V30 6459 C 623.742 -4.83372 -2.28594 0
M  V30 6460 C 625.042 -5.22127 -0.134459 0
M  V30 6461 H 626.736 -2.98723 0.201206 0
M  V30 6462 H 624.282 -1.43665 0.0982089 0
M  V30 6463 H 626.235 -3.62357 -2.15118 0
M  V30 6464 H 624.959 -2.38357 -2.23279 0
M  V30 6465 H 623.618 -3.63128 -0.503383 0
M  V30 6466 H 623.266 -4.08283 -2.93792 0
M  V30 6467 H 622.966 -5.54012 -1.95817 0
M  V30 6468 H 624.49 -5.38538 -2.87766 0
M  V30 6469 H 625.904 -5.69851 -0.627914 0
M  V30 6470 H 624.301 -6.00011 0.103534 0
M  V30 6471 H 625.371 -4.77971 0.816798 0
M  V30 6472 N 626.714 -0.118576 -1.57153 0
M  V30 6473 C 627.662 0.849114 -2.16547 0
M  V30 6474 C 628.656 1.27567 -1.11458 0
M  V30 6475 O 629.862 1.24746 -1.29763 0
M  V30 6476 H 626.237 0.291935 -0.693021 0
M  V30 6477 H 628.208 0.323693 -2.96639 0
M  V30 6478 C 626.957 2.08951 -2.77912 0
M  V30 6479 H 626.28 1.77021 -3.58474 0
M  V30 6480 H 627.72 2.74666 -3.23008 0
M  V30 6481 C 626.179 2.87899 -1.74974 0
M  V30 6482 O 626.709 3.83268 -1.20285 0
M  V30 6483 N 624.915 2.51884 -1.44924 0
M  V30 6484 H 624.462 1.74397 -1.89587 0
M  V30 6485 H 624.42 3.05003 -0.762921 0
M  V30 6486 N 628.193 1.56834 0.155195 0
M  V30 6487 C 629.156 1.96748 1.17571 0
M  V30 6488 C 630.156 0.853006 1.3631 0
M  V30 6489 O 631.346 1.11978 1.33441 0
M  V30 6490 C 628.478 2.27631 2.53765 0
M  V30 6491 H 629.671 2.88085 0.833498 0
M  V30 6492 H 627.224 1.51141 0.398242 0
M  V30 6493 H 627.959 1.39059 2.92973 0
M  V30 6494 H 627.744 3.0888 2.41527 0
M  V30 6495 H 629.234 2.59377 3.27282 0
M  V30 6496 N 629.671 -0.424282 1.51781 0
M  V30 6497 C 630.621 -1.51464 1.70419 0
M  V30 6498 C 631.605 -1.50911 0.558094 0
M  V30 6499 O 632.797 -1.57143 0.814552 0
M  V30 6500 C 629.926 -2.89539 1.84451 0
M  V30 6501 C 629.012 -2.94798 3.04886 0
M  V30 6502 N 629.403 -2.69778 4.27848 0
M  V30 6503 C 627.701 -3.25962 3.04408 0
M  V30 6504 C 628.402 -2.81216 5.09208 0
M  V30 6505 N 627.378 -3.13447 4.44131 0
M  V30 6506 H 631.18 -1.30892 2.63144 0
M  V30 6507 H 628.694 -0.631783 1.49607 0
M  V30 6508 H 630.691 -3.67998 1.95917 0
M  V30 6509 H 629.351 -3.11121 0.929168 0
M  V30 6510 H 630.362 -2.44458 4.56575 0
M  V30 6511 H 627.039 -3.53236 2.22555 0
M  V30 6512 H 628.429 -2.65715 6.17127 0
M  V30 6513 N 631.149 -1.42148 -0.680565 0
M  V30 6514 C 632.395 -1.4352 -1.44131 0
M  V30 6515 C 632.75 -0.0486244 -1.92339 0
M  V30 6516 O 632.043 0.92819 -1.67616 0
M  V30 6517 C 632.237 -2.38945 -2.65782 0
M  V30 6518 C 632.066 -3.86743 -2.29477 0
M  V30 6519 C 630.836 -4.5532 -2.19115 0
M  V30 6520 C 633.034 -4.77321 -1.91491 0
M  V30 6521 N 631.016 -5.88174 -1.75853 0
M  V30 6522 C 632.387 -5.99238 -1.59103 0
M  V30 6523 C 634.442 -4.64829 -1.78432 0
M  V30 6524 C 633.145 -7.10053 -1.14968 0
M  V30 6525 C 635.171 -5.75621 -1.35702 0
M  V30 6526 C 634.533 -6.96645 -1.04234 0
M  V30 6527 H 630.632 -0.580363 -0.524121 0
M  V30 6528 H 633.216 -1.78132 -0.785939 0
M  V30 6529 H 631.387 -2.06403 -3.29017 0
M  V30 6530 H 633.119 -2.30935 -3.32342 0
M  V30 6531 H 629.874 -4.09456 -2.37998 0
M  V30 6532 H 630.298 -6.58625 -1.56661 0
M  V30 6533 H 634.94 -3.71745 -2.01409 0
M  V30 6534 H 632.658 -8.0299 -0.907365 0
M  V30 6535 H 636.244 -5.67964 -1.26126 0
M  V30 6536 H 635.124 -7.80918 -0.716707 0
M  V30 6537 N 632.627 0.916307 -1.28225 0
M  V30 6538 C 633.852 1.7043 -1.18188 0
M  V30 6539 C 634.277 1.86346 0.256274 0
M  V30 6540 O 633.635 1.37175 1.18544 0
M  V30 6541 C 633.683 3.07546 -1.88275 0
M  V30 6542 O 632.787 3.94904 -1.18848 0
M  V30 6543 H 632.128 0.521967 -0.410423 0
M  V30 6544 H 634.658 1.14589 -1.69501 0
M  V30 6545 H 634.668 3.57793 -1.96082 0
M  V30 6546 H 633.343 2.95279 -2.92887 0
M  V30 6547 H 631.92 3.53339 -1.19187 0
M  V30 6548 N 634.105 1.10431 1.1244 0
M  V30 6549 C 635.068 0.756542 2.16354 0
M  V30 6550 C 636.068 -0.21899 1.59302 0
M  V30 6551 O 637.258 0.00415969 1.742 0
M  V30 6552 C 634.39 0.120612 3.40687 0
M  V30 6553 H 635.583 1.67696 2.48632 0
M  V30 6554 H 633.136 0.904832 1.27446 0
M  V30 6555 H 633.871 -0.810536 3.14008 0
M  V30 6556 H 633.656 0.822693 3.83372 0
M  V30 6557 H 635.146 -0.106945 4.17463 0
M  V30 6558 N 635.583 -1.29855 0.893053 0
M  V30 6559 C 636.86 -1.90694 0.435336 0
M  V30 6560 C 637.24 -1.8111 -1.08454 0
M  V30 6561 O 636.588 -1.23352 -1.92345 0
M  V30 6562 C 636.798 -3.36033 0.942472 0
M  V30 6563 C 638.146 -4.13083 0.982226 0
M  V30 6564 O 639.17 -3.4491 0.889686 0
M  V30 6565 O 638.029 -5.34896 1.12022 0
M  V30 6566 H 635.123 -0.815978 0.134567 0
M  V30 6567 H 637.669 -1.38367 0.982484 0
M  V30 6568 H 636.441 -3.37132 1.9864 0
M  V30 6569 H 636.064 -3.95828 0.374952 0
M  V30 6570 N 637.061 -0.65484 -1.43351 0
M  V30 6571 C 638.024 0.0263562 -2.29185 0
M  V30 6572 C 639.024 0.748951 -1.42293 0
M  V30 6573 O 640.214 0.589957 -1.63906 0
M  V30 6574 C 637.346 1.04806 -3.2439 0
M  V30 6575 H 638.539 -0.728883 -2.90908 0
M  V30 6576 H 636.092 -0.416149 -1.50658 0
M  V30 6577 H 636.827 1.83247 -2.67565 0
M  V30 6578 H 636.612 0.533554 -3.88453 0
M  V30 6579 H 638.102 1.52372 -3.88809 0
M  V30 6580 N 638.539 1.52521 -0.396863 0
M  V30 6581 C 639.785 2.01971 0.183169 0
M  V30 6582 C 640.118 1.2825 1.45827 0
M  V30 6583 O 639.393 0.385179 1.90648 0
M  V30 6584 C 639.676 3.5736 0.443391 0
M  V30 6585 C 639.529 4.41743 -0.84753 0
M  V30 6586 C 640.848 4.22539 1.2308 0
M  V30 6587 H 637.967 0.734119 0.0650976 0
M  V30 6588 H 640.609 1.82519 -0.527918 0
M  V30 6589 H 638.759 3.74066 1.04914 0
M  V30 6590 H 640.431 4.36773 -1.48414 0
M  V30 6591 H 638.674 4.0845 -1.4612 0
M  V30 6592 H 639.345 5.48507 -0.620003 0
M  V30 6593 H 641.821 4.09857 0.718084 0
M  V30 6594 H 640.697 5.31227 1.38162 0
M  V30 6595 H 640.958 3.80675 2.24808 0
M  V30 6596 N 640.017 0.126909 1.57088 0
M  V30 6597 C 641.247 -0.535892 1.99529 0
M  V30 6598 C 641.655 -1.60259 1.00566 0
M  V30 6599 O 640.998 -1.83698 -0.00843269 0
M  V30 6600 C 641.06 -1.21374 3.38391 0
M  V30 6601 C 640.724 -0.294044 4.56053 0
M  V30 6602 C 641.721 0.470454 5.17767 0
M  V30 6603 C 639.406 -0.202808 5.0189 0
M  V30 6604 C 641.4 1.31384 6.23712 0
M  V30 6605 C 639.087 0.644203 6.07695 0
M  V30 6606 C 640.085 1.40115 6.68473 0
M  V30 6607 O 639.773 2.23408 7.72233 0
M  V30 6608 H 639.505 -0.145799 0.66009 0
M  V30 6609 H 642.059 0.212441 2.04298 0
M  V30 6610 H 640.289 -2.00931 3.30399 0
M  V30 6611 H 641.978 -1.77424 3.65069 0
M  V30 6612 H 642.744 0.409884 4.83265 0
M  V30 6613 H 638.623 -0.781688 4.54324 0
M  V30 6614 H 642.167 1.90514 6.71081 0
M  V30 6615 H 638.064 0.706137 6.41626 0
M  V30 6616 H 638.832 2.16436 7.89365 0
M  V30 6617 N 641.495 -1.56914 -0.146875 0
M  V30 6618 C 642.427 -1.94878 -1.20645 0
M  V30 6619 C 643.44 -0.844633 -1.39175 0
M  V30 6620 O 644.629 -1.12304 -1.38744 0
M  V30 6621 C 641.729 -2.20769 -2.57127 0
M  V30 6622 C 640.902 -3.52053 -2.59572 0
M  V30 6623 C 639.961 -3.66482 -3.77594 0
M  V30 6624 O 638.987 -4.38873 -3.62462 0
M  V30 6625 N 640.189 -3.03156 -4.95052 0
M  V30 6626 H 642.954 -2.86374 -0.883757 0
M  V30 6627 H 640.515 -1.58366 -0.336436 0
M  V30 6628 H 642.507 -2.27664 -3.34591 0
M  V30 6629 H 641.077 -1.35538 -2.81688 0
M  V30 6630 H 640.297 -3.56598 -1.68023 0
M  V30 6631 H 641.585 -4.38396 -2.58238 0
M  V30 6632 H 640.983 -2.44258 -5.10249 0
M  V30 6633 H 639.54 -3.15611 -5.70292 0
M  V30 6634 N 642.974 0.416227 -1.52004 0
M  V30 6635 C 643.884 1.53147 -1.77717 0
M  V30 6636 C 644.9 1.609 -0.662368 0
M  V30 6637 O 646.076 1.77747 -0.946991 0
M  V30 6638 C 643.141 2.88948 -1.91598 0
M  V30 6639 C 642.202 2.9114 -3.15493 0
M  V30 6640 C 641.435 4.20464 -3.28703 0
M  V30 6641 O 641.658 5.13981 -2.47345 0
M  V30 6642 O 640.592 4.29368 -4.21813 0
M  V30 6643 H 644.418 1.34357 -2.72363 0
M  V30 6644 H 642.003 0.601373 -1.36762 0
M  V30 6645 H 643.885 3.69505 -2.02593 0
M  V30 6646 H 642.56 3.07821 -1.00141 0
M  V30 6647 H 641.467 2.09461 -3.09962 0
M  V30 6648 H 642.8 2.77216 -4.06709 0
M  V30 6649 N 644.452 1.42507 0.673017 0
M  V30 6650 C 645.415 1.4582 1.76831 0
M  V30 6651 C 646.415 0.345542 1.57043 0
M  V30 6652 O 647.605 0.606447 1.63303 0
M  V30 6653 C 644.737 1.29158 3.15485 0
M  V30 6654 H 645.93 2.43345 1.7528 0
M  V30 6655 H 643.483 1.28981 0.882817 0
M  V30 6656 H 644.218 0.325626 3.22661 0
M  V30 6657 H 644.003 2.09797 3.31252 0
M  V30 6658 H 645.493 1.34363 3.95394 0
M  V30 6659 N 645.93 -0.909495 1.28709 0
M  V30 6660 C 647.346 -1.18862 1.06508 0
M  V30 6661 C 647.546 -2.00604 -0.189864 0
M  V30 6662 O 646.602 -2.36281 -0.890355 0
M  V30 6663 C 647.915 -1.91908 2.31499 0
M  V30 6664 C 649.463 -2.04773 2.36721 0
M  V30 6665 C 649.938 -2.81228 3.6149 0
M  V30 6666 N 651.429 -2.88787 3.62155 0
M  V30 6667 C 652.164 -3.48455 4.55375 0
M  V30 6668 N 651.66 -4.09369 5.58918 0
M  V30 6669 N 653.453 -3.46035 4.42963 0
M  V30 6670 H 645.604 -0.363867 2.0926 0
M  V30 6671 H 647.867 -0.223649 0.921241 0
M  V30 6672 H 647.573 -1.39275 3.22948 0
M  V30 6673 H 647.447 -2.92436 2.38245 0
M  V30 6674 H 649.834 -2.56585 1.45767 0
M  V30 6675 H 649.915 -1.03408 2.33967 0
M  V30 6676 H 649.559 -2.30094 4.5279 0
M  V30 6677 H 649.489 -3.82917 3.61499 0
M  V30 6678 H 651.98 -2.45514 2.87283 0
M  V30 6679 H 652.293 -4.52891 6.26187 0
M  V30 6680 H 650.638 -4.0786 5.62739 0
M  V30 6681 H 653.829 -2.9766 3.6127 0
M  V30 6682 H 654.002 -3.92244 5.15799 0
M  V30 6683 N 647.408 -1.11026 -1.11852 0
M  V30 6684 C 648.355 -0.764662 -2.17765 0
M  V30 6685 C 649.325 0.261854 -1.64023 0
M  V30 6686 O 650.51 0.139748 -1.90288 0
M  V30 6687 C 647.65 -0.209317 -3.44465 0
M  V30 6688 C 646.763 -1.29187 -4.12231 0
M  V30 6689 C 645.898 -0.697523 -5.266 0
M  V30 6690 C 644.937 -1.76023 -5.86244 0
M  V30 6691 N 644.074 -1.18569 -6.92016 0
M  V30 6692 H 648.914 -1.67202 -2.46673 0
M  V30 6693 H 646.451 -0.835065 -1.21099 0
M  V30 6694 H 648.409 0.130599 -4.16996 0
M  V30 6695 H 647.039 0.661251 -3.15955 0
M  V30 6696 H 646.091 -1.74881 -3.37818 0
M  V30 6697 H 647.403 -2.09607 -4.52622 0
M  V30 6698 H 646.557 -0.307412 -6.05921 0
M  V30 6699 H 645.296 0.138044 -4.87505 0
M  V30 6700 H 644.301 -2.1597 -5.05606 0
M  V30 6701 H 645.526 -2.59875 -6.27409 0
M  V30 6702 H 643.472 -0.371695 -6.54946 0
M  V30 6703 H 643.389 -1.92666 -7.31038 0
M  V30 6704 H 644.657 -0.82233 -7.7515 0
M  V30 6705 N 648.886 1.2938 -0.899927 0
M  V30 6706 C 650.132 1.9584 -0.526742 0
M  V30 6707 C 650.465 1.70774 0.924651 0
M  V30 6708 O 649.74 1.02084 1.65557 0
M  V30 6709 C 650.023 3.50638 -0.820062 0
M  V30 6710 C 649.876 3.85161 -2.32317 0
M  V30 6711 C 651.195 4.3903 -0.30671 0
M  V30 6712 H 648.314 0.711322 -0.192848 0
M  V30 6713 H 650.956 1.52992 -1.12665 0
M  V30 6714 H 649.106 3.87265 -0.309491 0
M  V30 6715 H 650.778 3.58477 -2.9033 0
M  V30 6716 H 649.021 3.32696 -2.78381 0
M  V30 6717 H 649.692 4.93204 -2.47898 0
M  V30 6718 H 652.168 4.09396 -0.743908 0
M  V30 6719 H 651.044 5.46226 -0.541144 0
M  V30 6720 H 651.305 4.34937 0.792588 0
M  V30 6721 N 650.364 0.662433 1.43002 0
M  V30 6722 C 651.61 0.179857 2.02001 0
M  V30 6723 C 651.943 -1.20625 1.52195 0
M  V30 6724 O 651.218 -1.80726 0.718911 0
M  V30 6725 C 651.501 0.200845 3.59539 0
M  V30 6726 C 651.354 1.62153 4.19555 0
M  V30 6727 C 652.673 -0.457738 4.37713 0
M  V30 6728 H 649.792 0.0668305 0.733964 0
M  V30 6729 H 652.434 0.84487 1.70182 0
M  V30 6730 H 650.584 -0.365411 3.86778 0
M  V30 6731 H 652.256 2.23908 4.03315 0
M  V30 6732 H 650.499 2.16601 3.75854 0
M  V30 6733 H 651.17 1.58799 5.28665 0
M  V30 6734 H 653.646 0.0241495 4.16093 0
M  V30 6735 H 652.522 -0.412363 5.47349 0
M  V30 6736 H 652.783 -1.53336 4.14657 0
M  V30 6737 N 651.842 -1.52309 0.404946 0
M  V30 6738 C 653.09 -2.01368 -0.17186 0
M  V30 6739 C 653.411 -1.29261 -1.46002 0
M  V30 6740 O 652.681 -0.41729 -1.91404 0
M  V30 6741 H 651.261 -0.744034 -0.0664993 0
M  V30 6742 H 653.923 -1.87263 0.540228 0
M  V30 6743 H 653.019 -3.09888 -0.370957 0
M  V30 6744 N 653.32 -0.135238 -1.57019 0
M  V30 6745 C 654.283 0.794707 -2.14981 0
M  V30 6746 C 655.283 1.18342 -1.08866 0
M  V30 6747 O 656.473 1.10627 -1.34563 0
M  V30 6748 C 653.605 2.07685 -2.70333 0
M  V30 6749 H 654.798 0.290696 -2.98488 0
M  V30 6750 H 652.351 0.114128 -1.55883 0
M  V30 6751 H 653.086 2.6248 -1.9046 0
M  V30 6752 H 652.871 1.80745 -3.47957 0
M  V30 6753 H 654.361 2.74127 -3.1503 0
M  V30 6754 N 654.798 1.5699 0.138552 0
M  V30 6755 C 655.728 2.01933 1.17241 0
M  V30 6756 C 656.709 0.90033 1.44319 0
M  V30 6757 O 657.894 1.16872 1.55095 0
M  V30 6758 C 655.024 2.40711 2.50351 0
M  V30 6759 C 653.978 3.55874 2.37776 0
M  V30 6760 C 653.304 3.80491 3.75674 0
M  V30 6761 C 654.604 4.8826 1.85472 0
M  V30 6762 H 656.298 2.88551 0.798672 0
M  V30 6763 H 653.844 1.3882 0.382743 0
M  V30 6764 H 655.797 2.70754 3.22909 0
M  V30 6765 H 654.521 1.5104 2.89576 0
M  V30 6766 H 653.18 3.2601 1.67669 0
M  V30 6767 H 652.828 2.88057 4.12349 0
M  V30 6768 H 652.528 4.57998 3.68119 0
M  V30 6769 H 654.052 4.12967 4.49767 0
M  V30 6770 H 655.466 5.16965 2.4783 0
M  V30 6771 H 653.863 5.69631 1.88787 0
M  V30 6772 H 654.933 4.78071 0.810935 0
M  V30 6773 N 656.276 -0.40816 1.52223 0
M  V30 6774 C 657.226 -1.49648 1.72016 0
M  V30 6775 C 658.21 -1.50311 0.574069 0
M  V30 6776 O 659.402 -1.56271 0.831173 0
M  V30 6777 C 656.531 -2.87566 1.87512 0
M  V30 6778 C 655.617 -2.91547 3.07995 0
M  V30 6779 N 656.008 -2.65225 4.30685 0
M  V30 6780 C 654.306 -3.22715 3.07849 0
M  V30 6781 C 655.007 -2.75799 5.12162 0
M  V30 6782 N 653.983 -3.08719 4.4743 0
M  V30 6783 H 657.785 -1.28093 2.64517 0
M  V30 6784 H 655.299 -0.61588 1.50269 0
M  V30 6785 H 657.296 -3.65899 1.99809 0
M  V30 6786 H 655.956 -3.10118 0.962114 0
M  V30 6787 H 656.967 -2.39601 4.59142 0
M  V30 6788 H 653.644 -3.50856 2.26289 0
M  V30 6789 H 655.034 -2.59155 6.1991 0
M  V30 6790 N 657.755 -1.42862 -0.66545 0
M  V30 6791 C 658.687 -1.43026 -1.79098 0
M  V30 6792 C 659.7 -0.32803 -1.59461 0
M  V30 6793 O 660.889 -0.591709 -1.68407 0
M  V30 6794 C 657.989 -1.21566 -3.16346 0
M  V30 6795 C 657.162 -2.44399 -3.62751 0
M  V30 6796 C 656.221 -2.18344 -4.78761 0
M  V30 6797 O 655.247 -2.91611 -4.88827 0
M  V30 6798 N 656.449 -1.1924 -5.68122 0
M  V30 6799 H 659.214 -2.40045 -1.79439 0
M  V30 6800 H 656.775 -1.37861 -0.848872 0
M  V30 6801 H 658.767 -1.02037 -3.91625 0
M  V30 6802 H 657.337 -0.330368 -3.10849 0
M  V30 6803 H 656.557 -2.79433 -2.78048 0
M  V30 6804 H 657.845 -3.26173 -3.90498 0
M  V30 6805 H 657.243 -0.586603 -5.6265 0
M  V30 6806 H 655.8 -1.05698 -6.43173 0
M  V30 6807 N 659.233 0.902656 -1.29189 0
M  V30 6808 C 660.482 1.6475 -1.16362 0
M  V30 6809 C 660.795 1.93517 0.284682 0
M  V30 6810 O 662.001 2.66192 0.534229 0
M  V30 6811 C 660.457 2.96848 -2.03493 0
M  V30 6812 C 660.065 2.75687 -3.5313 0
M  V30 6813 C 661.809 3.74762 -1.99383 0
M  V30 6814 C 659.716 4.03492 -4.32375 0
M  V30 6815 H 658.646 0.618041 -0.431904 0
M  V30 6816 H 661.297 1.0008 -1.53806 0
M  V30 6817 H 659.679 3.62715 -1.58916 0
M  V30 6818 H 660.853 2.18431 -4.05739 0
M  V30 6819 H 659.168 2.11171 -3.58881 0
M  V30 6820 H 661.765 4.69515 -2.5585 0
M  V30 6821 H 662.108 4.04767 -0.973123 0
M  V30 6822 H 662.641 3.15732 -2.41988 0
M  V30 6823 H 659.38 3.78656 -5.3507 0
M  V30 6824 H 658.9 4.60318 -3.84535 0
M  V30 6825 H 660.579 4.71662 -4.42881 0
M  V30 6826 N 660.711 1.11618 1.11262 0
M  V30 6827 C 661.96 0.860934 1.82403 0
M  V30 6828 C 662.273 -0.615303 1.8567 0
M  V30 6829 O 663.479 -0.986861 2.52929 0
M  V30 6830 C 661.935 1.49048 3.27586 0
M  V30 6831 C 661.543 3.00089 3.32642 0
M  V30 6832 C 663.287 1.31515 4.03614 0
M  V30 6833 C 661.194 3.56019 4.72234 0
M  V30 6834 H 660.124 0.318423 0.683464 0
M  V30 6835 H 662.775 1.34165 1.25188 0
M  V30 6836 H 661.157 0.937434 3.84744 0
M  V30 6837 H 662.331 3.61813 2.85356 0
M  V30 6838 H 660.646 3.16919 2.70096 0
M  V30 6839 H 663.243 1.70732 5.0671 0
M  V30 6840 H 663.586 0.257917 4.155 0
M  V30 6841 H 664.119 1.83694 3.52848 0
M  V30 6842 H 660.858 4.61463 4.65545 0
M  V30 6843 H 660.378 2.99066 5.19923 0
M  V30 6844 H 662.057 3.54568 5.41193 0
M  V30 6845 N 662.189 -1.289 0.906776 0
M  V30 6846 C 663.417 -1.99401 0.551969 0
M  V30 6847 C 663.832 -1.67816 -0.865048 0
M  V30 6848 O 663.189 -0.927078 -1.57199 0
M  V30 6849 C 663.24 -3.53779 0.743152 0
M  V30 6850 O 662.961 -3.84248 2.1044 0
M  V30 6851 C 664.462 -4.41543 0.39424 0
M  V30 6852 H 661.682 -0.636926 0.211106 0
M  V30 6853 H 664.226 -1.64266 1.21807 0
M  V30 6854 H 662.381 -3.87201 0.124143 0
M  V30 6855 H 662.795 -4.78904 2.13895 0
M  V30 6856 H 664.269 -5.48957 0.578814 0
M  V30 6857 H 664.746 -4.34073 -0.669137 0
M  V30 6858 H 665.352 -4.13605 0.990491 0
M  V30 6859 N 663.667 -0.670007 -1.42649 0
M  V30 6860 C 664.597 -0.00258501 -2.335 0
M  V30 6861 C 665.578 0.794364 -1.50412 0
M  V30 6862 O 666.763 0.75248 -1.79029 0
M  V30 6863 C 663.893 0.952748 -3.33976 0
M  V30 6864 C 662.847 0.264733 -4.2718 0
M  V30 6865 C 662.173 1.33267 -5.17826 0
M  V30 6866 C 663.473 -0.853289 -5.15283 0
M  V30 6867 H 665.167 -0.761326 -2.89559 0
M  V30 6868 H 662.713 -0.367561 -1.3923 0
M  V30 6869 H 664.666 1.4287 -3.96442 0
M  V30 6870 H 663.39 1.74285 -2.7621 0
M  V30 6871 H 662.049 -0.190938 -3.66102 0
M  V30 6872 H 661.697 2.11464 -4.5639 0
M  V30 6873 H 661.397 0.877476 -5.81011 0
M  V30 6874 H 662.921 1.80965 -5.83167 0
M  V30 6875 H 664.335 -0.458763 -5.71462 0
M  V30 6876 H 662.732 -1.23398 -5.87276 0
M  V30 6877 H 663.802 -1.70412 -4.53969 0
M  V30 6878 N 665.145 1.52092 -0.413018 0
M  V30 6879 C 666.561 1.59471 -0.0640836 0
M  V30 6880 C 666.761 1.42562 1.42402 0
M  V30 6881 O 665.817 1.25453 2.19129 0
M  V30 6882 C 667.13 2.95392 -0.562474 0
M  V30 6883 C 668.678 3.08637 -0.520788 0
M  V30 6884 C 669.153 4.47044 -0.995752 0
M  V30 6885 N 670.644 4.53296 -0.952732 0
M  V30 6886 C 671.379 5.58669 -1.29138 0
M  V30 6887 N 670.875 6.71576 -1.70168 0
M  V30 6888 N 672.668 5.48898 -1.2111 0
M  V30 6889 H 664.819 1.6133 -1.38153 0
M  V30 6890 H 667.082 0.75916 -0.567785 0
M  V30 6891 H 666.788 3.13059 -1.60271 0
M  V30 6892 H 666.662 3.77191 0.0257875 0
M  V30 6893 H 669.049 2.90652 0.510412 0
M  V30 6894 H 669.13 2.28735 -1.14515 0
M  V30 6895 H 668.774 4.65773 -2.0253 0
M  V30 6896 H 668.704 5.25448 -0.348162 0
M  V30 6897 H 671.195 3.72248 -0.651119 0
M  V30 6898 H 671.508 7.47973 -1.9431 0
M  V30 6899 H 669.853 6.72847 -1.74075 0
M  V30 6900 H 673.044 4.59573 -0.889396 0
M  V30 6901 H 673.217 6.30912 -1.47833 0
M  V30 6902 N 666.623 0.143563 1.56945 0
M  V30 6903 C 667.9 -0.553285 1.87612 0
M  V30 6904 C 668.28 -1.83195 1.04894 0
M  V30 6905 O 667.628 -2.28102 0.134773 0
M  V30 6906 C 667.838 -0.822055 3.3918 0
M  V30 6907 C 669.186 -1.16435 4.08324 0
M  V30 6908 O 670.21 -0.911522 3.4434 0
M  V30 6909 O 669.069 -1.63996 5.21313 0
M  V30 6910 H 666.163 -0.281851 0.777489 0
M  V30 6911 H 668.709 0.179916 1.68744 0
M  V30 6912 H 667.481 0.0830265 3.91212 0
M  V30 6913 H 667.104 -1.60956 3.63564 0
M  V30 6914 N 668.101 -1.57061 -0.130224 0
M  V30 6915 C 669.331 -1.88159 -0.853217 0
M  V30 6916 C 669.739 -0.731675 -1.7448 0
M  V30 6917 O 669.082 0.307035 -1.81116 0
M  V30 6918 C 669.144 -3.1415 -1.74785 0
M  V30 6919 C 668.808 -4.45202 -1.03173 0
M  V30 6920 C 669.805 -5.18526 -0.377759 0
M  V30 6921 C 667.49 -4.91912 -1.01624 0
M  V30 6922 C 669.484 -6.36775 0.282123 0
M  V30 6923 C 667.171 -6.10082 -0.352555 0
M  V30 6924 C 668.169 -6.82361 0.295483 0
M  V30 6925 O 667.857 -7.98284 0.948606 0
M  V30 6926 H 667.589 -0.627596 -0.251197 0
M  V30 6927 H 670.143 -2.05034 -0.1226 0
M  V30 6928 H 668.373 -2.93328 -2.51983 0
M  V30 6929 H 670.062 -3.31359 -2.34427 0
M  V30 6930 H 670.828 -4.83498 -0.381417 0
M  V30 6931 H 666.707 -4.35566 -1.51007 0
M  V30 6932 H 670.251 -6.93129 0.788525 0
M  V30 6933 H 666.148 -6.44569 -0.346621 0
M  V30 6934 H 666.916 -8.14054 0.851954 0
M  V30 6935 N 669.579 0.400081 -1.52437 0
M  V30 6936 C 670.828 1.14332 -1.66166 0
M  V30 6937 C 671.141 1.91419 -0.402253 0
M  V30 6938 O 672.347 2.6824 -0.419487 0
M  V30 6939 C 670.803 2.08137 -2.9361 0
M  V30 6940 C 670.411 1.36524 -4.26691 0
M  V30 6941 C 672.155 2.82664 -3.16703 0
M  V30 6942 C 670.062 2.29031 -5.45251 0
M  V30 6943 H 668.992 0.430499 -0.61902 0
M  V30 6944 H 671.643 0.407017 -1.78929 0
M  V30 6945 H 670.025 2.85358 -2.74567 0
M  V30 6946 H 671.199 0.646061 -4.56249 0
M  V30 6947 H 669.514 0.74002 -4.09771 0
M  V30 6948 H 672.111 3.52037 -4.0246 0
M  V30 6949 H 672.454 3.46122 -2.31312 0
M  V30 6950 H 672.987 2.12541 -3.36261 0
M  V30 6951 H 669.726 1.70206 -6.33017 0
M  V30 6952 H 669.246 2.98896 -5.2002 0
M  V30 6953 H 670.925 2.89359 -5.78689 0
M  V30 6954 N 671.057 1.43213 0.657864 0
M  V30 6955 C 672.468 1.39669 1.23893 0
M  V30 6956 C 672.819 0.0984217 1.95953 0
M  V30 6957 O 671.944 -0.8023 2.00978 0
M  V30 6958 C 672.539 2.53004 2.25332 0
M  V30 6959 C 671.098 2.5274 2.78926 0
M  V30 6960 C 670.245 2.30941 1.53497 0
M  V30 6961 H 673.196 1.52181 0.450172 0
M  V30 6962 H 673.217 2.24226 3.07413 0
M  V30 6963 H 672.729 3.4748 1.72856 0
M  V30 6964 H 670.83 1.6213 3.35477 0
M  V30 6965 H 670.943 3.50352 3.26787 0
M  V30 6966 H 669.307 1.7952 1.80678 0
M  V30 6967 H 670.09 3.27496 1.02963 0
M  V30 6968 N 672.536 -0.895792 1.29666 0
M  V30 6969 C 673.952 -1.17726 1.07763 0
M  V30 6970 C 674.152 -2.00794 -0.168576 0
M  V30 6971 O 673.208 -2.37213 -0.865244 0
M  V30 6972 C 674.521 -1.89441 2.33522 0
M  V30 6973 C 676.069 -2.02251 2.3888 0
M  V30 6974 C 676.544 -2.77378 3.64452 0
M  V30 6975 N 678.035 -2.8493 3.65198 0
M  V30 6976 C 678.77 -3.43606 4.59045 0
M  V30 6977 N 678.266 -4.03417 5.63228 0
M  V30 6978 N 680.059 -3.41317 4.46608 0
M  V30 6979 H 672.21 -0.341652 2.09634 0
M  V30 6980 H 674.473 -0.213865 0.923561 0
M  V30 6981 H 674.179 -1.35842 3.24407 0
M  V30 6982 H 674.053 -2.89893 2.41334 0
M  V30 6983 H 676.44 -2.55025 1.4848 0
M  V30 6984 H 676.521 -1.0092 2.3505 0
M  V30 6985 H 676.165 -2.25279 4.55205 0
M  V30 6986 H 676.095 -3.79062 3.65541 0
M  V30 6987 H 678.586 -2.42453 2.89871 0
M  V30 6988 H 678.899 -4.46224 6.30955 0
M  V30 6989 H 677.244 -4.01868 5.67033 0
M  V30 6990 H 680.435 -2.93812 3.64407 0
M  V30 6991 H 680.608 -3.86751 5.1993 0
M  V30 6992 N 674.014 -1.12206 -1.10668 0
M  V30 6993 C 675.263 -0.870595 -1.81944 0
M  V30 6994 C 675.576 0.605447 -1.85994 0
M  V30 6995 O 676.782 0.973433 -2.53449 0
M  V30 6996 C 675.238 -1.50783 -3.26791 0
M  V30 6997 C 674.846 -3.01849 -3.31046 0
M  V30 6998 C 676.59 -1.33653 -4.02911 0
M  V30 6999 C 674.497 -3.58518 -4.70339 0
M  V30 7000 H 673.427 -0.322043 -0.681765 0
M  V30 7001 H 676.078 -1.34827 -1.24475 0
M  V30 7002 H 674.46 -0.957825 -3.84242 0
M  V30 7003 H 675.634 -3.63321 -2.83433 0
M  V30 7004 H 673.949 -3.18346 -2.68411 0
M  V30 7005 H 676.546 -1.73416 -5.05797 0
M  V30 7006 H 676.889 -0.279949 -4.15358 0
M  V30 7007 H 677.422 -1.85562 -3.51868 0
M  V30 7008 H 674.161 -4.63925 -4.63091 0
M  V30 7009 H 673.681 -3.01819 -5.18329 0
M  V30 7010 H 675.36 -3.57434 -5.39305 0
M  V30 7011 N 675.492 1.28418 -0.913599 0
M  V30 7012 C 676.422 2.29713 -0.418847 0
M  V30 7013 C 677.403 1.62165 0.513469 0
M  V30 7014 O 678.588 1.89576 0.421235 0
M  V30 7015 C 675.718 3.45612 0.342042 0
M  V30 7016 C 674.672 4.25056 -0.501123 0
M  V30 7017 C 673.998 5.3329 0.388097 0
M  V30 7018 C 675.298 4.91814 -1.75831 0
M  V30 7019 H 676.992 2.71346 -1.26538 0
M  V30 7020 H 674.538 1.30446 -0.609903 0
M  V30 7021 H 676.491 4.15562 0.699 0
M  V30 7022 H 675.215 3.02858 1.22248 0
M  V30 7023 H 673.874 3.56833 -0.840598 0
M  V30 7024 H 673.522 4.8678 1.26707 0
M  V30 7025 H 673.222 5.87347 -0.172459 0
M  V30 7026 H 674.746 6.06088 0.74094 0
M  V30 7027 H 676.16 5.54126 -1.47026 0
M  V30 7028 H 674.557 5.55866 -2.26126 0
M  V30 7029 H 675.627 4.16313 -2.4862 0
M  V30 7030 N 676.97 0.677563 1.42291 0
M  V30 7031 C 678.218 0.200578 2.01102 0
M  V30 7032 C 678.539 -1.19803 1.53858 0
M  V30 7033 O 677.809 -1.80496 0.761439 0
M  V30 7034 H 676.389 0.0711634 0.743603 0
M  V30 7035 H 679.051 0.874691 1.7417 0
M  V30 7036 H 678.147 0.204 3.11433 0
M  V30 7037 N 678.448 -1.51871 0.421078 0
M  V30 7038 C 679.859 -1.86644 -0.0457991 0
M  V30 7039 C 680.21 -1.33919 -1.43388 0
M  V30 7040 O 679.335 -0.683316 -2.05328 0
M  V30 7041 C 679.93 -3.38681 -0.0898844 0
M  V30 7042 C 678.489 -3.73049 -0.501127 0
M  V30 7043 C 677.636 -2.75485 0.316723 0
M  V30 7044 H 680.587 -1.45327 0.637635 0
M  V30 7045 H 680.608 -3.69636 -0.902734 0
M  V30 7046 H 680.12 -3.77025 0.920513 0
M  V30 7047 H 678.221 -3.40288 -1.51773 0
M  V30 7048 H 678.334 -4.78512 -0.237217 0
M  V30 7049 H 676.698 -2.53725 -0.222663 0
M  V30 7050 H 677.481 -3.16671 1.32569 0
M  V30 7051 N 679.926 -0.151884 -1.56866 0
M  V30 7052 C 680.836 0.798876 -2.20579 0
M  V30 7053 C 681.852 1.268 -1.19154 0
M  V30 7054 O 683.028 1.32418 -1.51748 0
M  V30 7055 C 680.093 2.01861 -2.81874 0
M  V30 7056 C 679.154 1.59825 -3.9844 0
M  V30 7057 C 678.387 2.75984 -4.56802 0
M  V30 7058 O 678.61 3.92331 -4.14044 0
M  V30 7059 O 677.544 2.51175 -5.46987 0
M  V30 7060 H 681.37 0.2865 -3.02346 0
M  V30 7061 H 678.955 0.0753806 -1.4921 0
M  V30 7062 H 680.837 2.73235 -3.20813 0
M  V30 7063 H 679.512 2.52042 -2.03117 0
M  V30 7064 H 678.419 0.854601 -3.64208 0
M  V30 7065 H 679.752 1.14355 -4.78731 0
M  V30 7066 N 681.404 1.57128 0.121893 0
M  V30 7067 C 682.367 1.99197 1.13372 0
M  V30 7068 C 683.367 0.881728 1.3447 0
M  V30 7069 O 684.557 1.14783 1.31036 0
M  V30 7070 C 681.689 2.32963 2.4888 0
M  V30 7071 H 682.882 2.89788 0.772204 0
M  V30 7072 H 680.435 1.51952 0.366093 0
M  V30 7073 H 681.17 1.45243 2.89957 0
M  V30 7074 H 680.955 3.13934 2.34921 0
M  V30 7075 H 682.445 2.66261 3.21706 0
M  V30 7076 N 682.882 -0.391992 1.52647 0
M  V30 7077 C 684.129 -1.13732 1.67545 0
M  V30 7078 C 684.457 -1.90045 0.413881 0
M  V30 7079 O 683.712 -1.86157 -0.603646 0
M  V30 7080 C 684.011 -2.14401 2.85949 0
M  V30 7081 C 683.677 -1.54767 4.23507 0
M  V30 7082 C 682.339 -1.38229 4.60919 0
M  V30 7083 C 684.691 -1.11382 5.0916 0
M  V30 7084 C 682.019 -0.7685 5.81645 0
M  V30 7085 C 684.371 -0.514143 6.30507 0
M  V30 7086 C 683.035 -0.33604 6.66654 0
M  V30 7087 H 682.305 -0.416174 0.613091 0
M  V30 7088 H 684.952 -0.422327 1.86785 0
M  V30 7089 H 683.257 -2.92108 2.61114 0
M  V30 7090 H 684.954 -2.71974 2.94671 0
M  V30 7091 H 681.544 -1.68626 3.94035 0
M  V30 7092 H 685.728 -1.22962 4.80826 0
M  V30 7093 H 680.984 -0.618681 6.08262 0
M  V30 7094 H 685.158 -0.169657 6.96193 0
M  V30 7095 H 682.785 0.14166 7.60068 0
M  V30 7096 N 684.36 -1.4356 -0.65026 0
M  V30 7097 C 685.292 -1.44918 -1.77571 0
M  V30 7098 C 686.305 -0.344925 -1.59104 0
M  V30 7099 O 687.494 -0.609537 -1.6777 0
M  V30 7100 C 684.594 -1.24914 -3.15039 0
M  V30 7101 C 683.767 -2.48232 -3.60138 0
M  V30 7102 C 682.826 -2.23409 -4.76419 0
M  V30 7103 O 681.852 -2.9678 -4.85706 0
M  V30 7104 N 683.054 -1.25259 -5.66825 0
M  V30 7105 H 685.819 -2.41935 -1.76883 0
M  V30 7106 H 683.38 -1.38754 -0.834202 0
M  V30 7107 H 685.372 -1.06185 -3.90521 0
M  V30 7108 H 683.942 -0.363319 -3.10481 0
M  V30 7109 H 683.162 -2.82366 -2.75069 0
M  V30 7110 H 684.45 -3.30296 -3.87017 0
M  V30 7111 H 683.848 -0.646246 -5.61997 0
M  V30 7112 H 682.405 -1.12513 -6.42016 0
M  V30 7113 N 685.838 0.888903 -1.30139 0
M  V30 7114 C 686.77 1.99972 -1.11999 0
M  V30 7115 C 687.783 1.62673 -0.0643619 0
M  V30 7116 O 688.972 1.75788 -0.309983 0
M  V30 7117 C 686.072 3.31904 -0.685059 0
M  V30 7118 C 685.245 3.97665 -1.82158 0
M  V30 7119 C 684.304 5.07894 -1.37585 0
M  V30 7120 O 683.33 5.2974 -2.08241 0
M  V30 7121 N 684.532 5.7995 -0.252697 0
M  V30 7122 H 687.297 2.16085 -2.07671 0
M  V30 7123 H 684.858 1.06175 -1.22223 0
M  V30 7124 H 686.85 4.03005 -0.369964 0
M  V30 7125 H 685.42 3.12084 0.179507 0
M  V30 7126 H 684.64 3.19787 -2.305 0
M  V30 7127 H 685.928 4.3834 -2.58332 0
M  V30 7128 H 685.326 5.647 0.336141 0
M  V30 7129 H 683.883 6.518 0.00296813 0
M  V30 7130 N 687.317 1.12792 1.10072 0
M  V30 7131 C 688.547 0.907189 1.85617 0
M  V30 7132 C 688.955 -0.547181 1.81115 0
M  V30 7133 O 688.298 -1.39024 1.20075 0
M  V30 7134 C 688.36 1.30872 3.34832 0
M  V30 7135 C 688.024 2.77516 3.6309 0
M  V30 7136 C 689.021 3.75696 3.59373 0
M  V30 7137 C 686.706 3.14513 3.91646 0
M  V30 7138 C 688.7 5.08888 3.83812 0
M  V30 7139 C 686.387 4.47886 4.15742 0
M  V30 7140 C 687.385 5.44882 4.11816 0
M  V30 7141 O 687.073 6.7585 4.35295 0
M  V30 7142 H 686.805 0.323855 0.593375 0
M  V30 7143 H 689.359 1.50262 1.40038 0
M  V30 7144 H 687.589 0.656518 3.81086 0
M  V30 7145 H 689.278 1.06153 3.91773 0
M  V30 7146 H 690.044 3.48458 3.37345 0
M  V30 7147 H 685.923 2.39622 3.93831 0
M  V30 7148 H 689.467 5.84586 3.80663 0
M  V30 7149 H 685.364 4.74851 4.37249 0
M  V30 7150 H 686.132 6.81853 4.52791 0
M  V30 7151 N 688.795 -1.27931 0.920396 0
M  V30 7152 C 690.041 -1.94977 0.557832 0
M  V30 7153 C 690.374 -1.72224 -0.897365 0
M  V30 7154 O 689.649 -1.04705 -1.63912 0
M  V30 7155 C 689.932 -3.49289 0.875741 0
M  V30 7156 C 689.785 -3.81416 2.38416 0
M  V30 7157 C 691.104 -4.38486 0.376517 0
M  V30 7158 H 688.223 -0.708164 0.20414 0
M  V30 7159 H 690.865 -1.5118 1.15085 0
M  V30 7160 H 689.015 -3.86724 0.371062 0
M  V30 7161 H 690.687 -3.53813 2.95997 0
M  V30 7162 H 688.93 -3.28225 2.83639 0
M  V30 7163 H 689.601 -4.89198 2.55713 0
M  V30 7164 H 692.077 -4.08161 0.808945 0
M  V30 7165 H 690.953 -5.45296 0.627976 0
M  V30 7166 H 691.214 -4.36143 -0.723293 0
M  V30 7167 N 690.273 -0.685099 -1.4193 0
M  V30 7168 C 691.521 -0.21124 -2.00993 0
M  V30 7169 C 691.842 1.18985 -1.54491 0
M  V30 7170 O 691.112 1.8009 -0.771 0
M  V30 7171 H 689.692 -0.0751059 -0.743215 0
M  V30 7172 H 692.354 -0.883915 -1.73704 0
M  V30 7173 H 691.45 -0.220513 -3.1132 0
M  V30 7174 N 691.751 1.51645 -0.429126 0
M  V30 7175 C 693.162 1.86665 0.0359003 0
M  V30 7176 C 693.513 1.34677 1.42676 0
M  V30 7177 O 692.638 0.694195 2.04963 0
M  V30 7178 C 693.233 3.38724 0.0719221 0
M  V30 7179 C 691.792 3.7331 0.481336 0
M  V30 7180 C 690.939 2.75313 -0.331329 0
M  V30 7181 H 693.89 1.44987 -0.645333 0
M  V30 7182 H 693.911 3.7011 0.883118 0
M  V30 7183 H 693.423 3.76532 -0.940495 0
M  V30 7184 H 691.524 3.41088 1.49966 0
M  V30 7185 H 691.637 4.78631 0.211837 0
M  V30 7186 H 690.001 2.53839 0.209204 0
M  V30 7187 H 690.784 3.15963 -1.34247 0
M  V30 7188 N 693.229 0.160201 1.56784 0
M  V30 7189 C 694.459 -0.493449 2.00621 0
M  V30 7190 C 694.867 -1.5809 1.03943 0
M  V30 7191 O 694.21 -1.83675 0.0305343 0
M  V30 7192 C 694.272 -1.14169 3.4089 0
M  V30 7193 C 693.936 -0.197243 4.56574 0
M  V30 7194 C 694.933 0.580174 5.16653 0
M  V30 7195 C 692.618 -0.0963038 5.02208 0
M  V30 7196 C 694.612 1.44584 6.20785 0
M  V30 7197 C 692.299 0.772959 6.06192 0
M  V30 7198 C 693.297 1.54263 6.65351 0
M  V30 7199 O 692.985 2.39738 7.67321 0
M  V30 7200 H 692.717 -0.131764 0.663034 0
M  V30 7201 H 695.271 0.255728 2.03802 0
M  V30 7202 H 693.501 -1.93877 3.34587 0
M  V30 7203 H 695.19 -1.69641 3.6875 0
M  V30 7204 H 695.956 0.5123 4.82287 0
M  V30 7205 H 691.835 -0.685143 4.5588 0
M  V30 7206 H 695.379 2.04706 6.66889 0
M  V30 7207 H 691.276 0.842077 6.39984 0
M  V30 7208 H 692.044 2.33131 7.84597 0
M  V30 7209 N 694.707 -1.5719 -0.113559 0
M  V30 7210 C 695.617 -2.04041 -1.15777 0
M  V30 7211 C 696.633 -0.961812 -1.45001 0
M  V30 7212 O 697.809 -1.2737 -1.56009 0
M  V30 7213 C 694.874 -2.43994 -2.46308 0
M  V30 7214 C 693.935 -3.65962 -2.24433 0
M  V30 7215 C 693.168 -4.04 -3.4874 0
M  V30 7216 O 693.391 -3.42321 -4.56259 0
M  V30 7217 O 692.325 -4.97069 -3.3942 0
M  V30 7218 H 696.151 -2.93248 -0.789899 0
M  V30 7219 H 693.736 -1.45828 -0.324748 0
M  V30 7220 H 695.618 -2.70401 -3.23204 0
M  V30 7221 H 694.293 -1.57932 -2.82558 0
M  V30 7222 H 693.2 -3.44697 -1.45377 0
M  V30 7223 H 694.533 -4.52746 -1.93084 0
M  V30 7224 N 696.185 0.383891 -1.52853 0
M  V30 7225 C 697.433 1.12619 -1.67814 0
M  V30 7226 C 697.754 1.90354 -0.423141 0
M  V30 7227 O 697.024 1.87649 0.562554 0
M  V30 7228 H 695.604 0.418738 -0.618601 0
M  V30 7229 H 698.266 0.43495 -1.89985 0
M  V30 7230 H 697.362 1.82624 -2.5309 0
M  V30 7231 N 697.663 1.43903 0.642637 0
M  V30 7232 C 698.893 1.49323 1.4278 0
M  V30 7233 C 699.301 0.113058 1.88862 0
M  V30 7234 O 698.644 -0.889089 1.60751 0
M  V30 7235 C 698.706 2.3861 2.68897 0
M  V30 7236 C 698.37 3.85976 2.44687 0
M  V30 7237 C 699.367 4.7681 2.07239 0
M  V30 7238 C 697.052 4.30567 2.58683 0
M  V30 7239 C 699.046 6.10234 1.841 0
M  V30 7240 C 696.733 5.64042 2.35159 0
M  V30 7241 C 697.731 6.53693 1.97925 0
M  V30 7242 O 697.419 7.84698 1.74654 0
M  V30 7243 H 697.151 0.509109 0.444729 0
M  V30 7244 H 699.705 1.89425 0.794195 0
M  V30 7245 H 697.935 1.93415 3.34855 0
M  V30 7246 H 699.624 2.35112 3.30873 0
M  V30 7247 H 700.39 4.43635 1.95993 0
M  V30 7248 H 696.269 3.61054 2.86637 0
M  V30 7249 H 699.813 6.80171 1.54962 0
M  V30 7250 H 695.71 5.96782 2.46011 0
M  V30 7251 H 696.478 7.96382 1.88993 0
M  V30 7252 N 699.141 -0.881989 1.30609 0
M  V30 7253 C 700.418 -1.61563 1.10258 0
M  V30 7254 C 700.798 -2.08228 -0.347053 0
M  V30 7255 O 700.146 -1.85151 -1.33908 0
M  V30 7256 C 700.356 -2.78287 2.10612 0
M  V30 7257 C 701.704 -3.48545 2.4249 0
M  V30 7258 O 702.728 -2.88479 2.08945 0
M  V30 7259 O 701.587 -4.56873 2.99883 0
M  V30 7260 H 698.681 -0.710238 0.423663 0
M  V30 7261 H 701.227 -0.928503 1.42045 0
M  V30 7262 H 699.999 -2.41131 3.08174 0
M  V30 7263 H 699.622 -3.54695 1.79659 0
M  V30 7264 N 700.619 -1.13374 -1.09472 0
M  V30 7265 C 701.844 -0.918711 -1.85942 0
M  V30 7266 C 702.269 0.527225 -1.8056 0
M  V30 7267 O 701.627 1.37408 -1.18274 0
M  V30 7268 C 701.675 -1.41056 -3.31867 0
M  V30 7269 O 700.779 -0.595496 -4.08078 0
M  V30 7270 H 700.12 -0.329297 -0.576593 0
M  V30 7271 H 702.65 -1.50829 -1.38245 0
M  V30 7272 H 702.66 -1.41398 -3.82715 0
M  V30 7273 H 701.335 -2.46335 -3.35099 0
M  V30 7274 H 699.912 -0.659911 -3.67014 0
M  V30 7275 N 702.098 1.27442 -0.927168 0
M  V30 7276 C 703.326 1.98498 -0.583622 0
M  V30 7277 C 703.741 1.69171 0.838241 0
M  V30 7278 O 703.098 0.951969 1.55704 0
M  V30 7279 C 703.149 3.52552 -0.799341 0
M  V30 7280 O 702.87 3.80851 -2.16527 0
M  V30 7281 C 704.371 4.4086 -0.464436 0
M  V30 7282 H 701.591 0.633487 -0.221213 0
M  V30 7283 H 704.135 1.62308 -1.24404 0
M  V30 7284 H 702.29 3.86955 -0.185728 0
M  V30 7285 H 702.704 4.75441 -2.21487 0
M  V30 7286 H 704.178 5.47967 -0.666075 0
M  V30 7287 H 704.655 4.35082 0.599995 0
M  V30 7288 H 705.261 4.11977 -1.05617 0
M  V30 7289 N 703.576 0.692616 1.41565 0
M  V30 7290 C 704.539 0.0344174 2.29174 0
M  V30 7291 C 705.539 -0.710961 1.44229 0
M  V30 7292 O 706.729 -0.546293 1.65412 0
M  V30 7293 C 703.861 -0.961682 3.27054 0
M  V30 7294 H 705.054 0.805755 2.88873 0
M  V30 7295 H 702.607 0.455947 1.49502 0
M  V30 7296 H 703.342 -1.76089 2.72329 0
M  V30 7297 H 703.127 -0.430375 3.89731 0
M  V30 7298 H 704.617 -1.4201 3.92712 0
M  V30 7299 N 705.054 -1.51416 0.437162 0
M  V30 7300 C 706.002 -2.29328 -0.388765 0
M  V30 7301 C 706.996 -1.35171 -1.02104 0
M  V30 7302 O 708.202 -1.52513 -0.956024 0
M  V30 7303 H 704.577 -0.738048 -0.144183 0
M  V30 7304 H 706.548 -2.96995 0.289212 0
M  V30 7305 C 705.297 -3.14741 -1.47761 0
M  V30 7306 H 704.62 -3.8708 -1.00045 0
M  V30 7307 H 706.06 -3.72313 -2.02877 0
M  V30 7308 C 704.519 -2.30105 -2.46076 0
M  V30 7309 O 705.049 -1.96055 -3.50607 0
M  V30 7310 N 703.255 -1.93331 -2.1696 0
M  V30 7311 H 702.802 -2.2122 -1.31983 0
M  V30 7312 H 702.76 -1.36999 -2.82982 0
M  V30 7313 N 706.532 -0.168513 -1.56696 0
M  V30 7314 C 707.943 0.348694 -1.83415 0
M  V30 7315 C 708.294 1.63257 -1.0882 0
M  V30 7316 O 707.419 2.13707 -0.340333 0
M  V30 7317 C 708.014 0.639423 -3.32711 0
M  V30 7318 C 706.573 1.10108 -3.59935 0
M  V30 7319 C 705.72 0.135464 -2.76969 0
M  V30 7320 H 708.671 -0.392829 -1.53761 0
M  V30 7321 H 708.692 1.49179 -3.50037 0
M  V30 7322 H 708.204 -0.295173 -3.86976 0
M  V30 7323 H 706.305 2.05088 -3.11079 0
M  V30 7324 H 706.418 1.01218 -4.68286 0
M  V30 7325 H 704.782 0.632286 -2.46727 0
M  V30 7326 H 705.565 -0.793104 -3.34013 0
M  V30 7327 N 708.01 1.57248 0.105221 0
M  V30 7328 C 709.238 1.89768 0.82437 0
M  V30 7329 C 709.653 0.761192 1.72775 0
M  V30 7330 O 709.01 -0.267342 1.80531 0
M  V30 7331 C 709.061 3.2184 1.64625 0
M  V30 7332 O 708.782 4.31115 0.779217 0
M  V30 7333 C 710.283 3.68155 2.46935 0
M  V30 7334 H 707.503 0.628031 0.236259 0
M  V30 7335 H 710.047 2.04321 0.085485 0
M  V30 7336 H 708.202 3.08915 2.33775 0
M  V30 7337 H 708.616 5.06897 1.34745 0
M  V30 7338 H 710.09 4.6329 3.00111 0
M  V30 7339 H 710.567 2.95492 3.24932 0
M  V30 7340 H 711.173 3.83914 1.83002 0
M  V30 7341 N 709.488 -0.375779 1.53054 0
M  V30 7342 C 710.734 -1.12114 1.68992 0
M  V30 7343 C 711.067 -1.8926 0.435238 0
M  V30 7344 O 710.342 -1.86044 -0.567278 0
M  V30 7345 C 710.625 -2.08867 2.93337 0
M  V30 7346 C 710.478 -1.35397 4.28938 0
M  V30 7347 C 711.797 -3.09124 3.13257 0
M  V30 7348 H 708.916 -0.406207 0.614951 0
M  V30 7349 H 711.558 -0.403054 1.85676 0
M  V30 7350 H 709.708 -2.70102 2.79244 0
M  V30 7351 H 711.38 -0.770242 4.54824 0
M  V30 7352 H 709.623 -0.655801 4.28814 0
M  V30 7353 H 710.294 -2.06161 5.12056 0
M  V30 7354 H 712.77 -2.57987 3.26469 0
M  V30 7355 H 711.646 -3.74054 4.01715 0
M  V30 7356 H 711.907 -3.78729 2.28072 0
M  V30 7357 N 710.966 -1.44241 -0.634997 0
M  V30 7358 C 712.191 -1.50516 -1.42687 0
M  V30 7359 C 712.616 -0.129864 -1.87651 0
M  V30 7360 O 711.974 0.880164 -1.58502 0
M  V30 7361 C 712.022 -2.4714 -2.62591 0
M  V30 7362 O 711.126 -1.97025 -3.62291 0
M  V30 7363 H 710.467 -0.50841 -0.427101 0
M  V30 7364 H 712.997 -1.89337 -0.775408 0
M  V30 7365 H 713.007 -2.65048 -3.10183 0
M  V30 7366 H 711.682 -3.47039 -2.29209 0
M  V30 7367 H 710.259 -1.88866 -3.21534 0
M  V30 7368 N 712.444 0.87505 -1.31075 0
M  V30 7369 C 713.392 2.00317 -1.18219 0
M  V30 7370 C 714.386 1.69152 -0.0916872 0
M  V30 7371 O 715.592 1.7821 -0.253229 0
M  V30 7372 H 711.967 0.656981 -0.365895 0
M  V30 7373 H 713.938 2.08293 -2.13674 0
M  V30 7374 C 712.687 3.35821 -0.901095 0
M  V30 7375 H 712.01 3.6032 -1.73233 0
M  V30 7376 H 713.45 4.15366 -0.851295 0
M  V30 7377 C 711.909 3.34563 0.396114 0
M  V30 7378 O 712.439 3.75971 1.41452 0
M  V30 7379 N 710.645 2.87681 0.410832 0
M  V30 7380 H 710.192 2.54179 -0.418415 0
M  V30 7381 H 710.15 2.87223 1.27869 0
M  V30 7382 N 713.922 1.13953 1.08869 0
M  V30 7383 C 715.168 0.906151 1.8143 0
M  V30 7384 C 715.501 -0.566089 1.85766 0
M  V30 7385 O 714.776 -1.41915 1.33006 0
M  V30 7386 C 715.059 1.50183 3.27287 0
M  V30 7387 C 714.912 3.04359 3.31189 0
M  V30 7388 C 716.231 1.17477 4.24131 0
M  V30 7389 H 713.35 0.330624 0.658678 0
M  V30 7390 H 715.992 1.40873 1.27495 0
M  V30 7391 H 714.142 1.07442 3.73348 0
M  V30 7392 H 715.814 3.55896 2.93488 0
M  V30 7393 H 714.057 3.39053 2.70602 0
M  V30 7394 H 714.728 3.41141 4.33966 0
M  V30 7395 H 717.204 1.5442 3.86385 0
M  V30 7396 H 716.08 1.61795 5.24513 0
M  V30 7397 H 716.341 0.0893312 4.4201 0
M  V30 7398 N 715.4 -1.26948 0.933913 0
M  V30 7399 C 716.647 -1.94087 0.577625 0
M  V30 7400 C 716.975 -1.73345 -0.88214 0
M  V30 7401 O 716.23 -1.05945 -1.64542 0
M  V30 7402 C 716.529 -3.46963 0.857406 0
M  V30 7403 C 716.195 -3.87834 2.2999 0
M  V30 7404 C 714.857 -3.98704 2.69423 0
M  V30 7405 C 717.209 -4.08442 3.23766 0
M  V30 7406 C 714.537 -4.27573 4.01744 0
M  V30 7407 C 716.889 -4.38798 4.55675 0
M  V30 7408 C 715.553 -4.47881 4.94934 0
M  V30 7409 H 714.823 -0.710215 0.211368 0
M  V30 7410 H 717.47 -1.50899 1.17905 0
M  V30 7411 H 715.775 -3.91416 0.173369 0
M  V30 7412 H 717.472 -3.97062 0.560615 0
M  V30 7413 H 714.062 -3.79916 1.98399 0
M  V30 7414 H 718.246 -3.99479 2.94499 0
M  V30 7415 H 713.502 -4.32815 4.31834 0
M  V30 7416 H 717.676 -4.5369 5.28335 0
M  V30 7417 H 715.303 -4.70005 5.97495 0
M  V30 7418 N 716.879 -0.700114 -1.41195 0
M  V30 7419 C 718.104 -0.240704 -2.05998 0
M  V30 7420 C 718.529 1.10313 -1.52357 0
M  V30 7421 O 717.887 1.69154 -0.652424 0
M  V30 7422 C 717.935 -0.213783 -3.59966 0
M  V30 7423 O 717.039 0.809933 -4.04368 0
M  V30 7424 H 716.38 -0.116471 -0.653705 0
M  V30 7425 H 718.91 -0.956251 -1.80878 0
M  V30 7426 H 718.92 -0.0461852 -4.07974 0
M  V30 7427 H 717.595 -1.19454 -3.98376 0
M  V30 7428 H 716.172 0.611319 -3.67855 0
M  V30 7429 N 718.357 1.51182 -0.445186 0
M  V30 7430 C 719.585 2.06568 0.117091 0
M  V30 7431 C 720 1.31182 1.35781 0
M  V30 7432 O 719.357 0.373605 1.78635 0
M  V30 7433 C 719.408 3.58917 0.431408 0
M  V30 7434 O 719.129 4.31456 -0.760078 0
M  V30 7435 C 720.63 4.30843 1.0435 0
M  V30 7436 H 717.85 0.670985 0.00444436 0
M  V30 7437 H 720.394 1.94666 -0.626525 0
M  V30 7438 H 718.549 3.70708 1.12493 0
M  V30 7439 H 718.963 5.22215 -0.489048 0
M  V30 7440 H 720.437 5.38499 1.21337 0
M  V30 7441 H 720.914 3.89644 2.02667 0
M  V30 7442 H 721.52 4.23516 0.38913 0
M  V30 7443 N 719.835 0.176821 1.56605 0
M  V30 7444 C 720.798 -0.737429 2.17013 0
M  V30 7445 C 721.798 -1.15414 1.11965 0
M  V30 7446 O 722.988 -1.0702 1.37449 0
M  V30 7447 C 720.12 -2.00445 2.75744 0
M  V30 7448 H 721.313 -0.211455 2.99154 0
M  V30 7449 H 718.866 -0.0727582 1.56131 0
M  V30 7450 H 719.601 -2.57338 1.97352 0
M  V30 7451 H 719.386 -1.71456 3.52626 0
M  V30 7452 H 720.876 -2.65679 3.22187 0
M  V30 7453 N 721.313 -1.57302 -0.09688 0
M  V30 7454 C 722.276 -2.00976 -1.10188 0
M  V30 7455 C 723.276 -0.903009 -1.3305 0
M  V30 7456 O 724.466 -1.16853 -1.29194 0
M  V30 7457 C 721.598 -2.36893 -2.45142 0
M  V30 7458 H 722.791 -2.9098 -0.726003 0
M  V30 7459 H 720.344 -1.52515 -0.341872 0
M  V30 7460 H 721.079 -1.49837 -2.8761 0
M  V30 7461 H 720.864 -3.17632 -2.29897 0
M  V30 7462 H 722.354 -2.71345 -3.1743 0
M  V30 7463 N 722.791 0.367657 -1.53252 0
M  V30 7464 C 724.038 1.11052 -1.69333 0
M  V30 7465 C 724.366 1.89363 -0.444064 0
M  V30 7466 O 723.621 1.87094 0.573953 0
M  V30 7467 C 723.92 2.09825 -2.89324 0
M  V30 7468 C 723.586 1.4801 -4.25915 0
M  V30 7469 C 722.248 1.30879 -4.6306 0
M  V30 7470 C 724.6 1.03268 -5.10867 0
M  V30 7471 C 721.928 0.675868 -5.82794 0
M  V30 7472 C 724.28 0.41377 -6.31245 0
M  V30 7473 C 722.944 0.229939 -6.67104 0
M  V30 7474 H 722.214 0.406367 -0.619634 0
M  V30 7475 H 724.861 0.392558 -1.87433 0
M  V30 7476 H 723.166 2.87917 -2.65728 0
M  V30 7477 H 724.863 2.67252 -2.98961 0
M  V30 7478 H 721.453 1.62336 -3.96667 0
M  V30 7479 H 725.637 1.15297 -4.82722 0
M  V30 7480 H 720.893 0.521833 -6.09169 0
M  V30 7481 H 725.067 0.0588768 -6.96375 0
M  V30 7482 H 722.694 -0.262562 -7.59746 0
M  V30 7483 N 724.269 1.44576 0.627338 0
M  V30 7484 C 725.685 1.28546 0.945938 0
M  V30 7485 C 725.885 0.224003 2.00251 0
M  V30 7486 O 724.941 -0.388817 2.49488 0
M  V30 7487 C 726.254 2.65825 1.40561 0
M  V30 7488 C 727.802 2.73566 1.52088 0
M  V30 7489 C 728.277 4.11323 2.01438 0
M  V30 7490 N 729.768 4.13519 2.08702 0
M  V30 7491 C 730.503 5.16964 2.48065 0
M  V30 7492 N 729.999 6.30768 2.86538 0
M  V30 7493 N 731.792 5.04319 2.48232 0
M  V30 7494 H 723.943 2.1228 -0.0713567 0
M  V30 7495 H 726.206 0.947503 0.0307081 0
M  V30 7496 H 725.912 3.44591 0.703539 0
M  V30 7497 H 725.786 2.92969 2.37591 0
M  V30 7498 H 728.173 1.95116 2.21391 0
M  V30 7499 H 728.254 2.50159 0.534237 0
M  V30 7500 H 727.898 4.9025 1.32729 0
M  V30 7501 H 727.828 4.32109 3.0098 0
M  V30 7502 H 730.319 3.31385 1.81638 0
M  V30 7503 H 730.632 7.0551 3.15398 0
M  V30 7504 H 728.977 6.342 2.84281 0
M  V30 7505 H 732.168 4.14465 2.17569 0
M  V30 7506 H 732.341 5.85059 2.78585 0
M  V30 7507 N 725.747 -0.868086 1.31537 0
M  V30 7508 C 726.994 -1.62127 1.2133 0
M  V30 7509 C 727.322 -1.93158 -0.2281 0
M  V30 7510 O 726.577 -1.5632 -1.1774 0
M  V30 7511 C 726.876 -2.95889 2.0046 0
M  V30 7512 C 726.542 -2.84343 3.49943 0
M  V30 7513 C 725.204 -2.80901 3.90702 0
M  V30 7514 C 727.556 -2.71243 4.45058 0
M  V30 7515 C 724.884 -2.6222 5.24841 0
M  V30 7516 C 727.236 -2.54098 5.79325 0
M  V30 7517 C 725.9 -2.4904 6.19302 0
M  V30 7518 H 725.17 -0.593265 0.443979 0
M  V30 7519 H 727.817 -1.00803 1.62822 0
M  V30 7520 H 726.122 -3.61259 1.51655 0
M  V30 7521 H 727.819 -3.53161 1.89942 0
M  V30 7522 H 724.409 -2.8784 3.17563 0
M  V30 7523 H 728.593 -2.72956 4.14498 0
M  V30 7524 H 723.849 -2.56731 5.54887 0
M  V30 7525 H 728.023 -2.42938 6.52652 0
M  V30 7526 H 725.65 -2.34324 7.23185 0
M  V30 7527 N 727.225 -1.14528 -1.08264 0
M  V30 7528 C 728.473 -0.912599 -1.80322 0
M  V30 7529 C 728.794 0.562256 -1.86718 0
M  V30 7530 O 728.064 1.40869 -1.36135 0
M  V30 7531 H 726.644 -0.334645 -0.667849 0
M  V30 7532 H 729.306 -1.44415 -1.30883 0
M  V30 7533 H 728.402 -1.31384 -2.83098 0
M  V30 7534 N 728.703 1.26451 -0.940633 0
M  V30 7535 C 729.653 2.24086 -0.420669 0
M  V30 7536 C 730.637 1.53501 0.482301 0
M  V30 7537 O 731.829 1.74127 0.317636 0
M  V30 7538 C 728.958 3.41866 0.313452 0
M  V30 7539 C 728.044 4.19737 -0.606779 0
M  V30 7540 N 728.435 4.7521 -1.73232 0
M  V30 7541 C 726.733 4.44091 -0.41226 0
M  V30 7542 C 727.434 5.34052 -2.30572 0
M  V30 7543 N 726.41 5.1971 -1.59381 0
M  V30 7544 H 730.212 2.64569 -1.27986 0
M  V30 7545 H 727.726 1.4153 -0.796436 0
M  V30 7546 H 729.723 4.1093 0.702991 0
M  V30 7547 H 728.383 3.0291 1.16942 0
M  V30 7548 H 729.394 4.72769 -2.11447 0
M  V30 7549 H 726.071 4.1556 0.401984 0
M  V30 7550 H 727.461 5.87845 -3.25404 0
M  V30 7551 N 730.181 0.707592 1.40822 0
M  V30 7552 C 731.144 0.0587224 2.29125 0
M  V30 7553 C 732.144 -0.695624 1.44975 0
M  V30 7554 O 733.334 -0.528718 1.65983 0
M  V30 7555 C 730.466 -0.926939 3.28056 0
M  V30 7556 H 731.659 0.836349 2.88002 0
M  V30 7557 H 729.212 0.471778 1.4901 0
M  V30 7558 H 729.947 -1.7319 2.74182 0
M  V30 7559 H 729.732 -0.389015 3.90165 0
M  V30 7560 H 731.222 -1.37837 3.94196 0
M  V30 7561 N 731.66 -1.50943 0.453197 0
M  V30 7562 C 732.888 -2.06628 -0.106135 0
M  V30 7563 C 733.303 -1.31901 -1.35084 0
M  V30 7564 O 732.66 -0.383074 -1.78434 0
M  V30 7565 C 732.711 -3.5914 -0.412368 0
M  V30 7566 O 732.432 -4.31047 0.782948 0
M  V30 7567 C 733.933 -4.31391 -1.02064 0
M  V30 7568 H 731.153 -0.670999 -0.000885896 0
M  V30 7569 H 733.697 -1.94331 0.63684 0
M  V30 7570 H 731.852 -3.71299 -1.10526 0
M  V30 7571 H 732.266 -5.21948 0.516736 0
M  V30 7572 H 733.74 -5.39135 -1.1848 0
M  V30 7573 H 734.217 -3.90714 -2.00598 0
M  V30 7574 H 734.823 -4.23716 -0.366664 0
M  V30 7575 N 733.138 -0.185124 -1.56509 0
M  V30 7576 C 734.387 0.456421 -1.96468 0
M  V30 7577 C 734.7 1.63448 -1.07444 0
M  V30 7578 O 735.906 2.34316 -1.37143 0
M  V30 7579 C 734.362 0.863404 -3.4939 0
M  V30 7580 C 733.97 -0.289815 -4.47062 0
M  V30 7581 C 735.714 1.47259 -3.98139 0
M  V30 7582 C 733.621 0.137571 -5.9124 0
M  V30 7583 H 732.551 0.17429 -0.733579 0
M  V30 7584 H 735.202 -0.275554 -1.81419 0
M  V30 7585 H 733.584 1.65176 -3.59907 0
M  V30 7586 H 734.758 -1.06728 -4.4827 0
M  V30 7587 H 733.073 -0.809851 -4.08449 0
M  V30 7588 H 735.67 1.80463 -5.03326 0
M  V30 7589 H 736.013 2.3755 -3.41871 0
M  V30 7590 H 736.546 0.748405 -3.90696 0
M  V30 7591 H 733.285 -0.730907 -6.51412 0
M  V30 7592 H 732.805 0.8801 -5.93308 0
M  V30 7593 H 734.484 0.576771 -6.44424 0
M  V30 7594 N 734.616 1.57351 0.0885366 0
M  V30 7595 C 735.566 1.98963 1.11346 0
M  V30 7596 C 736.55 0.869065 1.35411 0
M  V30 7597 O 737.742 1.13292 1.35992 0
M  V30 7598 C 734.871 2.4231 2.43189 0
M  V30 7599 C 733.957 3.61065 2.22469 0
M  V30 7600 N 734.348 4.75789 1.71635 0
M  V30 7601 C 732.646 3.6729 2.5301 0
M  V30 7602 C 733.347 5.57708 1.65339 0
M  V30 7603 N 732.323 5.01067 2.1079 0
M  V30 7604 H 736.125 2.85109 0.713465 0
M  V30 7605 H 733.639 1.59682 0.295868 0
M  V30 7606 H 735.636 2.70352 3.17357 0
M  V30 7607 H 734.296 1.57544 2.83919 0
M  V30 7608 H 735.307 4.98411 1.40738 0
M  V30 7609 H 731.984 2.932 2.9722 0
M  V30 7610 H 733.374 6.59782 1.27031 0
M  V30 7611 N 736.094 -0.359525 1.53444 0
M  V30 7612 C 737.505 -0.936009 1.61542 0
M  V30 7613 C 737.856 -1.90069 0.486633 0
M  V30 7614 O 736.981 -2.12929 -0.386047 0
M  V30 7615 C 737.576 -1.70441 2.92806 0
M  V30 7616 C 736.135 -2.23015 3.03218 0
M  V30 7617 C 735.282 -1.04438 2.56881 0
M  V30 7618 H 738.233 -0.138134 1.58098 0
M  V30 7619 H 738.254 -2.56609 2.80948 0
M  V30 7620 H 737.766 -1.00205 3.74941 0
M  V30 7621 H 735.867 -2.96475 2.25684 0
M  V30 7622 H 735.98 -2.50481 4.08407 0
M  V30 7623 H 734.344 -1.41314 2.11902 0
M  V30 7624 H 735.127 -0.356905 3.4144 0
M  V30 7625 N 737.572 -1.44907 -0.619662 0
M  V30 7626 C 738.502 -1.55488 -1.742 0
M  V30 7627 C 739.483 -0.407143 -1.65156 0
M  V30 7628 O 740.668 -0.628743 -1.8374 0
M  V30 7629 C 737.798 -1.5097 -3.1277 0
M  V30 7630 C 736.752 -2.64337 -3.36615 0
M  V30 7631 C 736.078 -2.44872 -4.75333 0
M  V30 7632 C 737.378 -4.06423 -3.28051 0
M  V30 7633 H 739.072 -2.49432 -1.65602 0
M  V30 7634 H 736.618 -1.20047 -0.795281 0
M  V30 7635 H 738.571 -1.56971 -3.91073 0
M  V30 7636 H 737.295 -0.535486 -3.2218 0
M  V30 7637 H 735.954 -2.57744 -2.60698 0
M  V30 7638 H 735.602 -1.45617 -4.81461 0
M  V30 7639 H 735.302 -3.20888 -4.92244 0
M  V30 7640 H 736.826 -2.52709 -5.55851 0
M  V30 7641 H 738.24 -4.14324 -3.96243 0
M  V30 7642 H 736.637 -4.82733 -3.56495 0
M  V30 7643 H 737.707 -4.29183 -2.25676 0
M  V30 7644 N 739.05 0.861098 -1.31996 0
M  V30 7645 C 740.296 1.61721 -1.22369 0
M  V30 7646 C 740.629 1.93 0.215587 0
M  V30 7647 O 739.904 1.56789 1.15098 0
M  V30 7648 C 740.187 2.9417 -2.07691 0
M  V30 7649 C 740.04 2.69714 -3.59965 0
M  V30 7650 C 741.359 3.95372 -1.93312 0
M  V30 7651 H 738.478 0.586822 -0.44588 0
M  V30 7652 H 741.12 0.994788 -1.61876 0
M  V30 7653 H 739.27 3.47292 -1.74128 0
M  V30 7654 H 740.942 2.23196 -4.03709 0
M  V30 7655 H 739.185 2.03789 -3.82952 0
M  V30 7656 H 739.856 3.63996 -4.14983 0
M  V30 7657 H 742.332 3.51487 -2.22701 0
M  V30 7658 H 741.208 4.85916 -2.55298 0
M  V30 7659 H 741.469 4.32865 -0.898922 0
M  V30 7660 N 740.528 1.15101 1.07655 0
M  V30 7661 C 741.944 0.893004 1.32279 0
M  V30 7662 C 742.144 -0.461701 1.96139 0
M  V30 7663 O 741.2 -1.20431 2.21929 0
M  V30 7664 C 742.513 2.03161 2.21689 0
M  V30 7665 C 744.061 2.06579 2.35147 0
M  V30 7666 C 744.536 3.19754 3.27905 0
M  V30 7667 N 746.027 3.19382 3.35484 0
M  V30 7668 C 746.762 4.03592 4.07309 0
M  V30 7669 N 746.258 4.97859 4.81776 0
M  V30 7670 N 748.051 3.91626 4.03219 0
M  V30 7671 H 740.202 2.02341 0.645886 0
M  V30 7672 H 742.465 0.882127 0.347211 0
M  V30 7673 H 742.171 3.00934 1.82021 0
M  V30 7674 H 742.045 1.96132 3.22199 0
M  V30 7675 H 744.432 1.09408 2.74069 0
M  V30 7676 H 744.513 2.17676 1.34353 0
M  V30 7677 H 744.157 4.17175 2.89702 0
M  V30 7678 H 744.087 3.05893 4.28645 0
M  V30 7679 H 746.578 2.51112 2.82403 0
M  V30 7680 H 746.891 5.58563 5.34067 0
M  V30 7681 H 745.236 5.0185 4.80803 0
M  V30 7682 H 748.427 3.17295 3.44154 0
M  V30 7683 H 748.6 4.57479 4.5893 0
M  V30 7684 N 742.006 -1.2595 0.947325 0
M  V30 7685 C 743.422 -1.45737 0.650597 0
M  V30 7686 C 743.622 -1.85189 -0.794188 0
M  V30 7687 O 742.678 -1.97738 -1.57022 0
M  V30 7688 C 743.991 -2.53505 1.61728 0
M  V30 7689 C 745.539 -2.67351 1.62765 0
M  V30 7690 C 746.014 -3.78296 2.58179 0
M  V30 7691 N 747.505 -3.85696 2.56501 0
M  V30 7692 C 748.24 -4.71012 3.2701 0
M  V30 7693 N 747.736 -5.60669 4.06966 0
M  V30 7694 N 749.529 -4.64912 3.15932 0
M  V30 7695 H 741.68 -0.986327 1.8811 0
M  V30 7696 H 743.943 -0.494639 0.808725 0
M  V30 7697 H 743.649 -2.31357 2.6489 0
M  V30 7698 H 743.523 -3.51281 1.3741 0
M  V30 7699 H 745.91 -2.88869 0.603241 0
M  V30 7700 H 745.991 -1.69998 1.91139 0
M  V30 7701 H 745.635 -3.5753 3.60742 0
M  V30 7702 H 745.565 -4.75117 2.27093 0
M  V30 7703 H 748.056 -3.21601 1.98447 0
M  V30 7704 H 748.369 -6.22677 4.57704 0
M  V30 7705 H 746.714 -5.60402 4.11066 0
M  V30 7706 H 749.905 -3.93874 2.52945 0
M  V30 7707 H 750.078 -5.3118 3.71149 0
M  V30 7708 N 743.484 -0.715051 -1.40445 0
M  V30 7709 C 744.414 -0.0768699 -2.33373 0
M  V30 7710 C 745.395 0.746109 -1.52863 0
M  V30 7711 O 746.58 0.695142 -1.81332 0
M  V30 7712 C 743.71 0.846014 -3.36838 0
M  V30 7713 C 742.664 0.128694 -4.27806 0
M  V30 7714 C 741.99 1.16726 -5.21804 0
M  V30 7715 C 743.29 -1.01679 -5.12307 0
M  V30 7716 H 744.984 -0.853061 -2.8699 0
M  V30 7717 H 742.53 -0.41167 -1.3799 0
M  V30 7718 H 744.483 1.30185 -4.00786 0
M  V30 7719 H 743.207 1.6541 -2.81615 0
M  V30 7720 H 741.866 -0.307314 -3.6531 0
M  V30 7721 H 741.514 1.96838 -4.62887 0
M  V30 7722 H 741.214 0.692188 -5.83509 0
M  V30 7723 H 742.738 1.62321 -5.88629 0
M  V30 7724 H 744.152 -0.640337 -5.69713 0
M  V30 7725 H 742.549 -1.4202 -5.83053 0
M  V30 7726 H 743.619 -1.84769 -4.48317 0
M  V30 7727 N 744.962 1.50701 -0.461195 0
M  V30 7728 C 746.239 1.94958 0.158296 0
M  V30 7729 C 746.619 1.40111 1.57899 0
M  V30 7730 O 745.967 0.597976 2.20537 0
M  V30 7731 C 746.177 3.48821 0.11172 0
M  V30 7732 C 747.525 4.23499 0.30552 0
M  V30 7733 O 748.549 3.557 0.188758 0
M  V30 7734 O 747.408 5.43823 0.540244 0
M  V30 7735 H 744.502 0.818674 0.117054 0
M  V30 7736 H 747.048 1.61508 -0.520888 0
M  V30 7737 H 745.82 3.81263 -0.880577 0
M  V30 7738 H 745.443 3.88781 0.832791 0
M  V30 7739 N 746.441 0.193421 1.56409 0
M  V30 7740 C 747.404 -0.714371 2.17783 0
M  V30 7741 C 748.404 -1.1422 1.13183 0
M  V30 7742 O 749.594 -1.05557 1.38576 0
M  V30 7743 C 746.726 -1.97509 2.77855 0
M  V30 7744 H 747.919 -0.179714 2.99361 0
M  V30 7745 H 745.472 -0.0561944 1.56199 0
M  V30 7746 H 746.207 -2.5523 2.0007 0
M  V30 7747 H 745.992 -1.67706 3.54425 0
M  V30 7748 H 747.482 -2.62246 3.24987 0
M  V30 7749 N 747.919 -1.57396 -0.0801906 0
M  V30 7750 C 749.144 -1.91437 -0.797909 0
M  V30 7751 C 749.569 -0.789075 -1.70749 0
M  V30 7752 O 748.927 0.25857 -1.79447 0
M  V30 7753 C 748.975 -3.24402 -1.57467 0
M  V30 7754 O 748.079 -3.13043 -2.68473 0
M  V30 7755 H 747.42 -0.627109 -0.218243 0
M  V30 7756 H 749.95 -2.04537 -0.050949 0
M  V30 7757 H 749.96 -3.58072 -1.95571 0
M  V30 7758 H 748.635 -4.05884 -0.907229 0
M  V30 7759 H 747.212 -2.90915 -2.33287 0
M  V30 7760 N 749.397 0.351382 -1.53633 0
M  V30 7761 C 750.644 1.0925 -1.70502 0
M  V30 7762 C 750.972 1.88881 -0.464123 0
M  V30 7763 O 750.227 1.87693 0.554077 0
M  V30 7764 C 750.526 2.06744 -2.91533 0
M  V30 7765 C 750.192 1.43484 -4.27461 0
M  V30 7766 C 748.854 1.2596 -4.64422 0
M  V30 7767 C 751.206 0.978436 -5.11934 0
M  V30 7768 C 748.534 0.614017 -5.83478 0
M  V30 7769 C 750.886 0.346795 -6.31649 0
M  V30 7770 C 749.55 0.15917 -6.6731 0
M  V30 7771 H 748.82 0.399773 -0.623909 0
M  V30 7772 H 751.467 0.372656 -1.87839 0
M  V30 7773 H 749.772 2.85082 -2.68767 0
M  V30 7774 H 751.469 2.64066 -3.01778 0
M  V30 7775 H 748.059 1.5812 -3.98367 0
M  V30 7776 H 752.243 1.1017 -4.83918 0
M  V30 7777 H 747.499 0.457194 -6.09688 0
M  V30 7778 H 751.673 -0.0149864 -6.96398 0
M  V30 7779 H 749.3 -0.343129 -7.59425 0
M  V30 7780 N 750.875 1.45233 0.611969 0
M  V30 7781 C 751.807 1.49575 1.73666 0
M  V30 7782 C 752.82 0.386987 1.58134 0
M  V30 7783 O 754.009 0.653804 1.66095 0
M  V30 7784 C 751.109 1.33223 3.11617 0
M  V30 7785 C 750.282 2.57694 3.5343 0
M  V30 7786 C 749.341 2.35962 4.70328 0
M  V30 7787 O 748.367 3.09553 4.77667 0
M  V30 7788 N 749.569 1.40243 5.63305 0
M  V30 7789 H 752.334 2.46539 1.70407 0
M  V30 7790 H 749.895 1.40917 0.79712 0
M  V30 7791 H 751.887 1.16502 3.87569 0
M  V30 7792 H 750.457 0.44551 3.09409 0
M  V30 7793 H 749.677 2.8956 2.67486 0
M  V30 7794 H 750.965 3.40441 3.78124 0
M  V30 7795 H 750.363 0.795023 5.60086 0
M  V30 7796 H 748.92 1.29496 6.38807 0
M  V30 7797 N 752.353 -0.854086 1.3245 0
M  V30 7798 C 753.263 -1.99503 1.23434 0
M  V30 7799 C 754.279 -1.73371 0.147828 0
M  V30 7800 O 755.455 -1.97998 0.368609 0
M  V30 7801 C 752.52 -3.33192 0.958328 0
M  V30 7802 C 751.581 -3.72542 2.13333 0
M  V30 7803 C 750.814 -4.99852 1.8704 0
M  V30 7804 O 751.037 -5.64573 0.813239 0
M  V30 7805 O 749.971 -5.36345 2.73161 0
M  V30 7806 H 753.797 -2.10046 2.1935 0
M  V30 7807 H 751.382 -0.984823 1.12346 0
M  V30 7808 H 753.264 -4.13327 0.820918 0
M  V30 7809 H 751.939 -3.23687 0.0293299 0
M  V30 7810 H 750.846 -2.92981 2.32622 0
M  V30 7811 H 752.179 -3.86694 3.04514 0
M  V30 7812 N 753.831 -1.1567 -1.07043 0
M  V30 7813 C 754.781 -0.824733 -2.12561 0
M  V30 7814 C 755.765 0.19243 -1.59745 0
M  V30 7815 O 756.957 -0.00728759 -1.76998 0
M  V30 7816 C 754.086 -0.31921 -3.41813 0
M  V30 7817 C 753.172 -1.36671 -4.01475 0
M  V30 7818 N 753.563 -2.57493 -4.35351 0
M  V30 7819 C 751.861 -1.22018 -4.28984 0
M  V30 7820 C 752.562 -3.24658 -4.82672 0
M  V30 7821 N 751.538 -2.52043 -4.81638 0
M  V30 7822 H 755.34 -1.74363 -2.3659 0
M  V30 7823 H 752.854 -1.04262 -1.24511 0
M  V30 7824 H 754.851 -0.0630216 -4.16852 0
M  V30 7825 H 753.511 0.593708 -3.19226 0
M  V30 7826 H 754.522 -2.94612 -4.25939 0
M  V30 7827 H 751.199 -0.367414 -4.1588 0
M  V30 7828 H 752.589 -4.2775 -5.1815 0
M  V30 7829 N 755.309 1.25446 -0.953992 0
M  V30 7830 C 756.72 1.75047 -0.649255 0
M  V30 7831 C 757.071 1.77527 0.835385 0
M  V30 7832 O 756.196 1.39569 1.65377 0
M  V30 7833 C 756.791 3.17889 -1.17183 0
M  V30 7834 C 755.35 3.65052 -0.917267 0
M  V30 7835 C 754.497 2.44124 -1.31525 0
M  V30 7836 H 757.448 1.11342 -1.13087 0
M  V30 7837 H 757.469 3.76768 -0.531616 0
M  V30 7838 H 756.981 3.16052 -2.25239 0
M  V30 7839 H 755.082 3.72305 0.148354 0
M  V30 7840 H 755.195 4.53222 -1.55328 0
M  V30 7841 H 753.559 2.43906 -0.733624 0
M  V30 7842 H 754.342 2.44979 -2.405 0
M  V30 7843 N 756.787 0.722489 1.40064 0
M  V30 7844 C 758.064 0.191829 1.94657 0
M  V30 7845 C 758.444 -1.30389 1.66018 0
M  V30 7846 O 757.792 -2.06342 0.981588 0
M  V30 7847 C 758.002 0.511978 3.45224 0
M  V30 7848 C 759.35 0.454426 4.22161 0
M  V30 7849 O 760.374 0.448438 3.53366 0
M  V30 7850 O 759.233 0.437986 5.44742 0
M  V30 7851 H 756.327 0.0307821 0.826427 0
M  V30 7852 H 758.873 0.800493 1.49634 0
M  V30 7853 H 757.645 1.54622 3.59455 0
M  V30 7854 H 757.268 -0.126296 3.97399 0
M  V30 7855 N 758.265 -1.50454 0.469181 0
M  V30 7856 C 759.195 -2.31353 -0.31592 0
M  V30 7857 C 760.176 -1.38172 -0.992094 0
M  V30 7858 O 761.361 -1.67093 -0.989633 0
M  V30 7859 C 758.491 -3.1786 -1.39937 0
M  V30 7860 C 757.445 -4.19578 -0.844909 0
M  V30 7861 C 756.771 -4.9481 -2.0265 0
M  V30 7862 C 758.071 -5.22106 0.142499 0
M  V30 7863 H 759.765 -2.97237 0.359269 0
M  V30 7864 H 757.311 -1.42942 0.174224 0
M  V30 7865 H 759.264 -3.7325 -1.95607 0
M  V30 7866 H 757.988 -2.49858 -2.1033 0
M  V30 7867 H 756.647 -3.65285 -0.310189 0
M  V30 7868 H 756.295 -4.23282 -2.71737 0
M  V30 7869 H 755.995 -5.63613 -1.66174 0
M  V30 7870 H 757.519 -5.53035 -2.58815 0
M  V30 7871 H 758.933 -5.72378 -0.324966 0
M  V30 7872 H 757.33 -5.98618 0.421441 0
M  V30 7873 H 758.4 -4.7297 1.06901 0
M  V30 7874 N 759.743 -0.201713 -1.56304 0
M  V30 7875 C 761.154 0.309711 -1.84113 0
M  V30 7876 C 761.505 1.60912 -1.12258 0
M  V30 7877 O 760.63 2.12937 -0.385587 0
M  V30 7878 C 761.225 0.568706 -3.33993 0
M  V30 7879 C 759.784 1.02448 -3.6219 0
M  V30 7880 C 758.931 0.0766842 -2.77194 0
M  V30 7881 H 761.882 -0.425356 -1.52893 0
M  V30 7882 H 761.903 1.41721 -3.53122 0
M  V30 7883 H 761.415 -0.37719 -3.86263 0
M  V30 7884 H 759.516 1.98443 -3.15359 0
M  V30 7885 H 759.629 0.912619 -4.70328 0
M  V30 7886 H 757.993 0.579809 -2.48013 0
M  V30 7887 H 758.776 -0.863774 -3.32256 0
M  V30 7888 N 761.222 1.57436 0.0718424 0
M  V30 7889 C 762.47 1.86878 0.769484 0
M  V30 7890 C 762.791 0.7937 1.78116 0
M  V30 7891 O 762.061 -0.177642 1.95093 0
M  V30 7892 H 760.641 0.689593 0.287177 0
M  V30 7893 H 763.303 1.94841 0.0479427 0
M  V30 7894 H 762.399 2.84387 1.28572 0
M  V30 7895 N 762.7 -0.34323 1.53817 0
M  V30 7896 C 763.63 -1.42709 1.84814 0
M  V30 7897 C 764.611 -1.5488 0.703297 0
M  V30 7898 O 765.796 -1.69082 0.955237 0
M  V30 7899 C 762.926 -2.79756 2.05801 0
M  V30 7900 C 761.88 -2.82392 3.21619 0
M  V30 7901 C 761.206 -4.22326 3.2794 0
M  V30 7902 C 762.506 -2.479 4.59721 0
M  V30 7903 H 764.2 -1.17018 2.75585 0
M  V30 7904 H 761.746 -0.561485 1.32602 0
M  V30 7905 H 763.699 -3.55627 2.26069 0
M  V30 7906 H 762.423 -3.06883 1.11761 0
M  V30 7907 H 761.082 -2.08974 3.01207 0
M  V30 7908 H 760.73 -4.46564 2.31494 0
M  V30 7909 H 760.43 -4.25001 4.05768 0
M  V30 7910 H 761.954 -5.00039 3.50419 0
M  V30 7911 H 763.368 -3.13484 4.80001 0
M  V30 7912 H 761.765 -2.61857 5.39954 0
M  V30 7913 H 762.835 -1.43087 4.63308 0
M  V30 7914 N 764.178 -1.45556 -0.604258 0
M  V30 7915 C 765.424 -1.50958 -1.3632 0
M  V30 7916 C 765.779 -0.15051 -1.9181 0
M  V30 7917 O 765.072 0.838035 -1.72301 0
M  V30 7918 C 765.266 -2.52697 -2.52743 0
M  V30 7919 C 765.095 -3.98364 -2.08654 0
M  V30 7920 C 763.865 -4.66295 -1.94671 0
M  V30 7921 C 766.063 -4.86801 -1.6592 0
M  V30 7922 N 764.045 -5.96669 -1.44428 0
M  V30 7923 C 765.416 -6.06829 -1.27115 0
M  V30 7924 C 767.471 -4.73634 -1.53542 0
M  V30 7925 C 766.174 -7.15149 -0.771676 0
M  V30 7926 C 768.2 -5.82005 -1.04998 0
M  V30 7927 C 767.562 -7.01191 -0.671599 0
M  V30 7928 H 763.661 -0.607329 -0.492621 0
M  V30 7929 H 766.245 -1.82048 -0.69041 0
M  V30 7930 H 764.416 -2.23554 -3.17614 0
M  V30 7931 H 766.148 -2.48227 -3.19633 0
M  V30 7932 H 762.903 -4.21496 -2.15959 0
M  V30 7933 H 763.327 -6.66003 -1.21528 0
M  V30 7934 H 767.969 -3.81898 -1.81421 0
M  V30 7935 H 765.687 -8.06671 -0.480442 0
M  V30 7936 H 769.273 -5.73851 -0.958423 0
M  V30 7937 H 768.153 -7.83619 -0.301752 0
M  V30 7938 N 765.656 0.84705 -1.32902 0
M  V30 7939 C 766.586 1.97166 -1.25091 0
M  V30 7940 C 767.567 1.69578 -0.133161 0
M  V30 7941 O 768.752 1.91519 -0.321591 0
M  V30 7942 C 765.882 3.33157 -0.981006 0
M  V30 7943 C 764.836 3.75119 -2.06082 0
M  V30 7944 C 764.162 5.08826 -1.64318 0
M  V30 7945 C 765.462 3.89774 -3.47669 0
M  V30 7946 H 767.156 2.03958 -2.19184 0
M  V30 7947 H 764.702 0.979907 -1.05517 0
M  V30 7948 H 766.655 4.11393 -0.912891 0
M  V30 7949 H 765.379 3.266 -0.00445559 0
M  V30 7950 H 764.038 2.9914 -2.11921 0
M  V30 7951 H 763.686 4.98732 -0.653876 0
M  V30 7952 H 763.386 5.37873 -2.36572 0
M  V30 7953 H 764.91 5.89546 -1.58958 0
M  V30 7954 H 766.324 4.58343 -3.44376 0
M  V30 7955 H 764.721 4.30248 -4.18338 0
M  V30 7956 H 765.791 2.92463 -3.86773 0
M  V30 7957 N 767.134 1.16236 1.06428 0
M  V30 7958 C 768.084 0.835994 2.12121 0
M  V30 7959 C 769.068 -0.183955 1.59845 0
M  V30 7960 O 770.26 0.0166741 1.76992 0
M  V30 7961 C 767.389 0.337333 3.41639 0
M  V30 7962 C 766.475 1.38798 4.00744 0
M  V30 7963 N 766.866 2.59799 4.3398 0
M  V30 7964 C 765.164 1.24292 4.28331 0
M  V30 7965 C 765.865 3.27213 4.80943 0
M  V30 7966 N 764.841 2.54594 4.80294 0
M  V30 7967 H 768.643 1.75615 2.35662 0
M  V30 7968 H 766.157 1.04921 1.23957 0
M  V30 7969 H 768.154 0.0851274 4.16813 0
M  V30 7970 H 766.814 -0.57677 3.19536 0
M  V30 7971 H 767.825 2.96867 4.24371 0
M  V30 7972 H 764.502 0.389464 4.15679 0
M  V30 7973 H 765.892 4.30492 5.15874 0
M  V30 7974 N 768.612 -1.24939 0.960631 0
M  V30 7975 C 769.544 -2.24879 0.442937 0
M  V30 7976 C 770.557 -1.56615 -0.444464 0
M  V30 7977 O 771.746 -1.76715 -0.251776 0
M  V30 7978 C 768.846 -3.36757 -0.380537 0
M  V30 7979 C 768.019 -4.34587 0.495283 0
M  V30 7980 C 767.078 -5.25502 -0.270995 0
M  V30 7981 O 766.104 -5.68227 0.332661 0
M  V30 7982 N 767.306 -5.59077 -1.56249 0
M  V30 7983 H 770.071 -2.69932 1.30218 0
M  V30 7984 H 767.632 -1.38907 0.83166 0
M  V30 7985 H 769.624 -3.94542 -0.90103 0
M  V30 7986 H 768.194 -2.91045 -1.14067 0
M  V30 7987 H 767.414 -3.75593 1.19682 0
M  V30 7988 H 768.702 -4.96925 1.09285 0
M  V30 7989 H 768.1 -5.2628 -2.07476 0
M  V30 7990 H 766.657 -6.19421 -2.02882 0
M  V30 7991 N 770.09 -0.729906 -1.39679 0
M  V30 7992 C 771.053 -0.0951668 -2.29002 0
M  V30 7993 C 772.053 0.672471 -1.46063 0
M  V30 7994 O 773.243 0.502245 -1.66803 0
M  V30 7995 C 770.375 0.874631 -3.29489 0
M  V30 7996 H 771.568 -0.882062 -2.86635 0
M  V30 7997 H 769.121 -0.495424 -1.4824 0
M  V30 7998 H 769.856 1.68807 -2.76902 0
M  V30 7999 H 769.641 0.326893 -3.90735 0
M  V30 8000 H 771.131 1.31548 -3.96339 0
M  V30 8001 N 771.568 1.50203 -0.477153 0
M  V30 8002 C 772.815 2.02358 0.0757385 0
M  V30 8003 C 773.143 1.3587 1.39174 0
M  V30 8004 O 772.398 0.475415 1.89838 0
M  V30 8005 C 772.697 3.56127 0.301325 0
M  V30 8006 C 772.363 4.41126 -0.933725 0
M  V30 8007 C 771.025 4.64075 -1.27233 0
M  V30 8008 C 773.377 4.90737 -1.75576 0
M  V30 8009 C 770.705 5.33878 -2.43292 0
M  V30 8010 C 773.057 5.61816 -2.90768 0
M  V30 8011 C 771.721 5.83016 -3.25036 0
M  V30 8012 H 770.991 0.740482 0.0277147 0
M  V30 8013 H 773.638 1.80754 -0.632467 0
M  V30 8014 H 771.943 3.76279 1.09183 0
M  V30 8015 H 773.64 3.94053 0.743184 0
M  V30 8016 H 770.23 4.23489 -0.659935 0
M  V30 8017 H 774.414 4.72856 -1.50734 0
M  V30 8018 H 769.67 5.48499 -2.70109 0
M  V30 8019 H 773.844 5.99237 -3.54807 0
M  V30 8020 H 771.471 6.36881 -4.15074 0
M  V30 8021 N 773.046 0.209999 1.56195 0
M  V30 8022 C 774.293 -0.424813 1.97994 0
M  V30 8023 C 774.621 -1.60589 1.09733 0
M  V30 8024 O 773.876 -1.95201 0.139693 0
M  V30 8025 C 774.175 -0.91312 3.45539 0
M  V30 8026 C 773.841 0.156187 4.50629 0
M  V30 8027 C 772.503 0.449966 4.79092 0
M  V30 8028 C 774.855 0.879959 5.13718 0
M  V30 8029 C 772.183 1.47223 5.67928 0
M  V30 8030 C 774.535 1.89148 6.0366 0
M  V30 8031 C 773.199 2.1923 6.30472 0
M  V30 8032 H 772.469 -0.15545 0.724511 0
M  V30 8033 H 775.116 0.310095 1.88973 0
M  V30 8034 H 773.421 -1.72658 3.51705 0
M  V30 8035 H 775.118 -1.41395 3.75245 0
M  V30 8036 H 771.708 -0.0829466 4.2852 0
M  V30 8037 H 775.892 0.66623 4.91808 0
M  V30 8038 H 771.148 1.71105 5.86969 0
M  V30 8039 H 775.322 2.45745 6.516 0
M  V30 8040 H 772.949 2.98587 6.99107 0
M  V30 8041 N 774.524 -1.57472 -0.0634922 0
M  V30 8042 C 775.749 -1.92273 -0.77756 0
M  V30 8043 C 776.174 -0.807141 -1.69902 0
M  V30 8044 O 775.532 0.239523 -1.79711 0
M  V30 8045 C 775.58 -3.26054 -1.54017 0
M  V30 8046 O 774.684 -3.15873 -2.65138 0
M  V30 8047 H 774.025 -0.629389 -0.211579 0
M  V30 8048 H 776.555 -2.04579 -0.0292523 0
M  V30 8049 H 776.565 -3.60127 -1.91763 0
M  V30 8050 H 775.24 -4.06824 -0.864128 0
M  V30 8051 H 773.817 -2.93373 -2.30189 0
M  V30 8052 N 776.003 0.335068 -1.53997 0
M  V30 8053 C 777.414 0.910191 -1.6301 0
M  V30 8054 C 777.765 1.89271 -0.516809 0
M  V30 8055 O 776.89 2.13516 0.352123 0
M  V30 8056 C 777.485 1.65761 -2.9548 0
M  V30 8057 C 776.044 2.18163 -3.06728 0
M  V30 8058 C 775.191 1.00338 -2.5851 0
M  V30 8059 H 778.142 0.112965 -1.58297 0
M  V30 8060 H 778.163 2.52107 -2.84995 0
M  V30 8061 H 777.675 0.94227 -3.76488 0
M  V30 8062 H 775.776 2.92847 -2.30372 0
M  V30 8063 H 775.889 2.43952 -4.1234 0
M  V30 8064 H 774.253 1.37925 -2.14124 0
M  V30 8065 H 775.036 0.30254 -3.41964 0
M  V30 8066 N 777.481 1.45874 0.596531 0
M  V30 8067 C 778.727 1.51679 1.35518 0
M  V30 8068 C 779.082 0.160681 1.91728 0
M  V30 8069 O 778.375 -0.828886 1.72743 0
M  V30 8070 C 778.569 2.54034 2.51399 0
M  V30 8071 C 778.398 3.99465 2.06538 0
M  V30 8072 C 777.168 4.67321 1.92196 0
M  V30 8073 C 779.366 4.87674 1.63336 0
M  V30 8074 N 777.348 5.97427 1.41261 0
M  V30 8075 C 778.719 6.07495 1.23895 0
M  V30 8076 C 780.774 4.74442 1.51028 0
M  V30 8077 C 779.477 7.15548 0.733739 0
M  V30 8078 C 781.503 5.82553 1.0191 0
M  V30 8079 C 780.865 7.01537 0.634403 0
M  V30 8080 H 776.964 0.609933 0.489393 0
M  V30 8081 H 779.548 1.82411 0.680746 0
M  V30 8082 H 777.719 2.25235 3.16424 0
M  V30 8083 H 779.451 2.49918 3.18313 0
M  V30 8084 H 776.206 4.22635 2.1372 0
M  V30 8085 H 776.63 6.66638 1.17995 0
M  V30 8086 H 781.272 3.82855 1.79393 0
M  V30 8087 H 778.99 8.06914 0.437656 0
M  V30 8088 H 782.576 5.74352 0.927977 0
M  V30 8089 H 781.456 7.83768 0.26019 0
M  V30 8090 N 778.959 -0.83999 1.33349 0
M  V30 8091 C 780.187 -1.62728 1.27778 0
M  V30 8092 C 780.602 -1.88191 -0.151505 0
M  V30 8093 O 779.959 -1.46128 -1.09329 0
M  V30 8094 C 780.01 -2.97813 2.04913 0
M  V30 8095 O 779.731 -2.73469 3.42266 0
M  V30 8096 C 781.232 -3.92245 2.0654 0
M  V30 8097 H 778.452 -0.506374 0.440257 0
M  V30 8098 H 780.996 -1.04637 1.75703 0
M  V30 8099 H 779.151 -3.52509 1.60674 0
M  V30 8100 H 779.565 -3.59483 3.81932 0
M  V30 8101 H 781.039 -4.84249 2.64966 0
M  V30 8102 H 781.516 -4.26332 1.05537 0
M  V30 8103 H 782.122 -3.43487 2.50793 0
M  V30 8104 N 780.437 -1.16799 -1.0581 0
M  V30 8105 C 781.367 -0.902241 -2.15364 0
M  V30 8106 C 782.348 0.153351 -1.69407 0
M  V30 8107 O 783.533 0.00442032 -1.94199 0
M  V30 8108 C 780.663 -0.407911 -3.44896 0
M  V30 8109 C 779.617 -1.40197 -4.04387 0
M  V30 8110 C 778.943 -0.765848 -5.29187 0
M  V30 8111 C 780.243 -2.77316 -4.42598 0
M  V30 8112 H 781.937 -1.81841 -2.37853 0
M  V30 8113 H 779.483 -0.875731 -1.14311 0
M  V30 8114 H 781.436 -0.20945 -4.20879 0
M  V30 8115 H 780.16 0.54378 -3.22041 0
M  V30 8116 H 778.819 -1.58707 -3.30466 0
M  V30 8117 H 778.467 0.192482 -5.02632 0
M  V30 8118 H 778.167 -1.42939 -5.69949 0
M  V30 8119 H 779.691 -0.577519 -6.07863 0
M  V30 8120 H 781.105 -2.62561 -5.09642 0
M  V30 8121 H 779.502 -3.4019 -4.94359 0
M  V30 8122 H 780.572 -3.32199 -3.53231 0
M  V30 8123 N 781.915 1.24427 -0.967243 0
M  V30 8124 C 782.845 2.2773 -0.515899 0
M  V30 8125 C 783.826 1.64197 0.444227 0
M  V30 8126 O 785.011 1.91193 0.340451 0
M  V30 8127 C 782.141 3.46751 0.195149 0
M  V30 8128 C 781.095 4.22548 -0.680953 0
M  V30 8129 C 780.421 5.34456 0.161561 0
M  V30 8130 C 781.721 4.83914 -1.96532 0
M  V30 8131 H 783.415 2.65735 -1.37933 0
M  V30 8132 H 780.961 1.27742 -0.664681 0
M  V30 8133 H 782.914 4.18153 0.522117 0
M  V30 8134 H 781.638 3.07771 1.09292 0
M  V30 8135 H 780.297 3.52946 -0.991186 0
M  V30 8136 H 779.945 4.91716 1.05947 0
M  V30 8137 H 779.645 5.86087 -0.421418 0
M  V30 8138 H 781.169 6.08685 0.483211 0
M  V30 8139 H 782.583 5.47392 -1.70396 0
M  V30 8140 H 780.98 5.45775 -2.49499 0
M  V30 8141 H 782.05 4.05393 -2.66053 0
M  V30 8142 N 783.393 0.737304 1.3929 0
M  V30 8143 C 784.809 0.413132 1.5416 0
M  V30 8144 C 785.009 -1.07574 1.70382 0
M  V30 8145 O 784.065 -1.86185 1.70562 0
M  V30 8146 C 785.378 1.19817 2.75798 0
M  V30 8147 C 786.926 1.18662 2.89635 0
M  V30 8148 C 787.401 1.95427 4.14213 0
M  V30 8149 N 788.892 1.92605 4.21257 0
M  V30 8150 C 789.627 2.48808 5.16606 0
M  V30 8151 N 789.123 3.13659 6.1773 0
M  V30 8152 N 790.916 2.38829 5.08839 0
M  V30 8153 H 783.067 1.70243 1.27008 0
M  V30 8154 H 785.33 0.720802 0.61575 0
M  V30 8155 H 785.036 2.25179 2.70161 0
M  V30 8156 H 784.91 0.804144 3.68529 0
M  V30 8157 H 787.297 0.141112 2.94762 0
M  V30 8158 H 787.378 1.62003 1.97961 0
M  V30 8159 H 787.022 2.9998 4.09847 0
M  V30 8160 H 786.952 1.4949 5.04936 0
M  V30 8161 H 789.443 1.45362 3.48824 0
M  V30 8162 H 789.756 3.54006 6.8695 0
M  V30 8163 H 788.101 3.17749 6.1811 0
M  V30 8164 H 791.292 1.87806 4.28773 0
M  V30 8165 H 791.465 2.82929 5.82971 0
M  V30 8166 N 784.871 -1.49948 0.485112 0
M  V30 8167 C 786.119 -2.01996 -0.0648775 0
M  V30 8168 C 786.44 -1.36819 -1.38945 0
M  V30 8169 O 785.71 -0.518163 -1.88923 0
M  V30 8170 H 784.29 -0.746513 -0.0269662 0
M  V30 8171 H 786.952 -1.84136 0.638733 0
M  V30 8172 H 786.048 -3.11418 -0.20617 0
M  V30 8173 N 786.349 -0.21828 -1.56081 0
M  V30 8174 C 787.597 0.413488 -1.97825 0
M  V30 8175 C 787.918 1.60527 -1.10707 0
M  V30 8176 O 787.188 1.9504 -0.183378 0
M  V30 8177 H 785.768 0.155757 -0.730581 0
M  V30 8178 H 788.43 -0.310413 -1.92412 0
M  V30 8179 H 787.526 0.742024 -3.03151 0
M  V30 8180 N 787.827 1.57504 0.0551401 0
M  V30 8181 C 789.075 1.87684 0.74962 0
M  V30 8182 C 789.396 0.812547 1.77264 0
M  V30 8183 O 788.666 -0.15694 1.9527 0
M  V30 8184 H 787.246 0.6926 0.279846 0
M  V30 8185 H 789.908 1.94881 0.0272745 0
M  V30 8186 H 789.004 2.85734 1.25548 0
M  V30 8187 N 789.305 -0.326896 1.54172 0
M  V30 8188 C 790.235 -1.40741 1.86317 0
M  V30 8189 C 791.216 -1.54125 0.719684 0
M  V30 8190 O 792.401 -1.6806 0.973117 0
M  V30 8191 C 789.531 -2.77557 2.08757 0
M  V30 8192 C 788.485 -2.78965 3.24596 0
M  V30 8193 C 787.811 -4.18824 3.32401 0
M  V30 8194 C 789.111 -2.4301 4.62324 0
M  V30 8195 H 790.805 -1.14088 2.76811 0
M  V30 8196 H 788.351 -0.547389 1.3319 0
M  V30 8197 H 790.304 -3.53209 2.29829 0
M  V30 8198 H 789.028 -3.0568 1.15009 0
M  V30 8199 H 787.687 -2.05767 3.03406 0
M  V30 8200 H 787.335 -4.44083 2.36218 0
M  V30 8201 H 787.035 -4.20673 4.10253 0
M  V30 8202 H 788.559 -4.96294 3.55703 0
M  V30 8203 H 789.973 -3.08375 4.83299 0
M  V30 8204 H 788.37 -2.56116 5.42701 0
M  V30 8205 H 789.44 -1.38165 4.64799 0
M  V30 8206 N 790.784 -1.46188 -0.588786 0
M  V30 8207 C 792.061 -1.41659 -1.34878 0
M  V30 8208 C 792.441 -0.0968913 -2.10878 0
M  V30 8209 O 791.789 0.921468 -2.09096 0
M  V30 8210 C 791.999 -2.6424 -2.27988 0
M  V30 8211 C 793.347 -3.1013 -2.90008 0
M  V30 8212 O 794.371 -2.64745 -2.38303 0
M  V30 8213 O 793.23 -3.88944 -3.83908 0
M  V30 8214 H 790.324 -0.563058 -0.605718 0
M  V30 8215 H 792.87 -1.58346 -0.610309 0
M  V30 8216 H 791.642 -3.51853 -1.71217 0
M  V30 8217 H 791.265 -2.49982 -3.09184 0
M  V30 8218 N 792.262 0.832906 -1.33792 0
M  V30 8219 C 793.673 1.40489 -1.22963 0
M  V30 8220 C 794.024 1.95633 0.149026 0
M  V30 8221 O 793.149 1.8928 1.04891 0
M  V30 8222 C 793.744 2.55387 -2.22627 0
M  V30 8223 C 792.303 3.08522 -2.15618 0
M  V30 8224 C 791.45 1.81347 -2.09782 0
M  V30 8225 H 794.401 0.638156 -1.45304 0
M  V30 8226 H 794.422 3.33193 -1.83746 0
M  V30 8227 H 793.934 2.15222 -3.22957 0
M  V30 8228 H 792.035 3.53217 -1.18611 0
M  V30 8229 H 792.148 3.6829 -3.0643 0
M  V30 8230 H 790.512 2.01839 -1.55349 0
M  V30 8231 H 791.295 1.43369 -3.1193 0
M  V30 8232 N 793.74 1.17359 1.05189 0
M  V30 8233 C 794.67 0.91365 2.14883 0
M  V30 8234 C 795.651 -0.144365 1.69486 0
M  V30 8235 O 796.836 0.00587861 1.94199 0
M  V30 8236 C 793.966 0.426196 3.44675 0
M  V30 8237 C 792.92 1.4234 4.03638 0
M  V30 8238 C 792.246 0.793902 5.28773 0
M  V30 8239 C 793.546 2.7966 4.41121 0
M  V30 8240 H 795.24 1.831 2.36885 0
M  V30 8241 H 792.786 0.881781 1.13845 0
M  V30 8242 H 794.739 0.231767 4.20762 0
M  V30 8243 H 793.463 -0.526693 3.22325 0
M  V30 8244 H 792.122 1.60457 3.2962 0
M  V30 8245 H 791.77 -0.165824 5.02727 0
M  V30 8246 H 791.47 1.45959 5.69183 0
M  V30 8247 H 792.994 0.609747 6.07548 0
M  V30 8248 H 794.408 2.6526 5.08242 0
M  V30 8249 H 792.805 3.42807 4.92548 0
M  V30 8250 H 793.875 3.34068 3.51464 0
M  V30 8251 N 795.218 -1.23913 0.973828 0
M  V30 8252 C 796.467 -1.91455 0.63464 0
M  V30 8253 C 796.78 -1.76893 -0.834759 0
M  V30 8254 O 797.986 -2.3918 -1.28473 0
M  V30 8255 C 796.442 -3.43172 1.08447 0
M  V30 8256 C 796.05 -3.66409 2.57776 0
M  V30 8257 C 797.794 -4.1653 0.818721 0
M  V30 8258 C 795.701 -5.11728 2.9646 0
M  V30 8259 H 794.631 -0.716881 0.233661 0
M  V30 8260 H 797.282 -1.40457 1.18085 0
M  V30 8261 H 795.664 -3.93242 0.466524 0
M  V30 8262 H 796.838 -3.26913 3.24753 0
M  V30 8263 H 795.153 -3.06349 2.82027 0
M  V30 8264 H 797.75 -5.23603 1.08367 0
M  V30 8265 H 798.093 -4.15578 -0.245128 0
M  V30 8266 H 798.626 -3.72428 1.39793 0
M  V30 8267 H 795.365 -5.17806 4.01941 0
M  V30 8268 H 794.885 -5.52199 2.34172 0
M  V30 8269 H 796.564 -5.80009 2.86703 0
M  V30 8270 N 796.696 -0.74468 -1.38897 0
M  V30 8271 C 798.112 -0.421302 -1.53939 0
M  V30 8272 C 798.312 1.06668 -1.70951 0
M  V30 8273 O 797.368 1.85278 -1.71547 0
M  V30 8274 C 798.681 -1.21278 -2.75159 0
M  V30 8275 C 800.229 -1.20196 -2.89001 0
M  V30 8276 C 800.704 -1.97621 -4.13171 0
M  V30 8277 N 802.195 -1.94836 -4.2023 0
M  V30 8278 C 802.93 -2.51545 -5.15279 0
M  V30 8279 N 802.426 -3.1693 -6.16058 0
M  V30 8280 N 804.219 -2.41524 -5.07565 0
M  V30 8281 H 796.37 -1.70914 -1.26103 0
M  V30 8282 H 798.633 -0.724058 -0.611919 0
M  V30 8283 H 798.339 -2.26609 -2.68963 0
M  V30 8284 H 798.213 -0.823677 -3.68097 0
M  V30 8285 H 800.6 -0.156742 -2.94683 0
M  V30 8286 H 800.681 -1.63051 -1.97099 0
M  V30 8287 H 800.325 -3.02149 -4.0825 0
M  V30 8288 H 800.255 -1.52166 -5.04136 0
M  V30 8289 H 802.746 -1.4721 -3.48048 0
M  V30 8290 H 803.059 -3.57644 -6.85062 0
M  V30 8291 H 801.404 -3.21023 -6.16417 0
M  V30 8292 H 804.595 -1.90077 -4.27771 0
M  V30 8293 H 804.768 -2.86016 -5.81462 0
M  V30 8294 N 798.174 1.49689 -0.493057 0
M  V30 8295 C 799.422 2.02027 0.0541642 0
M  V30 8296 C 799.743 1.37554 1.38217 0
M  V30 8297 O 799.013 0.528174 1.88646 0
M  V30 8298 H 797.593 0.746646 0.0230069 0
M  V30 8299 H 800.255 1.83795 -0.648489 0
M  V30 8300 H 799.351 3.11523 0.189652 0
M  V30 8301 N 799.652 0.226554 1.55963 0
M  V30 8302 C 800.582 -0.676079 2.23498 0
M  V30 8303 C 801.563 -1.19718 1.20837 0
M  V30 8304 O 802.748 -1.24027 1.49436 0
M  V30 8305 C 799.878 -1.88217 2.91876 0
M  V30 8306 C 798.832 -1.4947 4.01052 0
M  V30 8307 C 798.158 -2.77997 4.56751 0
M  V30 8308 C 799.458 -0.680951 5.17842 0
M  V30 8309 H 801.152 -0.112989 2.99187 0
M  V30 8310 H 798.698 -0.0529046 1.43903 0
M  V30 8311 H 800.651 -2.51911 3.37815 0
M  V30 8312 H 799.375 -2.47031 2.13643 0
M  V30 8313 H 798.034 -0.881199 3.55852 0
M  V30 8314 H 797.682 -3.34966 3.75243 0
M  V30 8315 H 797.382 -2.52803 5.30438 0
M  V30 8316 H 798.906 -3.42625 5.05411 0
M  V30 8317 H 800.32 -1.22171 5.60131 0
M  V30 8318 H 798.717 -0.525898 5.97791 0
M  V30 8319 H 799.787 0.311346 4.83899 0
M  V30 8320 N 801.13 -1.57531 -0.0467866 0
M  V30 8321 C 802.06 -2.08425 -1.05268 0
M  V30 8322 C 803.041 -0.982941 -1.38825 0
M  V30 8323 O 804.226 -1.25716 -1.48018 0
M  V30 8324 C 801.356 -2.54897 -2.35891 0
M  V30 8325 C 800.31 -3.69132 -2.16623 0
M  V30 8326 C 799.636 -4.01747 -3.52851 0
M  V30 8327 C 800.936 -4.98243 -1.56689 0
M  V30 8328 H 802.63 -2.92716 -0.62908 0
M  V30 8329 H 800.176 -1.40816 -0.301156 0
M  V30 8330 H 802.129 -2.8912 -3.06574 0
M  V30 8331 H 800.853 -1.67666 -2.80278 0
M  V30 8332 H 799.512 -3.35231 -1.48377 0
M  V30 8333 H 799.16 -3.11608 -3.94853 0
M  V30 8334 H 798.86 -4.78681 -3.4079 0
M  V30 8335 H 800.384 -4.38487 -4.24925 0
M  V30 8336 H 801.798 -5.30535 -2.17268 0
M  V30 8337 H 800.195 -5.79669 -1.55255 0
M  V30 8338 H 801.265 -4.81986 -0.530827 0
M  V30 8339 N 802.608 0.318715 -1.54344 0
M  V30 8340 C 803.571 1.37545 -1.83342 0
M  V30 8341 C 804.571 1.445 -0.705444 0
M  V30 8342 O 805.761 1.44443 -0.973752 0
M  V30 8343 C 802.893 2.76225 -1.99781 0
M  V30 8344 H 804.086 1.13084 -2.77762 0
M  V30 8345 H 801.639 0.554457 -1.46135 0
M  V30 8346 H 802.374 3.05934 -1.07588 0
M  V30 8347 H 802.159 2.7257 -2.81865 0
M  V30 8348 H 803.649 3.52664 -2.23647 0
M  V30 8349 N 804.086 1.46499 0.581025 0
M  V30 8350 C 805.502 1.31491 0.904563 0
M  V30 8351 C 805.702 0.287598 1.99437 0
M  V30 8352 O 804.758 -0.309247 2.50599 0
M  V30 8353 C 806.071 2.70163 1.32032 0
M  V30 8354 C 807.619 2.78266 1.43308 0
M  V30 8355 C 808.094 4.17524 1.8825 0
M  V30 8356 N 809.585 4.19949 1.9544 0
M  V30 8357 C 810.32 5.24594 2.31493 0
M  V30 8358 N 809.816 6.39564 2.66326 0
M  V30 8359 N 811.609 5.11961 2.32062 0
M  V30 8360 H 803.76 2.11946 -0.138856 0
M  V30 8361 H 806.023 0.948 0.000548528 0
M  V30 8362 H 805.729 3.46655 0.593554 0
M  V30 8363 H 805.603 3.00379 2.2815 0
M  V30 8364 H 807.99 2.02061 2.15071 0
M  V30 8365 H 808.071 2.51732 0.45438 0
M  V30 8366 H 807.715 4.94225 1.17065 0
M  V30 8367 H 807.645 4.41466 2.87081 0
M  V30 8368 H 810.136 3.36996 1.71004 0
M  V30 8369 H 810.449 7.15187 2.92793 0
M  V30 8370 H 808.794 6.42923 2.6396 0
M  V30 8371 H 811.985 4.21177 2.04272 0
M  V30 8372 H 812.158 5.93626 2.5983 0
M  V30 8373 N 805.565 -0.825799 1.34232 0
M  V30 8374 C 806.976 -1.39835 1.23706 0
M  V30 8375 C 807.327 -1.95709 -0.138649 0
M  V30 8376 O 806.452 -1.89833 -1.03886 0
M  V30 8377 C 807.047 -2.54203 2.23978 0
M  V30 8378 C 805.606 -3.07374 2.17251 0
M  V30 8379 C 804.753 -1.80232 2.10741 0
M  V30 8380 H 807.704 -0.630442 1.4564 0
M  V30 8381 H 807.725 -3.32214 1.8551 0
M  V30 8382 H 807.237 -2.13506 3.24094 0
M  V30 8383 H 805.338 -3.52583 1.20483 0
M  V30 8384 H 805.451 -3.6666 3.08379 0
M  V30 8385 H 803.815 -2.01012 1.56417 0
M  V30 8386 H 804.598 -1.41713 3.12686 0
M  V30 8387 N 807.043 -1.17915 -1.04565 0
M  V30 8388 C 808.006 -0.903787 -2.10628 0
M  V30 8389 C 809.006 0.10873 -1.60432 0
M  V30 8390 O 810.196 -0.124152 -1.73757 0
M  V30 8391 C 807.328 -0.355017 -3.39046 0
M  V30 8392 H 808.521 -1.84425 -2.3649 0
M  V30 8393 H 806.074 -0.990477 -1.2091 0
M  V30 8394 H 806.809 0.592297 -3.18845 0
M  V30 8395 H 806.594 -1.08484 -3.76794 0
M  V30 8396 H 808.084 -0.180891 -4.17208 0
M  V30 8397 N 808.521 1.23394 -0.980386 0
M  V30 8398 C 809.468 2.24859 -0.520298 0
M  V30 8399 C 810.438 1.60144 0.440821 0
M  V30 8400 O 811.623 1.87593 0.348369 0
M  V30 8401 C 808.763 3.44675 0.171145 0
M  V30 8402 C 807.876 4.23947 -0.830233 0
M  V30 8403 C 807.011 5.31079 -0.113597 0
M  V30 8404 C 806.05 6.02058 -1.10419 0
M  V30 8405 N 805.187 7.00862 -0.416709 0
M  V30 8406 H 810.027 2.63579 -1.39032 0
M  V30 8407 H 807.564 1.29556 -0.696682 0
M  V30 8408 H 809.522 4.13024 0.588838 0
M  V30 8409 H 808.152 3.06755 1.00504 0
M  V30 8410 H 807.204 3.55016 -1.36631 0
M  V30 8411 H 808.516 4.72945 -1.58508 0
M  V30 8412 H 807.67 6.05622 0.36146 0
M  V30 8413 H 806.409 4.83022 0.673854 0
M  V30 8414 H 805.414 5.26307 -1.59 0
M  V30 8415 H 806.639 6.52203 -1.8923 0
M  V30 8416 H 804.585 6.55057 0.351535 0
M  V30 8417 H 804.502 7.47804 -1.11021 0
M  V30 8418 H 805.77 7.79492 0.0359606 0
M  V30 8419 N 809.999 0.752036 1.385 0
M  V30 8420 C 810.929 0.138718 2.33088 0
M  V30 8421 C 811.91 -0.705318 1.54788 0
M  V30 8422 O 813.095 -0.646821 1.83112 0
M  V30 8423 C 810.225 -0.75641 3.38963 0
M  V30 8424 C 809.179 -0.0152239 4.27997 0
M  V30 8425 C 808.505 -1.0285 5.24715 0
M  V30 8426 C 809.805 1.15226 5.09431 0
M  V30 8427 H 811.499 0.928852 2.84627 0
M  V30 8428 H 809.045 0.448111 1.3685 0
M  V30 8429 H 810.998 -1.19513 4.04097 0
M  V30 8430 H 809.722 -1.57885 2.85902 0
M  V30 8431 H 808.381 0.404061 3.64366 0
M  V30 8432 H 808.029 -1.84496 4.67943 0
M  V30 8433 H 807.729 -0.537238 5.85139 0
M  V30 8434 H 809.253 -1.46657 5.92726 0
M  V30 8435 H 810.667 0.791161 5.67815 0
M  V30 8436 H 809.064 1.57428 5.79082 0
M  V30 8437 H 810.134 1.9659 4.43261 0
M  V30 8438 N 811.477 -1.49425 0.500989 0
M  V30 8439 C 812.409 -2.27037 -0.314159 0
M  V30 8440 C 813.422 -1.33578 -0.930626 0
M  V30 8441 O 814.611 -1.58861 -0.813968 0
M  V30 8442 C 811.711 -3.05968 -1.45729 0
M  V30 8443 C 810.884 -4.27 -0.948135 0
M  V30 8444 C 809.943 -4.87977 -1.96888 0
M  V30 8445 O 808.969 -5.48044 -1.53743 0
M  V30 8446 N 810.171 -4.77627 -3.29928 0
M  V30 8447 H 812.936 -2.97634 0.351336 0
M  V30 8448 H 810.497 -1.58427 0.333536 0
M  V30 8449 H 812.489 -3.43634 -2.1377 0
M  V30 8450 H 811.059 -2.37978 -2.02695 0
M  V30 8451 H 810.279 -3.94091 -0.0926311 0
M  V30 8452 H 811.567 -5.0541 -0.586362 0
M  V30 8453 H 810.965 -4.29926 -3.67669 0
M  V30 8454 H 809.522 -5.19478 -3.93682 0
M  V30 8455 N 812.955 -0.234822 -1.55841 0
M  V30 8456 C 814.201 0.393843 -1.98939 0
M  V30 8457 C 814.534 1.58466 -1.1226 0
M  V30 8458 O 813.809 1.93635 -0.183242 0
M  V30 8459 C 814.092 0.815492 -3.50745 0
M  V30 8460 C 813.945 -0.379878 -4.48193 0
M  V30 8461 C 815.264 1.66687 -4.07312 0
M  V30 8462 H 812.383 0.141681 -0.723253 0
M  V30 8463 H 815.025 -0.333716 -1.87046 0
M  V30 8464 H 813.175 1.43541 -3.6101 0
M  V30 8465 H 814.847 -1.0182 -4.49923 0
M  V30 8466 H 813.09 -1.02507 -4.21515 0
M  V30 8467 H 813.761 -0.0417069 -5.51984 0
M  V30 8468 H 816.237 1.14369 -4.00074 0
M  V30 8469 H 815.113 1.93078 -5.13821 0
M  V30 8470 H 815.374 2.63468 -3.55017 0
M  V30 8471 N 814.433 1.57553 0.0384317 0
M  V30 8472 C 815.365 2.02726 1.06934 0
M  V30 8473 C 816.378 0.938502 1.33026 0
M  V30 8474 O 817.567 1.21595 1.30678 0
M  V30 8475 C 814.667 2.37958 2.41308 0
M  V30 8476 C 813.84 3.69098 2.34703 0
M  V30 8477 C 812.899 3.91623 3.51451 0
M  V30 8478 O 811.925 4.628 3.31368 0
M  V30 8479 N 813.127 3.36538 4.72993 0
M  V30 8480 H 815.892 2.91781 0.684381 0
M  V30 8481 H 813.453 1.60307 0.226542 0
M  V30 8482 H 815.445 2.50172 3.18113 0
M  V30 8483 H 814.015 1.54621 2.71682 0
M  V30 8484 H 813.235 3.67325 1.43059 0
M  V30 8485 H 814.523 4.55144 2.27424 0
M  V30 8486 H 813.921 2.78828 4.92211 0
M  V30 8487 H 812.478 3.54148 5.47195 0
M  V30 8488 N 815.911 -0.310526 1.54511 0
M  V30 8489 C 817.188 -1.06593 1.64004 0
M  V30 8490 C 817.568 -2.05519 0.482216 0
M  V30 8491 O 816.916 -2.22455 -0.52212 0
M  V30 8492 C 817.126 -1.75627 3.01589 0
M  V30 8493 C 818.474 -2.28173 3.58081 0
M  V30 8494 O 819.498 -1.85674 3.03979 0
M  V30 8495 O 818.357 -3.06015 4.52788 0
M  V30 8496 H 815.451 -0.492109 0.664649 0
M  V30 8497 H 817.997 -0.309374 1.66856 0
M  V30 8498 H 816.769 -1.03743 3.77297 0
M  V30 8499 H 816.392 -2.58061 3.02473 0
M  V30 8500 N 817.389 -1.46805 -0.573248 0
M  V30 8501 C 818.321 -1.54127 -1.6964 0
M  V30 8502 C 819.334 -0.428778 -1.57052 0
M  V30 8503 O 820.523 -0.697612 -1.64303 0
M  V30 8504 C 817.623 -1.41438 -3.07975 0
M  V30 8505 C 816.796 -2.66974 -3.46474 0
M  V30 8506 C 815.855 -2.48349 -4.63906 0
M  V30 8507 O 814.881 -3.22109 -4.69292 0
M  V30 8508 N 816.083 -1.55129 -5.59388 0
M  V30 8509 H 818.848 -2.50971 -1.6381 0
M  V30 8510 H 816.409 -1.42981 -0.759479 0
M  V30 8511 H 818.401 -1.26737 -3.84343 0
M  V30 8512 H 816.971 -0.527388 -3.08119 0
M  V30 8513 H 816.191 -2.9655 -2.59715 0
M  V30 8514 H 817.479 -3.50347 -3.68964 0
M  V30 8515 H 816.877 -0.94324 -5.57781 0
M  V30 8516 H 815.434 -1.46387 -6.35149 0
M  V30 8517 N 818.867 0.818669 -1.34668 0
M  V30 8518 C 819.797 1.94468 -1.29245 0
M  V30 8519 C 820.778 1.69257 -0.169101 0
M  V30 8520 O 821.963 1.90794 -0.362143 0
M  V30 8521 C 819.093 3.31001 -1.05145 0
M  V30 8522 C 818.047 3.70663 -2.13992 0
M  V30 8523 C 817.373 5.05226 -1.75074 0
M  V30 8524 C 818.673 3.82312 -3.55858 0
M  V30 8525 H 820.367 1.99263 -2.2346 0
M  V30 8526 H 817.913 0.957304 -1.07572 0
M  V30 8527 H 819.866 4.09364 -0.999949 0
M  V30 8528 H 818.59 3.26517 -0.0737312 0
M  V30 8529 H 817.249 2.94578 -2.18219 0
M  V30 8530 H 816.897 4.97233 -0.759518 0
M  V30 8531 H 816.597 5.32734 -2.47928 0
M  V30 8532 H 818.121 5.86042 -1.71427 0
M  V30 8533 H 819.535 4.50935 -3.5402 0
M  V30 8534 H 817.932 4.21278 -4.2737 0
M  V30 8535 H 819.002 2.84193 -3.9289 0
M  V30 8536 N 820.346 1.18468 1.03938 0
M  V30 8537 C 821.279 0.856251 2.11527 0
M  V30 8538 C 822.257 -0.182323 1.61575 0
M  V30 8539 O 823.441 -0.061 1.88401 0
M  V30 8540 C 820.568 0.279562 3.37544 0
M  V30 8541 C 819.614 1.29552 4.06348 0
M  V30 8542 S 820.447 2.85191 4.5324 0
M  V30 8543 C 821.603 2.29037 5.82489 0
M  V30 8544 H 821.836 1.76742 2.39059 0
M  V30 8545 H 819.369 1.01068 1.16725 0
M  V30 8546 H 821.327 -0.0466579 4.10473 0
M  V30 8547 H 819.988 -0.60975 3.08125 0
M  V30 8548 H 819.181 0.840922 4.96935 0
M  V30 8549 H 818.783 1.56804 3.39541 0
M  V30 8550 H 821.075 1.67376 6.565 0
M  V30 8551 H 822.018 3.17929 6.32714 0
M  V30 8552 H 822.426 1.72009 5.37655 0
M  V30 8553 N 821.824 -1.22873 0.986916 0
M  V30 8554 C 822.772 -2.26597 0.525043 0
M  V30 8555 C 823.766 -1.64079 -0.421252 0
M  V30 8556 O 824.972 -1.77576 -0.294429 0
M  V30 8557 H 821.347 -0.736606 0.151381 0
M  V30 8558 H 823.318 -2.62909 1.41142 0
M  V30 8559 C 822.067 -3.47374 -0.150542 0
M  V30 8560 H 821.39 -3.95737 0.568541 0
M  V30 8561 H 822.83 -4.21739 -0.437256 0
M  V30 8562 C 821.289 -3.07163 -1.38392 0
M  V30 8563 O 821.819 -3.16028 -2.47971 0
M  V30 8564 N 820.025 -2.62009 -1.25697 0
M  V30 8565 H 819.572 -2.54996 -0.365355 0
M  V30 8566 H 819.53 -2.35472 -2.08327 0
M  V30 8567 N 823.302 -0.75937 -1.38099 0
M  V30 8568 C 824.212 -0.13774 -2.34195 0
M  V30 8569 C 825.228 0.693985 -1.59561 0
M  V30 8570 O 826.404 0.616792 -1.91723 0
M  V30 8571 C 823.469 0.740535 -3.38699 0
M  V30 8572 C 822.53 -0.106225 -4.29169 0
M  V30 8573 C 821.763 0.730225 -5.28681 0
M  V30 8574 O 821.986 1.96796 -5.35376 0
M  V30 8575 O 820.92 0.145969 -6.01723 0
M  V30 8576 H 824.746 -0.931512 -2.89061 0
M  V30 8577 H 822.331 -0.520345 -1.40046 0
M  V30 8578 H 824.213 1.24232 -4.02672 0
M  V30 8579 H 822.888 1.51271 -2.8618 0
M  V30 8580 H 821.795 -0.654088 -3.68337 0
M  V30 8581 H 823.128 -0.841186 -4.84959 0
M  V30 8582 N 824.78 1.49157 -0.508906 0
M  V30 8583 C 825.69 2.33045 0.269656 0
M  V30 8584 C 826.706 1.45143 0.959662 0
M  V30 8585 O 827.882 1.78155 0.939295 0
M  V30 8586 C 824.947 3.20772 1.31554 0
M  V30 8587 C 824.008 4.24531 0.638131 0
M  V30 8588 C 823.241 5.08065 1.63418 0
M  V30 8589 O 823.464 4.93238 2.86483 0
M  V30 8590 O 822.398 5.90117 1.18516 0
M  V30 8591 H 826.224 3.00821 -0.417183 0
M  V30 8592 H 823.809 1.46938 -0.270119 0
M  V30 8593 H 825.691 3.75095 1.92047 0
M  V30 8594 H 824.366 2.55681 1.98516 0
M  V30 8595 H 823.273 3.74099 -0.00674357 0
M  V30 8596 H 824.606 4.92199 0.0108155 0
M  V30 8597 N 826.258 0.243083 1.55714 0
M  V30 8598 C 827.188 -0.652336 2.24203 0
M  V30 8599 C 828.169 -1.1843 1.221 0
M  V30 8600 O 829.354 -1.22435 1.50743 0
M  V30 8601 C 826.484 -1.85111 2.93856 0
M  V30 8602 C 825.438 -1.45208 4.02615 0
M  V30 8603 C 824.764 -2.73137 4.59674 0
M  V30 8604 C 826.064 -0.625988 5.18535 0
M  V30 8605 H 827.758 -0.0812504 2.9929 0
M  V30 8606 H 825.304 -0.0376388 1.43951 0
M  V30 8607 H 827.257 -2.48314 3.40468 0
M  V30 8608 H 825.981 -2.44751 2.16251 0
M  V30 8609 H 824.64 -0.843406 3.56766 0
M  V30 8610 H 824.288 -3.30967 3.78774 0
M  V30 8611 H 823.988 -2.47163 5.33089 0
M  V30 8612 H 825.512 -3.37245 5.09017 0
M  V30 8613 H 826.926 -1.16223 5.61396 0
M  V30 8614 H 825.323 -0.462465 5.98315 0
M  V30 8615 H 826.393 0.362652 4.83542 0
M  V30 8616 N 827.736 -1.57571 -0.0300757 0
M  V30 8617 C 828.964 -1.93485 -0.732891 0
M  V30 8618 C 829.379 -0.842758 -1.68947 0
M  V30 8619 O 828.736 0.180904 -1.81601 0
M  V30 8620 C 828.787 -3.29328 -1.49082 0
M  V30 8621 O 828.508 -4.34341 -0.572639 0
M  V30 8622 C 830.009 -3.79517 -2.29088 0
M  V30 8623 H 827.229 -0.638588 -0.206026 0
M  V30 8624 H 829.773 -2.04496 0.0120966 0
M  V30 8625 H 827.928 -3.19716 -2.1877 0
M  V30 8626 H 828.342 -5.12748 -1.10406 0
M  V30 8627 H 829.816 -4.77081 -2.77665 0
M  V30 8628 H 830.293 -3.10659 -3.10464 0
M  V30 8629 H 830.899 -3.92208 -1.64477 0
M  V30 8630 N 829.214 0.302327 -1.54673 0
M  V30 8631 C 830.124 1.39542 -1.88587 0
M  V30 8632 C 831.14 1.55543 -0.779895 0
M  V30 8633 O 832.316 1.70233 -1.07623 0
M  V30 8634 C 829.381 2.7394 -2.12504 0
M  V30 8635 C 828.442 2.66935 -3.3622 0
M  V30 8636 C 827.675 3.94923 -3.58987 0
M  V30 8637 O 827.898 4.94218 -2.84789 0
M  V30 8638 O 826.832 3.96896 -4.52501 0
M  V30 8639 H 830.658 1.13784 -2.81579 0
M  V30 8640 H 828.243 0.49827 -1.40846 0
M  V30 8641 H 830.125 3.5346 -2.29443 0
M  V30 8642 H 828.8 2.99544 -1.22698 0
M  V30 8643 H 827.707 1.85892 -3.24646 0
M  V30 8644 H 829.04 2.46283 -4.26152 0
M  V30 8645 N 830.692 1.47107 0.565454 0
M  V30 8646 C 832.108 1.32443 0.890566 0
M  V30 8647 C 832.308 0.308735 1.99121 0
M  V30 8648 O 831.364 -0.28265 2.50913 0
M  V30 8649 C 832.677 2.71548 1.2916 0
M  V30 8650 C 834.225 2.7977 1.40349 0
M  V30 8651 C 834.7 4.19497 1.83811 0
M  V30 8652 N 836.191 4.21998 1.90975 0
M  V30 8653 C 836.926 5.2702 2.25916 0
M  V30 8654 N 836.422 6.42353 2.59527 0
M  V30 8655 N 838.215 5.14393 2.26619 0
M  V30 8656 H 830.366 2.11786 -0.161328 0
M  V30 8657 H 832.629 0.947952 -0.00950631 0
M  V30 8658 H 832.335 3.47265 0.556753 0
M  V30 8659 H 832.209 3.02782 2.24951 0
M  V30 8660 H 834.596 2.0433 2.12916 0
M  V30 8661 H 834.677 2.522 0.427655 0
M  V30 8662 H 834.321 4.95439 1.11816 0
M  V30 8663 H 834.251 4.44486 2.82382 0
M  V30 8664 H 836.742 3.38791 1.6742 0
M  V30 8665 H 837.055 7.18252 2.85191 0
M  V30 8666 H 835.4 6.45687 2.57126 0
M  V30 8667 H 838.591 4.2332 1.99794 0
M  V30 8668 H 838.764 5.96349 2.5352 0
M  V30 8669 N 832.17 -0.811516 1.35101 0
M  V30 8670 C 833.1 -1.9378 1.30275 0
M  V30 8671 C 834.081 -1.69165 0.178075 0
M  V30 8672 O 835.266 -1.90599 0.372256 0
M  V30 8673 C 832.396 -3.30439 1.06899 0
M  V30 8674 C 831.35 -3.69523 2.15955 0
M  V30 8675 C 830.676 -5.0429 1.77751 0
M  V30 8676 C 831.976 -3.80419 3.57881 0
M  V30 8677 H 833.67 -1.98075 2.24514 0
M  V30 8678 H 831.216 -0.951586 1.08078 0
M  V30 8679 H 833.169 -4.08828 1.02164 0
M  V30 8680 H 831.893 -3.26473 0.0910462 0
M  V30 8681 H 830.552 -2.93416 2.19778 0
M  V30 8682 H 830.2 -4.96823 0.785876 0
M  V30 8683 H 829.9 -5.31411 2.5075 0
M  V30 8684 H 831.424 -5.85125 1.74533 0
M  V30 8685 H 832.838 -4.49051 3.56407 0
M  V30 8686 H 831.235 -4.19005 4.29598 0
M  V30 8687 H 832.305 -2.82105 3.94391 0
M  V30 8688 N 833.648 -1.19017 -1.03309 0
M  V30 8689 C 834.895 -0.990214 -1.76638 0
M  V30 8690 C 835.223 0.479435 -1.88498 0
M  V30 8691 O 834.478 1.37223 -1.39529 0
M  V30 8692 C 834.777 -1.59927 -3.19622 0
M  V30 8693 C 834.443 -3.09632 -3.27779 0
M  V30 8694 C 833.105 -3.50491 -3.29712 0
M  V30 8695 C 835.457 -4.05644 -3.27264 0
M  V30 8696 C 832.785 -4.85921 -3.28782 0
M  V30 8697 C 835.137 -5.41 -3.27875 0
M  V30 8698 C 833.801 -5.81295 -3.28104 0
M  V30 8699 H 833.071 -0.362345 -0.646364 0
M  V30 8700 H 835.718 -1.48197 -1.21284 0
M  V30 8701 H 834.023 -1.0297 -3.78027 0
M  V30 8702 H 835.72 -1.41989 -3.7502 0
M  V30 8703 H 832.31 -2.77073 -3.26999 0
M  V30 8704 H 836.494 -3.75124 -3.24955 0
M  V30 8705 H 831.75 -5.16427 -3.27281 0
M  V30 8706 H 835.924 -6.15157 -3.26428 0
M  V30 8707 H 833.551 -6.86211 -3.27138 0
M  V30 8708 N 835.127 1.22348 -0.993418 0
M  V30 8709 C 836.373 1.91393 -0.67056 0
M  V30 8710 C 836.706 1.77163 0.795428 0
M  V30 8711 O 835.981 1.14084 1.57528 0
M  V30 8712 C 836.264 3.43589 -1.0779 0
M  V30 8713 C 836.117 3.66867 -2.60248 0
M  V30 8714 C 837.436 4.35545 -0.631527 0
M  V30 8715 H 834.555 0.695057 -0.24508 0
M  V30 8716 H 837.197 1.44213 -1.23703 0
M  V30 8717 H 835.347 3.83903 -0.595902 0
M  V30 8718 H 837.019 3.35954 -3.16121 0
M  V30 8719 H 835.262 3.1113 -3.02293 0
M  V30 8720 H 835.933 4.73457 -2.838 0
M  V30 8721 H 838.409 4.0275 -1.04554 0
M  V30 8722 H 837.285 5.40707 -0.944831 0
M  V30 8723 H 837.546 4.39618 0.467779 0
M  V30 8724 N 836.605 0.766683 1.37694 0
M  V30 8725 C 837.535 0.163432 2.32927 0
M  V30 8726 C 838.516 -0.688861 1.55527 0
M  V30 8727 O 839.701 -0.627363 1.83787 0
M  V30 8728 C 836.831 -0.720416 3.39746 0
M  V30 8729 C 835.785 0.0301718 4.27989 0
M  V30 8730 C 835.111 -0.972788 5.25776 0
M  V30 8731 C 836.411 1.20623 5.0818 0
M  V30 8732 H 838.105 0.958988 2.83626 0
M  V30 8733 H 835.651 0.462601 1.36367 0
M  V30 8734 H 837.604 -1.15221 4.05342 0
M  V30 8735 H 836.328 -1.54844 2.8756 0
M  V30 8736 H 834.987 0.442685 3.63917 0
M  V30 8737 H 834.635 -1.79522 4.69873 0
M  V30 8738 H 834.335 -0.475145 5.85676 0
M  V30 8739 H 835.859 -1.40362 5.94248 0
M  V30 8740 H 837.273 0.851341 5.66944 0
M  V30 8741 H 835.67 1.63561 5.7738 0
M  V30 8742 H 836.74 2.01281 4.41151 0
M  V30 8743 N 838.083 -1.48885 0.516809 0
M  V30 8744 C 839.308 -2.0739 -0.0205201 0
M  V30 8745 C 839.733 -1.37259 -1.28614 0
M  V30 8746 O 839.091 -0.434304 -1.76021 0
M  V30 8747 C 839.139 -3.59793 -0.24104 0
M  V30 8748 O 838.243 -3.90957 -1.31251 0
M  V30 8749 H 837.584 -0.663167 0.0332564 0
M  V30 8750 H 840.114 -1.91477 0.720956 0
M  V30 8751 H 840.124 -4.0531 -0.467737 0
M  V30 8752 H 838.799 -4.10244 0.68356 0
M  V30 8753 H 837.376 -3.57234 -1.06951 0
M  V30 8754 N 839.561 -0.251338 -1.55583 0
M  V30 8755 C 840.509 0.662534 -2.22965 0
M  V30 8756 C 841.503 1.17662 -1.21869 0
M  V30 8757 O 842.709 1.133 -1.39868 0
M  V30 8758 H 839.084 0.232151 -0.715269 0
M  V30 8759 H 841.055 0.0711252 -2.98315 0
M  V30 8760 C 839.804 1.84646 -2.94621 0
M  V30 8761 H 839.127 1.46003 -3.72187 0
M  V30 8762 H 840.567 2.46303 -3.45124 0
M  V30 8763 C 839.026 2.72034 -1.98744 0
M  V30 8764 O 839.556 3.71695 -1.52335 0
M  V30 8765 N 837.762 2.38695 -1.6575 0
M  V30 8766 H 837.309 1.57702 -2.03685 0
M  V30 8767 H 837.267 2.9744 -1.01867 0
M  V30 8768 N 841.039 1.57585 0.0217189 0
M  V30 8769 C 842.264 1.94267 0.726309 0
M  V30 8770 C 842.689 0.851904 1.67703 0
M  V30 8771 O 842.047 -0.191792 1.80283 0
M  V30 8772 C 842.095 3.30023 1.45318 0
M  V30 8773 O 841.199 3.22791 2.5667 0
M  V30 8774 H 840.54 0.634777 0.194818 0
M  V30 8775 H 843.07 2.04585 -0.0249985 0
M  V30 8776 H 843.08 3.65084 1.82147 0
M  V30 8777 H 841.755 4.08972 0.755962 0
M  V30 8778 H 840.332 2.99373 2.2233 0
M  V30 8779 N 842.517 -0.29412 1.54831 0
M  V30 8780 C 843.742 -1.05156 1.78765 0
M  V30 8781 C 844.167 -1.79916 0.548809 0
M  V30 8782 O 843.525 -1.74243 -0.500909 0
M  V30 8783 C 843.573 -2.00242 2.99893 0
M  V30 8784 O 842.677 -3.08662 2.73499 0
M  V30 8785 H 842.018 -0.301737 0.591482 0
M  V30 8786 H 844.548 -0.329449 2.0193 0
M  V30 8787 H 844.558 -2.42583 3.28051 0
M  V30 8788 H 843.233 -1.45235 3.89717 0
M  V30 8789 H 841.81 -2.70786 2.56377 0
M  V30 8790 N 843.995 -1.47404 -0.557645 0
M  V30 8791 C 845.223 -1.57622 -1.34026 0
M  V30 8792 C 845.638 -0.226256 -1.87439 0
M  V30 8793 O 844.995 0.78043 -1.64971 0
M  V30 8794 C 845.046 -2.60111 -2.51047 0
M  V30 8795 O 844.767 -3.89866 -1.99841 0
M  V30 8796 C 846.268 -2.80508 -3.43264 0
M  V30 8797 H 843.488 -0.532271 -0.40857 0
M  V30 8798 H 846.032 -1.93019 -0.675555 0
M  V30 8799 H 844.187 -2.27648 -3.13457 0
M  V30 8800 H 844.601 -4.45864 -2.76234 0
M  V30 8801 H 846.075 -3.56084 -4.21792 0
M  V30 8802 H 846.552 -1.88314 -3.9678 0
M  V30 8803 H 847.158 -3.14166 -2.86671 0
M  V30 8804 N 845.473 0.80434 -1.35529 0
M  V30 8805 C 846.403 1.93086 -1.31301 0
M  V30 8806 C 847.384 1.69068 -0.187044 0
M  V30 8807 O 848.569 1.90399 -0.382359 0
M  V30 8808 C 845.699 3.29867 -1.0865 0
M  V30 8809 C 844.653 3.68373 -2.17911 0
M  V30 8810 C 843.979 5.0334 -1.80423 0
M  V30 8811 C 845.279 3.78516 -3.59893 0
M  V30 8812 H 846.973 1.96882 -2.25561 0
M  V30 8813 H 844.519 0.945841 -1.08581 0
M  V30 8814 H 846.472 4.08281 -1.04331 0
M  V30 8815 H 845.196 3.2642 -0.108359 0
M  V30 8816 H 843.855 2.92247 -2.21331 0
M  V30 8817 H 843.503 4.96399 -0.812213 0
M  V30 8818 H 843.203 5.30074 -2.53565 0
M  V30 8819 H 844.727 5.84191 -1.77633 0
M  V30 8820 H 846.141 4.47155 -3.58783 0
M  V30 8821 H 844.538 4.16721 -4.31814 0
M  V30 8822 H 845.608 2.8001 -3.95882 0
M  V30 8823 N 846.951 1.19563 1.02676 0
M  V30 8824 C 848.228 0.908857 1.73203 0
M  V30 8825 C 848.608 -0.584928 2.02834 0
M  V30 8826 O 847.956 -1.54372 1.68469 0
M  V30 8827 C 848.166 1.77105 3.00724 0
M  V30 8828 C 849.514 2.00667 3.7419 0
M  V30 8829 O 850.538 1.74274 3.10656 0
M  V30 8830 O 849.397 2.4518 4.88415 0
M  V30 8831 H 846.491 0.338909 0.754367 0
M  V30 8832 H 849.037 1.30387 1.08616 0
M  V30 8833 H 847.809 2.78303 2.7507 0
M  V30 8834 H 847.432 1.37546 3.73051 0
M  V30 8835 N 848.429 -1.21819 0.999893 0
M  V30 8836 C 849.359 -2.26282 0.576096 0
M  V30 8837 C 850.34 -1.65317 -0.400537 0
M  V30 8838 O 851.525 -1.92028 -0.28964 0
M  V30 8839 C 848.655 -3.47147 -0.103145 0
M  V30 8840 C 847.609 -4.20594 0.792745 0
M  V30 8841 C 846.935 -5.34696 -0.0198026 0
M  V30 8842 C 848.235 -4.78533 2.09293 0
M  V30 8843 H 849.929 -2.61984 1.4493 0
M  V30 8844 H 847.475 -1.25935 0.698316 0
M  V30 8845 H 849.428 -4.1939 -0.411068 0
M  V30 8846 H 848.152 -3.1056 -1.01094 0
M  V30 8847 H 846.811 -3.50194 1.08442 0
M  V30 8848 H 846.459 -4.94352 -0.928729 0
M  V30 8849 H 846.159 -5.84764 0.576661 0
M  V30 8850 H 847.683 -6.09752 -0.321659 0
M  V30 8851 H 849.097 -5.42682 1.8485 0
M  V30 8852 H 847.494 -5.38968 2.63881 0
M  V30 8853 H 848.564 -3.98197 2.76708 0
M  V30 8854 N 849.908 -0.773975 -1.37286 0
M  V30 8855 C 850.871 -0.167974 -2.28584 0
M  V30 8856 C 851.871 0.625662 -1.48129 0
M  V30 8857 O 853.061 0.448924 -1.68316 0
M  V30 8858 C 850.193 0.769364 -3.32105 0
M  V30 8859 H 851.386 -0.972806 -2.83684 0
M  V30 8860 H 848.939 -0.542335 -1.46589 0
M  V30 8861 H 849.674 1.59912 -2.82132 0
M  V30 8862 H 849.459 0.202419 -3.91577 0
M  V30 8863 H 850.949 1.18872 -4.00324 0
M  V30 8864 N 851.386 1.48609 -0.524698 0
M  V30 8865 C 852.611 2.07398 0.00952139 0
M  V30 8866 C 853.036 1.37939 1.27884 0
M  V30 8867 O 852.394 0.443633 1.75788 0
M  V30 8868 C 852.442 3.59916 0.221956 0
M  V30 8869 O 851.546 3.91647 1.29175 0
M  V30 8870 H 850.887 0.662981 -0.0367729 0
M  V30 8871 H 853.417 1.91092 -0.7311 0
M  V30 8872 H 853.427 4.05552 0.446236 0
M  V30 8873 H 852.102 4.09876 -0.705306 0
M  V30 8874 H 850.679 3.57796 1.05055 0
M  V30 8875 N 852.864 0.259585 1.55447 0
M  V30 8876 C 854.113 -0.362163 1.98422 0
M  V30 8877 C 854.426 -1.58135 1.1512 0
M  V30 8878 O 855.632 -2.27506 1.48166 0
M  V30 8879 C 854.088 -0.695722 3.53111 0
M  V30 8880 C 853.696 0.502784 4.4517 0
M  V30 8881 C 855.44 -1.28096 4.04712 0
M  V30 8882 C 853.347 0.144674 5.91223 0
M  V30 8883 H 852.277 -0.139092 0.74106 0
M  V30 8884 H 854.928 0.361798 1.79898 0
M  V30 8885 H 853.31 -1.47816 3.67378 0
M  V30 8886 H 854.484 1.27994 4.42667 0
M  V30 8887 H 852.799 1.0038 4.0412 0
M  V30 8888 H 855.396 -1.56243 5.11363 0
M  V30 8889 H 855.739 -2.20969 3.52815 0
M  V30 8890 H 856.272 -0.561146 3.93822 0
M  V30 8891 H 853.011 1.04087 6.47183 0
M  V30 8892 H 852.531 -0.596023 5.96831 0
M  V30 8893 H 854.21 -0.268651 6.46442 0
M  V30 8894 N 854.342 -1.57594 -0.0133615 0
M  V30 8895 C 855.29 -2.08682 -1.02736 0
M  V30 8896 C 856.284 -1.00391 -1.36448 0
M  V30 8897 O 857.49 -1.18868 -1.35168 0
M  V30 8898 H 853.865 -0.666158 -0.34891 0
M  V30 8899 H 855.836 -2.9289 -0.570815 0
M  V30 8900 C 854.585 -2.5945 -2.31476 0
M  V30 8901 H 853.908 -3.42401 -2.06401 0
M  V30 8902 H 855.348 -2.98888 -3.00735 0
M  V30 8903 C 853.807 -1.50266 -3.01533 0
M  V30 8904 O 854.337 -0.877875 -3.9199 0
M  V30 8905 N 852.543 -1.23336 -2.63129 0
M  V30 8906 H 852.09 -1.74327 -1.89652 0
M  V30 8907 H 852.048 -0.504987 -3.10318 0
M  V30 8908 N 855.82 0.285905 -1.54985 0
M  V30 8909 C 856.75 1.35752 -1.89983 0
M  V30 8910 C 857.731 1.52163 -0.760295 0
M  V30 8911 O 858.916 1.65421 -1.01733 0
M  V30 8912 C 856.046 2.71925 -2.16042 0
M  V30 8913 C 855 2.70261 -3.31878 0
M  V30 8914 C 854.326 4.09864 -3.43388 0
M  V30 8915 C 855.626 2.30667 -4.68604 0
M  V30 8916 H 857.32 1.06709 -2.79738 0
M  V30 8917 H 854.866 0.511884 -1.34595 0
M  V30 8918 H 856.819 3.46992 -2.39113 0
M  V30 8919 H 855.543 3.02523 -1.23074 0
M  V30 8920 H 854.202 1.97651 -3.08755 0
M  V30 8921 H 853.85 4.37664 -2.47909 0
M  V30 8922 H 853.55 4.09648 -4.21262 0
M  V30 8923 H 855.074 4.86689 -3.68736 0
M  V30 8924 H 856.488 2.95453 -4.91305 0
M  V30 8925 H 854.885 2.41637 -5.49301 0
M  V30 8926 H 855.955 1.25793 -4.68299 0
M  V30 8927 N 857.298 1.47698 0.54982 0
M  V30 8928 C 858.23 1.56806 1.67166 0
M  V30 8929 C 859.243 0.453709 1.5635 0
M  V30 8930 O 860.432 0.723663 1.63173 0
M  V30 8931 C 857.532 1.4632 3.05686 0
M  V30 8932 C 856.705 2.72452 3.42182 0
M  V30 8933 C 855.764 2.55698 4.59897 0
M  V30 8934 O 854.79 3.29534 4.64108 0
M  V30 8935 N 855.992 1.64009 5.56849 0
M  V30 8936 H 858.757 2.53545 1.59797 0
M  V30 8937 H 856.318 1.44171 0.736635 0
M  V30 8938 H 858.31 1.32835 3.82279 0
M  V30 8939 H 856.88 0.57634 3.07241 0
M  V30 8940 H 856.1 3.00644 2.54964 0
M  V30 8941 H 857.388 3.56172 3.63344 0
M  V30 8942 H 856.786 1.03186 5.5621 0
M  V30 8943 H 855.343 1.56473 6.3274 0
M  V30 8944 N 858.776 -0.797141 1.35954 0
M  V30 8945 C 860.192 -1.09408 1.16198 0
M  V30 8946 C 860.392 -2.01491 -0.0191682 0
M  V30 8947 O 859.448 -2.42977 -0.686902 0
M  V30 8948 C 860.761 -1.71597 2.46931 0
M  V30 8949 C 862.309 -1.83974 2.53224 0
M  V30 8950 C 862.784 -2.49579 3.84024 0
M  V30 8951 N 864.275 -2.57055 3.85327 0
M  V30 8952 C 865.01 -3.08608 4.83268 0
M  V30 8953 N 864.506 -3.60527 5.91601 0
M  V30 8954 N 866.299 -3.07249 4.70696 0
M  V30 8955 H 858.45 -0.185209 2.11591 0
M  V30 8956 H 860.713 -0.144768 0.936881 0
M  V30 8957 H 860.419 -1.11404 3.3359 0
M  V30 8958 H 860.293 -2.71193 2.62172 0
M  V30 8959 H 862.68 -2.43308 1.66988 0
M  V30 8960 H 862.761 -0.83207 2.41889 0
M  V30 8961 H 862.405 -1.90892 4.70662 0
M  V30 8962 H 862.335 -3.50902 3.92651 0
M  V30 8963 H 864.826 -2.20283 3.07057 0
M  V30 8964 H 865.139 -3.98192 6.62317 0
M  V30 8965 H 863.484 -3.587 5.95281 0
M  V30 8966 H 866.675 -2.65972 3.85197 0
M  V30 8967 H 866.848 -3.47119 5.47186 0
M  V30 8968 N 860.254 -1.20106 -1.0204 0
M  V30 8969 C 861.502 -1.0069 -1.75231 0
M  V30 8970 C 861.823 0.462491 -1.89436 0
M  V30 8971 O 861.093 1.33455 -1.4341 0
M  V30 8972 H 859.673 -0.369576 -0.649171 0
M  V30 8973 H 862.335 -1.51149 -1.23044 0
M  V30 8974 H 861.431 -1.46205 -2.75736 0
M  V30 8975 N 861.732 1.21287 -1.00634 0
M  V30 8976 C 863.148 1.42467 -0.719389 0
M  V30 8977 C 863.348 1.88767 0.704927 0
M  V30 8978 O 862.404 2.05004 1.47409 0
M  V30 8979 C 863.717 2.455 -1.73639 0
M  V30 8980 C 865.265 2.59281 -1.75335 0
M  V30 8981 C 865.74 3.65547 -2.75934 0
M  V30 8982 N 867.231 3.73019 -2.74611 0
M  V30 8983 C 867.966 4.54873 -3.4911 0
M  V30 8984 N 867.462 5.40614 -4.33253 0
M  V30 8985 N 869.255 4.49309 -3.37754 0
M  V30 8986 H 861.406 0.895454 -1.92602 0
M  V30 8987 H 863.669 0.455491 -0.831404 0
M  V30 8988 H 863.375 2.18455 -2.75627 0
M  V30 8989 H 863.249 3.44325 -1.54014 0
M  V30 8990 H 865.636 2.85661 -0.740377 0
M  V30 8991 H 865.717 1.60685 -1.99032 0
M  V30 8992 H 865.361 3.39911 -3.77389 0
M  V30 8993 H 865.291 4.63741 -2.49503 0
M  V30 8994 H 867.782 3.11766 -2.13565 0
M  V30 8995 H 868.095 6.0013 -4.86892 0
M  V30 8996 H 866.44 5.40151 -4.37335 0
M  V30 8997 H 869.631 3.81357 -2.71449 0
M  V30 8998 H 869.804 5.12867 -3.9607 0
M  V30 8999 N 863.21 0.781244 1.36873 0
M  V30 9000 C 864.487 0.274217 1.93668 0
M  V30 9001 C 864.867 -1.2323 1.71399 0
M  V30 9002 O 864.215 -2.01993 1.06822 0
M  V30 9003 C 864.425 0.657939 3.42742 0
M  V30 9004 C 865.773 0.63307 4.19854 0
M  V30 9005 O 866.797 0.597909 3.51146 0
M  V30 9006 O 865.656 0.668636 5.42394 0
M  V30 9007 H 862.75 0.0658059 0.824378 0
M  V30 9008 H 865.296 0.863238 1.46104 0
M  V30 9009 H 864.068 1.69728 3.52573 0
M  V30 9010 H 863.691 0.0423678 3.97577 0
M  V30 9011 N 864.689 -1.48329 0.532571 0
M  V30 9012 C 865.639 -2.2664 -0.24868 0
M  V30 9013 C 866.623 -1.32861 -0.907563 0
M  V30 9014 O 867.815 -1.57382 -0.809942 0
M  V30 9015 C 864.944 -3.18004 -1.29339 0
M  V30 9016 C 864.03 -4.19256 -0.639166 0
M  V30 9017 N 864.421 -5.05043 0.276597 0
M  V30 9018 C 862.719 -4.36906 -0.896062 0
M  V30 9019 C 863.42 -5.78009 0.654261 0
M  V30 9020 N 862.396 -5.43598 0.0147447 0
M  V30 9021 H 866.198 -2.90344 0.455792 0
M  V30 9022 H 863.712 -1.58566 0.350778 0
M  V30 9023 H 865.709 -3.72767 -1.86682 0
M  V30 9024 H 864.369 -2.55855 -1.99921 0
M  V30 9025 H 865.38 -5.13813 0.649351 0
M  V30 9026 H 862.057 -3.85945 -1.59226 0
M  V30 9027 H 863.447 -6.57039 1.40532 0
M  V30 9028 N 866.167 -0.267825 -1.55308 0
M  V30 9029 C 867.415 0.350343 -1.9904 0
M  V30 9030 C 867.736 1.56924 -1.15758 0
M  V30 9031 O 867.006 1.94358 -0.245336 0
M  V30 9032 H 865.586 0.132435 -0.735167 0
M  V30 9033 H 868.248 -0.371471 -1.91327 0
M  V30 9034 H 867.344 0.645203 -3.05358 0
M  V30 9035 N 867.645 1.57599 0.00500368 0
M  V30 9036 C 868.575 2.11143 0.99705 0
M  V30 9037 C 869.556 1.0194 1.3617 0
M  V30 9038 O 870.741 1.29596 1.44632 0
M  V30 9039 C 867.871 2.61062 2.2905 0
M  V30 9040 C 866.825 3.74745 2.0676 0
M  V30 9041 C 866.151 4.10961 3.42075 0
M  V30 9042 C 867.451 5.02222 1.43424 0
M  V30 9043 H 869.145 2.94281 0.551251 0
M  V30 9044 H 866.691 1.41565 0.263715 0
M  V30 9045 H 868.644 2.97146 2.98801 0
M  V30 9046 H 867.368 1.75038 2.75734 0
M  V30 9047 H 866.027 3.39047 1.39436 0
M  V30 9048 H 865.675 3.21968 3.86453 0
M  V30 9049 H 865.375 4.87549 3.27979 0
M  V30 9050 H 866.899 4.49599 4.1315 0
M  V30 9051 H 868.313 5.36109 2.03125 0
M  V30 9052 H 866.71 5.83581 1.39831 0
M  V30 9053 H 867.78 4.83224 0.40285 0
M  V30 9054 N 869.123 -0.277682 1.55134 0
M  V30 9055 C 870.534 -0.849063 1.66276 0
M  V30 9056 C 870.885 -1.87223 0.5867 0
M  V30 9057 O 870.01 -2.14676 -0.272635 0
M  V30 9058 C 870.605 -1.54681 3.01429 0
M  V30 9059 C 869.164 -2.06628 3.14614 0
M  V30 9060 C 868.311 -0.906748 2.62056 0
M  V30 9061 H 871.262 -0.0541357 1.58608 0
M  V30 9062 H 871.283 -2.41356 2.94156 0
M  V30 9063 H 870.795 -0.80189 3.79725 0
M  V30 9064 H 868.896 -2.84095 2.41082 0
M  V30 9065 H 869.009 -2.2848 4.2111 0
M  V30 9066 H 867.373 -1.29882 2.19095 0
M  V30 9067 H 868.156 -0.175414 3.42852 0
M  V30 9068 N 870.601 -1.47988 -0.541979 0
M  V30 9069 C 871.849 -1.55086 -1.29587 0
M  V30 9070 C 872.17 -0.221304 -1.9374 0
M  V30 9071 O 871.44 0.756128 -1.80719 0
M  V30 9072 H 870.02 -0.571307 -0.481266 0
M  V30 9073 H 872.682 -1.8438 -0.631675 0
M  V30 9074 H 871.778 -2.32556 -2.08144 0
M  V30 9075 N 872.079 0.78992 -1.36375 0
M  V30 9076 C 873.309 1.57644 -1.33536 0
M  V30 9077 C 873.717 1.89007 0.0855075 0
M  V30 9078 O 873.06 1.50547 1.05267 0
M  V30 9079 C 873.122 2.92424 -2.09113 0
M  V30 9080 C 872.786 2.83793 -3.58205 0
M  V30 9081 C 873.783 2.56072 -4.52464 0
M  V30 9082 C 871.468 3.02386 -4.01084 0
M  V30 9083 C 873.462 2.47044 -5.87578 0
M  V30 9084 C 871.149 2.9298 -5.36289 0
M  V30 9085 C 872.147 2.65347 -6.29349 0
M  V30 9086 O 871.835 2.55935 -7.62071 0
M  V30 9087 H 871.567 0.495639 -0.459694 0
M  V30 9088 H 874.121 0.988354 -1.80058 0
M  V30 9089 H 872.351 3.53282 -1.57254 0
M  V30 9090 H 874.04 3.53693 -1.99139 0
M  V30 9091 H 874.806 2.4141 -4.2065 0
M  V30 9092 H 870.685 3.229 -3.29023 0
M  V30 9093 H 874.229 2.25396 -6.60184 0
M  V30 9094 H 870.126 3.07204 -5.67711 0
M  V30 9095 H 870.894 2.7142 -7.72187 0
M  V30 9096 N 873.557 1.20646 1.01402 0
M  V30 9097 C 874.505 0.954493 2.12114 0
M  V30 9098 C 875.499 -0.0950737 1.69133 0
M  V30 9099 O 876.705 0.0555153 1.79914 0
M  V30 9100 H 873.08 0.29135 0.693267 0
M  V30 9101 H 875.051 1.89447 2.30548 0
M  V30 9102 C 873.8 0.525944 3.43699 0
M  V30 9103 H 873.123 1.32516 3.772 0
M  V30 9104 H 874.563 0.388883 4.22213 0
M  V30 9105 C 873.022 -0.761997 3.28169 0
M  V30 9106 O 873.552 -1.81979 3.58115 0
M  V30 9107 N 871.758 -0.725017 2.8141 0
M  V30 9108 H 871.305 0.13607 2.5724 0
M  V30 9109 H 871.263 -1.5871 2.71401 0
M  V30 9110 N 875.035 -1.20752 1.01276 0
M  V30 9111 C 875.945 -2.27079 0.589277 0
M  V30 9112 C 876.961 -1.6999 -0.371389 0
M  V30 9113 O 878.137 -2.00044 -0.233294 0
M  V30 9114 C 875.202 -3.4663 -0.0696715 0
M  V30 9115 C 874.263 -4.18962 0.936454 0
M  V30 9116 C 873.496 -5.32806 0.308856 0
M  V30 9117 O 873.719 -5.63376 -0.8924 0
M  V30 9118 O 872.653 -5.93131 1.02367 0
M  V30 9119 H 876.479 -2.6551 1.47438 0
M  V30 9120 H 874.064 -1.27297 0.782045 0
M  V30 9121 H 875.946 -4.19119 -0.437873 0
M  V30 9122 H 874.621 -3.10082 -0.929029 0
M  V30 9123 H 873.528 -3.48661 1.35595 0
M  V30 9124 H 874.861 -4.59441 1.76565 0
M  V30 9125 N 876.513 -0.788492 -1.36457 0
M  V30 9126 C 877.759 -0.370067 -2.00005 0
M  V30 9127 C 878.114 1.0464 -1.61456 0
M  V30 9128 O 877.407 1.71277 -0.85876 0
M  V30 9129 C 877.601 -0.470255 -3.54293 0
M  V30 9130 C 877.43 -1.89492 -4.07827 0
M  V30 9131 C 876.2 -2.51932 -4.38016 0
M  V30 9132 C 878.398 -2.85692 -4.2765 0
M  V30 9133 N 876.38 -3.85997 -4.77368 0
M  V30 9134 C 877.751 -4.04588 -4.69796 0
M  V30 9135 C 879.806 -2.8276 -4.09818 0
M  V30 9136 C 878.509 -5.2096 -4.95977 0
M  V30 9137 C 880.535 -3.98319 -4.37145 0
M  V30 9138 C 879.897 -5.1596 -4.79547 0
M  V30 9139 H 875.996 -0.182813 -0.760331 0
M  V30 9140 H 878.58 -1.02589 -1.6548 0
M  V30 9141 H 876.751 0.155476 -3.88089 0
M  V30 9142 H 878.483 -0.0281643 -4.0469 0
M  V30 9143 H 875.238 -2.0342 -4.27688 0
M  V30 9144 H 875.662 -4.54971 -5.01329 0
M  V30 9145 H 880.304 -1.92971 -3.76194 0
M  V30 9146 H 878.022 -6.11335 -5.28483 0
M  V30 9147 H 881.608 -3.97411 -4.24919 0
M  V30 9148 H 880.488 -6.03893 -5.00283 0
M  V30 9149 N 877.991 1.48044 -0.54043 0
M  V30 9150 C 879.407 1.58354 -0.199006 0
M  V30 9151 C 879.607 1.54118 1.29807 0
M  V30 9152 O 878.663 1.43573 2.07709 0
M  V30 9153 C 879.976 2.89563 -0.810797 0
M  V30 9154 C 881.524 3.03113 -0.780486 0
M  V30 9155 C 881.999 4.36997 -1.37104 0
M  V30 9156 N 883.49 4.43591 -1.33347 0
M  V30 9157 C 884.225 5.45714 -1.76021 0
M  V30 9158 N 883.721 6.54738 -2.26473 0
M  V30 9159 N 885.514 5.36659 -1.67194 0
M  V30 9160 H 877.665 1.49041 -1.51329 0
M  V30 9161 H 879.928 0.708309 -0.630081 0
M  V30 9162 H 879.634 2.9835 -1.86227 0
M  V30 9163 H 879.508 3.76053 -0.293977 0
M  V30 9164 H 881.895 2.93932 0.262246 0
M  V30 9165 H 881.976 2.18207 -1.33489 0
M  V30 9166 H 881.62 4.46932 -2.41276 0
M  V30 9167 H 881.55 5.20607 -0.792229 0
M  V30 9168 H 884.041 3.65391 -0.964259 0
M  V30 9169 H 884.354 7.28814 -2.57002 0
M  V30 9170 H 882.699 6.55673 -2.30473 0
M  V30 9171 H 885.89 4.50382 -1.27569 0
M  V30 9172 H 886.063 6.16113 -2.00771 0
M  V30 9173 N 879.47 0.276058 1.55163 0
M  V30 9174 C 880.38 -0.621066 2.2623 0
M  V30 9175 C 881.396 -1.16931 1.28853 0
M  V30 9176 O 882.572 -1.1994 1.61791 0
M  V30 9177 C 879.637 -1.78824 2.97023 0
M  V30 9178 C 878.698 -1.27657 4.09881 0
M  V30 9179 C 877.931 -2.38812 4.77289 0
M  V30 9180 O 878.154 -3.58188 4.43912 0
M  V30 9181 O 877.088 -2.06915 5.65217 0
M  V30 9182 H 880.914 -0.0453346 3.03666 0
M  V30 9183 H 878.499 0.0434275 1.49337 0
M  V30 9184 H 880.381 -2.46877 3.41511 0
M  V30 9185 H 879.056 -2.35104 2.22503 0
M  V30 9186 H 877.963 -0.56248 3.69847 0
M  V30 9187 H 879.296 -0.759509 4.86305 0
M  V30 9188 N 880.948 -1.576 0.00335426 0
M  V30 9189 C 882.195 -1.90713 -0.680791 0
M  V30 9190 C 882.523 -0.877263 -1.73592 0
M  V30 9191 O 881.778 0.117497 -1.95347 0
M  V30 9192 C 882.077 -3.3058 -1.35837 0
M  V30 9193 C 881.743 -4.48786 -0.436111 0
M  V30 9194 C 880.405 -4.80855 -0.182195 0
M  V30 9195 C 882.757 -5.20821 0.198677 0
M  V30 9196 C 880.085 -5.8233 0.714747 0
M  V30 9197 C 882.437 -6.23252 1.08351 0
M  V30 9198 C 881.101 -6.53776 1.34658 0
M  V30 9199 H 880.371 -0.697869 -0.249119 0
M  V30 9200 H 883.018 -1.91407 0.0596011 0
M  V30 9201 H 881.323 -3.26026 -2.17289 0
M  V30 9202 H 883.02 -3.53462 -1.89383 0
M  V30 9203 H 879.61 -4.23731 -0.644186 0
M  V30 9204 H 883.794 -4.96298 0.0155259 0
M  V30 9205 H 879.05 -6.04339 0.926529 0
M  V30 9206 H 883.224 -6.78199 1.58172 0
M  V30 9207 H 880.851 -7.32225 2.04328 0
M  V30 9208 N 882.426 0.269451 -1.5528 0
M  V30 9209 C 883.666 1.00819 -1.77806 0
M  V30 9210 C 884.03 1.83369 -0.569198 0
M  V30 9211 O 885.231 2.60244 -0.672783 0
M  V30 9212 C 883.502 1.86447 -3.04913 0
M  V30 9213 S 885.061 2.66538 -3.48573 0
M  V30 9214 H 881.879 0.339508 -0.624704 0
M  V30 9215 H 884.481 0.278256 -1.9351 0
M  V30 9216 H 883.185 1.24733 -3.90986 0
M  V30 9217 H 882.716 2.63755 -2.91885 0
M  V30 9218 H 884.731 3.88938 -3.08126 0
M  V30 9219 N 883.904 1.48273 0.534124 0
M  V30 9220 C 885.152 1.55771 1.28762 0
M  V30 9221 C 885.473 0.231575 1.9362 0
M  V30 9222 O 884.743 -0.746533 1.81118 0
M  V30 9223 H 883.323 0.573851 0.47823 0
M  V30 9224 H 885.985 1.84712 0.621888 0
M  V30 9225 H 885.081 2.33657 2.06908 0
M  V30 9226 N 885.382 -0.782676 1.36792 0
M  V30 9227 C 886.312 -1.90973 1.34356 0
M  V30 9228 C 887.293 -1.6875 0.213917 0
M  V30 9229 O 888.478 -1.89766 0.412601 0
M  V30 9230 C 885.608 -3.28097 1.13884 0
M  V30 9231 C 884.562 -3.6486 2.23744 0
M  V30 9232 C 883.888 -5.00406 1.88408 0
M  V30 9233 C 885.188 -3.72742 3.6587 0
M  V30 9234 H 886.882 -1.93268 2.28665 0
M  V30 9235 H 884.428 -0.928447 1.10072 0
M  V30 9236 H 886.381 -4.06569 1.10813 0
M  V30 9237 H 885.105 -3.26206 0.160275 0
M  V30 9238 H 883.764 -2.88689 2.25952 0
M  V30 9239 H 883.412 -4.95044 0.891083 0
M  V30 9240 H 883.112 -5.25973 2.61966 0
M  V30 9241 H 884.636 -5.81291 1.86905 0
M  V30 9242 H 886.05 -4.4139 3.65852 0
M  V30 9243 H 884.447 -4.09798 4.38389 0
M  V30 9244 H 885.517 -2.73676 4.00287 0
M  V30 9245 N 886.86 -1.21182 -1.00761 0
M  V30 9246 C 888.271 -1.02652 -1.55947 0
M  V30 9247 C 888.622 0.414466 -1.91772 0
M  V30 9248 O 887.747 1.29727 -1.73204 0
M  V30 9249 C 888.342 -1.85713 -2.83366 0
M  V30 9250 C 886.901 -1.71523 -3.35048 0
M  V30 9251 C 886.048 -1.83087 -2.08265 0
M  V30 9252 H 888.999 -1.35242 -0.830379 0
M  V30 9253 H 889.02 -1.36583 -3.55141 0
M  V30 9254 H 888.532 -2.90584 -2.5726 0
M  V30 9255 H 886.633 -0.693257 -3.66094 0
M  V30 9256 H 886.746 -2.53333 -4.06644 0
M  V30 9257 H 885.11 -1.26367 -2.21141 0
M  V30 9258 H 885.893 -2.8946 -1.84575 0
M  V30 9259 N 888.338 1.20213 -1.01915 0
M  V30 9260 C 889.754 1.41696 -0.734459 0
M  V30 9261 C 889.954 1.89504 0.684867 0
M  V30 9262 O 889.01 2.06556 1.45227 0
M  V30 9263 C 890.323 2.43644 -1.76233 0
M  V30 9264 C 891.871 2.57406 -1.78076 0
M  V30 9265 C 892.346 3.626 -2.79796 0
M  V30 9266 N 893.837 3.70086 -2.78551 0
M  V30 9267 C 894.572 4.51145 -3.53915 0
M  V30 9268 N 894.068 5.35988 -4.38963 0
M  V30 9269 N 895.861 4.45702 -3.425 0
M  V30 9270 H 888.012 0.874976 -1.93541 0
M  V30 9271 H 890.275 0.446647 -0.836188 0
M  V30 9272 H 889.981 2.15519 -2.77929 0
M  V30 9273 H 889.855 3.42672 -1.57657 0
M  V30 9274 H 892.242 2.8486 -0.770634 0
M  V30 9275 H 892.323 1.58565 -2.00725 0
M  V30 9276 H 891.967 3.35889 -3.80973 0
M  V30 9277 H 891.897 4.61069 -2.54407 0
M  V30 9278 H 894.388 3.09484 -2.1686 0
M  V30 9279 H 894.701 5.94932 -4.9323 0
M  V30 9280 H 893.046 5.35482 -4.4304 0
M  V30 9281 H 896.237 3.78456 -2.75478 0
M  V30 9282 H 896.41 5.08637 -4.01487 0
M  V30 9283 N 889.816 0.795718 1.36037 0
M  V30 9284 C 890.746 0.212803 2.32528 0
M  V30 9285 C 891.727 -0.655716 1.56953 0
M  V30 9286 O 892.912 -0.588238 1.85077 0
M  V30 9287 C 890.042 -0.648189 3.41198 0
M  V30 9288 C 888.996 0.120948 4.27829 0
M  V30 9289 C 888.322 -0.861044 5.27722 0
M  V30 9290 C 889.622 1.31375 5.05508 0
M  V30 9291 H 891.316 1.01893 2.81528 0
M  V30 9292 H 888.862 0.491422 1.35355 0
M  V30 9293 H 890.815 -1.06597 4.07695 0
M  V30 9294 H 889.539 -1.48709 2.9078 0
M  V30 9295 H 888.198 0.519777 3.62897 0
M  V30 9296 H 887.846 -1.69515 4.73575 0
M  V30 9297 H 887.546 -0.350808 5.86552 0
M  V30 9298 H 889.07 -1.27726 5.97092 0
M  V30 9299 H 890.484 0.971406 5.6501 0
M  V30 9300 H 888.881 1.75772 5.73781 0
M  V30 9301 H 889.951 2.10593 4.36782 0
M  V30 9302 N 891.294 -1.47756 0.548274 0
M  V30 9303 C 892.204 -2.33678 -0.207773 0
M  V30 9304 C 893.22 -1.47636 -0.920843 0
M  V30 9305 O 894.396 -1.80583 -0.89173 0
M  V30 9306 C 891.461 -3.24147 -1.23003 0
M  V30 9307 C 890.522 -4.26073 -0.52535 0
M  V30 9308 C 889.755 -5.12219 -1.4989 0
M  V30 9309 O 889.978 -5.0066 -2.73305 0
M  V30 9310 O 888.912 -5.93051 -1.02828 0
M  V30 9311 H 892.738 -2.99609 0.496794 0
M  V30 9312 H 890.323 -1.4617 0.308982 0
M  V30 9313 H 892.205 -3.80055 -1.82034 0
M  V30 9314 H 890.88 -2.60855 -1.91668 0
M  V30 9315 H 889.787 -3.7395 0.105927 0
M  V30 9316 H 891.12 -4.92054 0.119686 0
M  V30 9317 N 892.772 -0.284283 -1.55015 0
M  V30 9318 C 894 0.332948 -2.04203 0
M  V30 9319 C 894.415 1.48783 -1.16229 0
M  V30 9320 O 893.772 1.81567 -0.184323 0
M  V30 9321 C 893.823 0.805207 -3.52418 0
M  V30 9322 O 893.544 -0.303689 -4.37046 0
M  V30 9323 C 895.045 1.48931 -4.17534 0
M  V30 9324 H 892.265 0.0747447 -0.666824 0
M  V30 9325 H 894.809 -0.419048 -2.00161 0
M  V30 9326 H 892.964 1.50727 -3.56876 0
M  V30 9327 H 893.378 0.0609703 -5.24465 0
M  V30 9328 H 894.852 1.77108 -5.22816 0
M  V30 9329 H 895.329 2.42389 -3.66257 0
M  V30 9330 H 895.935 0.830867 -4.17105 0
M  V30 9331 N 894.251 1.57596 -0.0117121 0
M  V30 9332 C 895.662 1.79033 0.529521 0
M  V30 9333 C 896.013 0.920299 1.73277 0
M  V30 9334 O 895.138 0.125934 2.16033 0
M  V30 9335 C 895.733 3.24695 0.967405 0
M  V30 9336 C 894.292 3.47188 1.45387 0
M  V30 9337 C 893.439 2.74245 0.410466 0
M  V30 9338 H 896.39 1.56908 -0.237836 0
M  V30 9339 H 896.411 3.33451 1.83278 0
M  V30 9340 H 895.923 3.87992 0.0914605 0
M  V30 9341 H 894.024 2.89121 2.35032 0
M  V30 9342 H 894.137 4.55886 1.47325 0
M  V30 9343 H 892.501 2.39209 0.874721 0
M  V30 9344 H 893.284 3.40248 -0.456713 0
M  V30 9345 N 895.729 -0.261212 1.5542 0
M  V30 9346 C 896.692 -1.30645 1.8832 0
M  V30 9347 C 897.692 -1.41782 0.758588 0
M  V30 9348 O 898.882 -1.40729 1.02669 0
M  V30 9349 C 896.014 -2.6862 2.09895 0
M  V30 9350 H 897.207 -1.02698 2.81768 0
M  V30 9351 H 894.76 -0.499838 1.48092 0
M  V30 9352 H 895.495 -3.0173 1.18868 0
M  V30 9353 H 895.28 -2.61921 2.91787 0
M  V30 9354 H 896.77 -3.44121 2.36581 0
M  V30 9355 N 897.207 -1.48554 -0.526253 0
M  V30 9356 C 898.484 -1.47252 -1.28748 0
M  V30 9357 C 898.864 -0.186245 -2.10277 0
M  V30 9358 O 898.212 0.831954 -2.12816 0
M  V30 9359 C 898.422 -2.73672 -2.16575 0
M  V30 9360 C 899.77 -3.22151 -2.76593 0
M  V30 9361 O 900.794 -2.74614 -2.2686 0
M  V30 9362 O 899.653 -4.04877 -3.67066 0
M  V30 9363 H 896.747 -0.588242 -0.581292 0
M  V30 9364 H 899.293 -1.60792 -0.5426 0
M  V30 9365 H 898.065 -3.58798 -1.56139 0
M  V30 9366 H 897.688 -2.6287 -2.98304 0
M  V30 9367 N 898.685 0.775411 -1.37205 0
M  V30 9368 C 899.615 1.90258 -1.35367 0
M  V30 9369 C 900.596 1.68634 -0.222864 0
M  V30 9370 O 901.781 1.89545 -0.422659 0
M  V30 9371 C 898.911 3.27488 -1.15623 0
M  V30 9372 C 897.865 3.63668 -2.25676 0
M  V30 9373 C 897.191 4.994 -1.91059 0
M  V30 9374 C 898.491 3.70797 -3.67841 0
M  V30 9375 H 900.185 1.92053 -2.29687 0
M  V30 9376 H 897.731 0.922597 -1.10563 0
M  V30 9377 H 899.684 4.05976 -1.12968 0
M  V30 9378 H 898.408 3.26117 -0.177573 0
M  V30 9379 H 897.067 2.87486 -2.2748 0
M  V30 9380 H 896.715 4.94565 -0.917324 0
M  V30 9381 H 896.415 5.24576 -2.64751 0
M  V30 9382 H 897.939 5.80291 -1.89985 0
M  V30 9383 H 899.353 4.39444 -3.68187 0
M  V30 9384 H 897.75 4.07468 -4.40556 0
M  V30 9385 H 898.82 2.71549 -4.01732 0
M  V30 9386 N 900.163 1.21714 1.00117 0
M  V30 9387 C 901.388 1.06357 1.78054 0
M  V30 9388 C 901.813 -0.382075 1.84179 0
M  V30 9389 O 901.171 -1.27575 1.28819 0
M  V30 9390 C 901.219 1.66982 3.19608 0
M  V30 9391 O 900.323 0.917892 4.02055 0
M  V30 9392 H 899.664 0.374074 0.548602 0
M  V30 9393 H 902.194 1.61338 1.25822 0
M  V30 9394 H 902.204 1.71363 3.70268 0
M  V30 9395 H 900.879 2.72185 3.14465 0
M  V30 9396 H 899.456 0.949473 3.6061 0
M  V30 9397 N 901.641 -1.19671 1.02551 0
M  V30 9398 C 902.869 -1.93233 0.739513 0
M  V30 9399 C 903.284 -1.75298 -0.701158 0
M  V30 9400 O 902.641 -1.07269 -1.47647 0
M  V30 9401 C 902.692 -3.45085 1.07697 0
M  V30 9402 O 902.413 -3.62441 2.46106 0
M  V30 9403 C 903.914 -4.35776 0.813298 0
M  V30 9404 H 901.134 -0.613905 0.270853 0
M  V30 9405 H 903.678 -1.51909 1.36909 0
M  V30 9406 H 901.833 -3.84255 0.492635 0
M  V30 9407 H 902.247 -4.56337 2.58567 0
M  V30 9408 H 903.721 -5.40941 1.09941 0
M  V30 9409 H 904.198 -4.38474 -0.252359 0
M  V30 9410 H 904.804 -4.02282 1.38021 0
M  V30 9411 N 903.119 -0.802921 -1.35613 0
M  V30 9412 C 904.082 -0.216422 -2.28176 0
M  V30 9413 C 905.082 0.594101 -1.49422 0
M  V30 9414 O 906.272 0.41312 -1.6923 0
M  V30 9415 C 903.404 0.698746 -3.33662 0
M  V30 9416 H 904.597 -1.03276 -2.81557 0
M  V30 9417 H 902.15 -0.573307 -1.45406 0
M  V30 9418 H 902.885 1.53891 -2.85461 0
M  V30 9419 H 902.67 0.119314 -3.91918 0
M  V30 9420 H 904.16 1.10354 -4.02755 0
M  V30 9421 N 904.597 1.47463 -0.556102 0
M  V30 9422 C 905.846 2.01678 -0.029492 0
M  V30 9423 C 906.159 1.436 1.32809 0
M  V30 9424 O 907.365 1.89472 1.94455 0
M  V30 9425 C 905.821 3.599 -0.00223937 0
M  V30 9426 C 905.429 4.26969 -1.35651 0
M  V30 9427 C 907.173 4.2187 0.471822 0
M  V30 9428 C 905.08 5.77194 -1.28843 0
M  V30 9429 H 904.01 0.753965 -0.00725504 0
M  V30 9430 H 906.661 1.69467 -0.703789 0
M  V30 9431 H 905.043 3.89068 0.737682 0
M  V30 9432 H 906.217 4.09444 -2.11406 0
M  V30 9433 H 904.532 3.76983 -1.76842 0
M  V30 9434 H 907.129 5.31955 0.541139 0
M  V30 9435 H 907.472 3.88968 1.48356 0
M  V30 9436 H 908.005 3.97228 -0.213207 0
M  V30 9437 H 904.744 6.14713 -2.27613 0
M  V30 9438 H 904.264 5.9706 -0.572668 0
M  V30 9439 H 905.943 6.3938 -0.990031 0
M  V30 9440 N 906.075 0.2925 1.54862 0
M  V30 9441 C 907.038 -0.574423 2.21885 0
M  V30 9442 C 908.038 -1.06791 1.20218 0
M  V30 9443 O 909.228 -0.9653 1.45009 0
M  V30 9444 C 906.36 -1.79438 2.89853 0
M  V30 9445 H 907.553 0.0110319 2.99898 0
M  V30 9446 H 905.106 0.043256 1.5624 0
M  V30 9447 H 905.841 -2.4199 2.15897 0
M  V30 9448 H 905.626 -1.44827 3.64373 0
M  V30 9449 H 907.116 -2.41048 3.41007 0
M  V30 9450 N 907.553 -1.57587 0.0200696 0
M  V30 9451 C 908.778 -1.96124 -0.674547 0
M  V30 9452 C 909.203 -0.896068 -1.65385 0
M  V30 9453 O 908.561 0.143925 -1.80728 0
M  V30 9454 C 908.609 -3.3376 -1.36517 0
M  V30 9455 O 907.713 -3.29483 -2.48022 0
M  V30 9456 H 907.054 -0.639719 -0.177919 0
M  V30 9457 H 909.584 -2.04447 0.0792317 0
M  V30 9458 H 909.594 -3.69785 -1.72403 0
M  V30 9459 H 908.269 -4.10832 -0.647265 0
M  V30 9460 H 906.846 -3.05162 -2.14314 0
M  V30 9461 N 909.032 0.252966 -1.55557 0
M  V30 9462 C 910.448 0.60118 -1.47844 0
M  V30 9463 C 910.648 1.88612 -0.709055 0
M  V30 9464 O 909.704 2.51395 -0.235964 0
M  V30 9465 C 911.017 0.709539 -2.92209 0
M  V30 9466 C 912.565 0.802269 -3.02544 0
M  V30 9467 C 913.04 0.94224 -4.48203 0
M  V30 9468 N 914.531 1.00726 -4.52116 0
M  V30 9469 C 915.266 1.13472 -5.6206 0
M  V30 9470 N 914.762 1.22811 -6.81828 0
M  V30 9471 N 916.555 1.1674 -5.49844 0
M  V30 9472 H 908.706 -0.590635 -2.04023 0
M  V30 9473 H 910.969 -0.202986 -0.926013 0
M  V30 9474 H 910.675 -0.164505 -3.51315 0
M  V30 9475 H 910.549 1.58343 -3.42356 0
M  V30 9476 H 912.936 1.66677 -2.43522 0
M  V30 9477 H 913.017 -0.0966469 -2.55617 0
M  V30 9478 H 912.661 0.0823209 -5.07833 0
M  V30 9479 H 912.591 1.85611 -4.92805 0
M  V30 9480 H 915.082 0.946684 -3.6585 0
M  V30 9481 H 915.395 1.32426 -7.61369 0
M  V30 9482 H 913.74 1.19779 -6.84601 0
M  V30 9483 H 916.931 1.09089 -4.55211 0
M  V30 9484 H 917.104 1.26329 -6.35567 0
M  V30 9485 N 910.51 1.48831 0.518367 0
M  V30 9486 C 911.735 1.61379 1.30275 0
M  V30 9487 C 912.16 0.278571 1.86026 0
M  V30 9488 O 911.518 -0.751427 1.64995 0
M  V30 9489 C 911.566 2.67225 2.42122 0
M  V30 9490 O 910.67 2.25192 3.45489 0
M  V30 9491 H 910.011 0.540742 0.385349 0
M  V30 9492 H 912.541 1.949 0.622498 0
M  V30 9493 H 912.551 2.88859 2.8814 0
M  V30 9494 H 911.226 3.64155 2.00907 0
M  V30 9495 H 909.803 2.13819 3.05509 0
M  V30 9496 N 911.988 -0.768124 1.37614 0
M  V30 9497 C 913.234 -1.52907 1.33219 0
M  V30 9498 C 913.567 -1.94026 -0.0821218 0
M  V30 9499 O 912.842 -1.64345 -1.04023 0
M  V30 9500 C 913.125 -2.79164 2.27463 0
M  V30 9501 C 912.978 -2.44276 3.7769 0
M  V30 9502 C 914.297 -3.81115 2.20089 0
M  V30 9503 H 911.416 -0.554712 0.485246 0
M  V30 9504 H 914.058 -0.880911 1.68345 0
M  V30 9505 H 912.208 -3.34472 1.97639 0
M  V30 9506 H 913.88 -1.94855 4.18126 0
M  V30 9507 H 912.123 -1.76925 3.96081 0
M  V30 9508 H 912.794 -3.34544 4.39072 0
M  V30 9509 H 915.27 -3.35311 2.46386 0
M  V30 9510 H 914.146 -4.67174 2.88166 0
M  V30 9511 H 914.407 -4.25644 1.19498 0
M  V30 9512 N 913.466 -1.22244 -0.994698 0
M  V30 9513 C 914.429 -0.992308 -2.06606 0
M  V30 9514 C 915.429 0.0405872 -1.60749 0
M  V30 9515 O 916.619 -0.197737 -1.73074 0
M  V30 9516 C 913.751 -0.498499 -3.37236 0
M  V30 9517 H 914.944 -1.9429 -2.28455 0
M  V30 9518 H 912.497 -1.04087 -1.166 0
M  V30 9519 H 913.232 0.456531 -3.21071 0
M  V30 9520 H 913.017 -1.24367 -3.71854 0
M  V30 9521 H 914.507 -0.35768 -4.16065 0
M  V30 9522 N 914.944 1.19125 -1.03184 0
M  V30 9523 C 916.221 1.84674 -0.644574 0
M  V30 9524 C 916.601 1.92042 0.876534 0
M  V30 9525 O 915.949 1.43965 1.77444 0
M  V30 9526 C 916.159 3.23477 -1.3101 0
M  V30 9527 C 917.507 3.99608 -1.43524 0
M  V30 9528 O 918.531 3.32886 -1.2675 0
M  V30 9529 O 917.39 5.19132 -1.70776 0
M  V30 9530 H 914.484 0.795968 -0.22442 0
M  V30 9531 H 917.03 1.2659 -1.13018 0
M  V30 9532 H 915.802 3.12967 -2.34878 0
M  V30 9533 H 915.425 3.89209 -0.812547 0
M  V30 9534 N 916.422 0.810101 1.35185 0
M  V30 9535 C 917.369 0.220927 2.2974 0
M  V30 9536 C 918.339 -0.647024 1.5298 0
M  V30 9537 O 919.524 -0.591367 1.81404 0
M  V30 9538 C 916.664 -0.62167 3.39454 0
M  V30 9539 C 915.777 0.267104 4.31173 0
M  V30 9540 C 914.912 -0.583833 5.27982 0
M  V30 9541 C 913.951 0.305123 6.11339 0
M  V30 9542 N 913.088 -0.505992 7.00274 0
M  V30 9543 H 917.928 1.03266 2.79536 0
M  V30 9544 H 915.465 0.520768 1.37573 0
M  V30 9545 H 917.423 -1.12539 4.01735 0
M  V30 9546 H 916.053 -1.39863 2.90926 0
M  V30 9547 H 915.105 0.88895 3.69867 0
M  V30 9548 H 916.417 0.951182 4.89647 0
M  V30 9549 H 915.571 -1.15254 5.95652 0
M  V30 9550 H 914.31 -1.30146 4.70014 0
M  V30 9551 H 913.315 0.886075 5.42613 0
M  V30 9552 H 914.54 1.02067 6.71386 0
M  V30 9553 H 912.486 -1.20753 6.4479 0
M  V30 9554 H 912.403 0.119966 7.55905 0
M  V30 9555 H 913.671 -1.05787 7.72288 0
M  V30 9556 N 917.9 -1.47166 0.563914 0
M  V30 9557 C 919.149 -2.0166 0.0401871 0
M  V30 9558 C 919.462 -1.44303 -1.32046 0
M  V30 9559 O 920.668 -1.905 -1.93448 0
M  V30 9560 C 919.124 -3.59894 0.0213257 0
M  V30 9561 C 918.732 -4.26244 1.37914 0
M  V30 9562 C 920.476 -4.22114 -0.449442 0
M  V30 9563 C 918.383 -5.76503 1.31902 0
M  V30 9564 H 917.313 -0.753916 0.0112534 0
M  V30 9565 H 919.964 -1.69091 0.712766 0
M  V30 9566 H 918.346 -3.89454 -0.717038 0
M  V30 9567 H 919.52 -4.08317 2.13574 0
M  V30 9568 H 917.835 -3.76039 1.78839 0
M  V30 9569 H 920.432 -5.32234 -0.51292 0
M  V30 9570 H 920.775 -3.89749 -1.46291 0
M  V30 9571 H 921.308 -3.9711 0.23427 0
M  V30 9572 H 918.047 -6.13498 2.3087 0
M  V30 9573 H 917.567 -5.96748 0.604324 0
M  V30 9574 H 919.246 -6.38846 1.02392 0
M  V30 9575 N 919.378 -0.300708 -1.54705 0
M  V30 9576 C 920.308 0.568675 -2.26469 0
M  V30 9577 C 921.289 1.13817 -1.26411 0
M  V30 9578 O 922.474 1.16756 -1.55183 0
M  V30 9579 C 919.604 1.74077 -3.00524 0
M  V30 9580 C 918.558 1.30165 -4.07727 0
M  V30 9581 C 917.884 2.55888 -4.69495 0
M  V30 9582 C 919.184 0.433106 -5.20501 0
M  V30 9583 H 920.878 -0.0298851 -2.99385 0
M  V30 9584 H 918.424 -0.0158135 -1.43991 0
M  V30 9585 H 920.377 2.35506 -3.49449 0
M  V30 9586 H 919.101 2.36556 -2.25186 0
M  V30 9587 H 917.76 0.710414 -3.59651 0
M  V30 9588 H 917.408 3.16681 -3.90797 0
M  V30 9589 H 917.108 2.27207 -5.41895 0
M  V30 9590 H 918.632 3.18121 -5.21183 0
M  V30 9591 H 920.046 0.95307 -5.65322 0
M  V30 9592 H 918.443 0.240085 -5.9962 0
M  V30 9593 H 919.513 -0.541866 -4.81863 0
M  V30 9594 N 920.856 1.57574 -0.0284266 0
M  V30 9595 C 922.133 1.83064 0.688979 0
M  V30 9596 C 922.513 0.91219 1.90374 0
M  V30 9597 O 921.861 -0.0323672 2.28477 0
M  V30 9598 C 922.071 3.32262 1.06785 0
M  V30 9599 C 923.419 3.98717 1.45978 0
M  V30 9600 O 924.443 3.36753 1.16085 0
M  V30 9601 O 923.302 5.07927 2.01673 0
M  V30 9602 H 920.396 0.7548 0.337944 0
M  V30 9603 H 922.942 1.69607 -0.0560555 0
M  V30 9604 H 921.714 3.90772 0.203235 0
M  V30 9605 H 921.337 3.50823 1.87107 0
M  V30 9606 N 922.334 -0.244713 1.55689 0
M  V30 9607 C 923.264 -1.30667 1.93516 0
M  V30 9608 C 924.245 -1.50094 0.800371 0
M  V30 9609 O 925.43 -1.62665 1.06083 0
M  V30 9610 C 922.56 -2.66101 2.23176 0
M  V30 9611 C 921.514 -2.61366 3.38927 0
M  V30 9612 C 920.84 -4.00616 3.54134 0
M  V30 9613 C 922.14 -2.18161 4.74555 0
M  V30 9614 H 923.834 -0.992546 2.82469 0
M  V30 9615 H 921.38 -0.476018 1.35905 0
M  V30 9616 H 923.333 -3.4053 2.48228 0
M  V30 9617 H 922.057 -2.99154 1.31051 0
M  V30 9618 H 920.716 -1.89395 3.13887 0
M  V30 9619 H 920.364 -4.30938 2.59426 0
M  V30 9620 H 920.064 -3.98335 4.31975 0
M  V30 9621 H 921.588 -4.76741 3.8151 0
M  V30 9622 H 923.002 -2.82323 4.98965 0
M  V30 9623 H 921.399 -2.26988 5.55515 0
M  V30 9624 H 922.469 -1.13333 4.7147 0
M  V30 9625 N 923.813 -1.49104 -0.510467 0
M  V30 9626 C 925.043 -1.61571 -1.28757 0
M  V30 9627 C 925.451 -0.282638 -1.87077 0
M  V30 9628 O 924.794 0.740749 -1.68103 0
M  V30 9629 C 924.856 -2.61851 -2.46322 0
M  V30 9630 C 924.52 -4.06438 -2.08942 0
M  V30 9631 C 925.517 -4.93532 -1.63469 0
M  V30 9632 C 923.202 -4.52109 -2.18867 0
M  V30 9633 C 925.196 -6.24331 -1.28411 0
M  V30 9634 C 922.883 -5.82924 -1.83421 0
M  V30 9635 C 923.881 -6.68858 -1.38267 0
M  V30 9636 O 923.569 -7.97236 -1.03296 0
M  V30 9637 H 923.301 -0.547082 -0.397086 0
M  V30 9638 H 925.855 -1.95806 -0.620424 0
M  V30 9639 H 924.085 -2.22777 -3.16081 0
M  V30 9640 H 925.774 -2.63947 -3.08362 0
M  V30 9641 H 926.54 -4.59479 -1.55255 0
M  V30 9642 H 922.419 -3.85395 -2.52966 0
M  V30 9643 H 925.963 -6.9136 -0.930946 0
M  V30 9644 H 921.86 -6.16507 -1.91282 0
M  V30 9645 H 922.628 -8.10163 -1.16525 0
M  V30 9646 N 925.291 0.760815 -1.38019 0
M  V30 9647 C 926.238 1.8744 -1.34666 0
M  V30 9648 C 927.208 1.64762 -0.210386 0
M  V30 9649 O 928.393 1.86528 -0.401479 0
M  V30 9650 C 925.533 3.24648 -1.17037 0
M  V30 9651 C 924.646 3.59206 -2.3999 0
M  V30 9652 C 923.781 4.8568 -2.15148 0
M  V30 9653 C 922.82 5.13002 -3.3391 0
M  V30 9654 N 921.957 6.30668 -3.08549 0
M  V30 9655 H 926.797 1.8964 -2.29871 0
M  V30 9656 H 924.334 0.927004 -1.14215 0
M  V30 9657 H 926.292 4.03814 -1.04834 0
M  V30 9658 H 924.922 3.21793 -0.254758 0
M  V30 9659 H 923.974 2.74939 -2.62893 0
M  V30 9660 H 925.286 3.75328 -3.28527 0
M  V30 9661 H 924.44 5.72773 -2.00039 0
M  V30 9662 H 923.179 4.71682 -1.23965 0
M  V30 9663 H 922.184 4.2438 -3.49545 0
M  V30 9664 H 923.409 5.28901 -4.25958 0
M  V30 9665 H 921.355 6.18008 -2.20006 0
M  V30 9666 H 921.272 6.47257 -3.90633 0
M  V30 9667 H 922.54 7.20669 -2.9708 0
M  V30 9668 N 926.769 1.22769 0.988202 0
M  V30 9669 C 927.719 0.969202 2.06375 0
M  V30 9670 C 928.703 -0.0819274 1.60691 0
M  V30 9671 O 929.895 0.129201 1.76528 0
M  V30 9672 C 927.024 0.553919 3.38802 0
M  V30 9673 C 926.11 1.64003 3.91106 0
M  V30 9674 N 926.501 2.86872 4.16579 0
M  V30 9675 C 924.799 1.5128 4.1956 0
M  V30 9676 C 925.5 3.57137 4.5916 0
M  V30 9677 N 924.476 2.84624 4.63131 0
M  V30 9678 H 928.278 1.90247 2.24017 0
M  V30 9679 H 925.792 1.12592 1.17033 0
M  V30 9680 H 927.789 0.350033 4.15428 0
M  V30 9681 H 926.449 -0.37239 3.22558 0
M  V30 9682 H 927.46 3.23254 4.04632 0
M  V30 9683 H 924.137 0.653032 4.12361 0
M  V30 9684 H 925.527 4.62428 4.87452 0
M  V30 9685 N 928.247 -1.18576 1.03814 0
M  V30 9686 C 929.658 -1.70159 0.768299 0
M  V30 9687 C 930.009 -1.8286 -0.711106 0
M  V30 9688 O 929.134 -1.5063 -1.55369 0
M  V30 9689 C 929.729 -3.09062 1.38804 0
M  V30 9690 C 928.288 -3.57866 1.16656 0
M  V30 9691 C 927.435 -2.34484 1.48029 0
M  V30 9692 H 930.386 -1.03287 1.20488 0
M  V30 9693 H 930.407 -3.72211 0.7899 0
M  V30 9694 H 929.919 -2.99785 2.46476 0
M  V30 9695 H 928.02 -3.72442 0.108471 0
M  V30 9696 H 928.133 -4.41445 1.8618 0
M  V30 9697 H 926.497 -2.38273 0.899902 0
M  V30 9698 H 927.28 -2.27829 2.56805 0
M  V30 9699 N 929.725 -0.817259 -1.34754 0
M  V30 9700 C 931.002 -0.325468 -1.92873 0
M  V30 9701 C 931.382 1.18643 -1.74606 0
M  V30 9702 O 930.73 1.9909 -1.1214 0
M  V30 9703 C 930.94 -0.74858 -3.40877 0
M  V30 9704 C 932.288 -0.744165 -4.18028 0
M  V30 9705 O 933.312 -0.690799 -3.49437 0
M  V30 9706 O 932.171 -0.812207 -5.40431 0
M  V30 9707 H 929.265 -0.0876397 -0.822343 0
M  V30 9708 H 931.811 -0.901671 -1.43764 0
M  V30 9709 H 930.583 -1.79017 -3.47949 0
M  V30 9710 H 930.206 -0.147764 -3.97325 0
M  V30 9711 N 931.203 1.46865 -0.571711 0
M  V30 9712 C 932.151 2.31897 0.180714 0
M  V30 9713 C 933.145 1.43815 0.895191 0
M  V30 9714 O 934.351 1.60501 0.814828 0
M  V30 9715 H 930.726 0.748032 0.077148 0
M  V30 9716 H 932.697 2.93185 -0.555432 0
M  V30 9717 C 931.446 3.26766 1.18824 0
M  V30 9718 H 930.769 3.94515 0.64789 0
M  V30 9719 H 932.209 3.89067 1.68532 0
M  V30 9720 C 930.668 2.51325 2.2436 0
M  V30 9721 O 931.198 2.26825 3.31532 0
M  V30 9722 N 929.404 2.12079 1.98673 0
M  V30 9723 H 928.951 2.32204 1.1153 0
M  V30 9724 H 928.909 1.61921 2.69498 0
M  V30 9725 N 932.681 0.308908 1.54543 0
M  V30 9726 C 933.93 -0.298854 1.99474 0
M  V30 9727 C 934.243 -1.54393 1.20093 0
M  V30 9728 O 935.449 -2.22677 1.55329 0
M  V30 9729 C 933.905 -0.58303 3.55146 0
M  V30 9730 C 933.513 0.644157 4.43345 0
M  V30 9731 C 935.257 -1.15155 4.08582 0
M  V30 9732 C 933.164 0.332694 5.90463 0
M  V30 9733 H 932.094 -0.115445 0.74511 0
M  V30 9734 H 934.745 0.418848 1.78656 0
M  V30 9735 H 933.127 -1.36053 3.71894 0
M  V30 9736 H 934.301 1.42012 4.38371 0
M  V30 9737 H 932.616 1.13186 4.00722 0
M  V30 9738 H 935.213 -1.39896 5.16075 0
M  V30 9739 H 935.556 -2.09632 3.59667 0
M  V30 9740 H 936.089 -0.435571 3.95408 0
M  V30 9741 H 932.828 1.24624 6.43544 0
M  V30 9742 H 932.348 -0.405844 5.98425 0
M  V30 9743 H 934.027 -0.0628545 6.46969 0
M  V30 9744 N 934.159 -1.57557 0.0367827 0
M  V30 9745 C 935.436 -1.83427 -0.679261 0
M  V30 9746 C 935.816 -0.922274 -1.89888 0
M  V30 9747 O 935.164 0.02025 -2.28491 0
M  V30 9748 C 935.374 -3.32823 -1.05022 0
M  V30 9749 C 936.722 -3.99486 -1.43861 0
M  V30 9750 O 937.746 -3.37364 -1.14297 0
M  V30 9751 O 936.605 -5.0899 -1.98977 0
M  V30 9752 H 933.699 -0.756581 -0.333936 0
M  V30 9753 H 936.245 -1.69575 0.0650494 0
M  V30 9754 H 935.017 -3.90874 -0.182509 0
M  V30 9755 H 934.64 -3.5181 -1.85244 0
M  V30 9756 N 935.637 0.236453 -1.55816 0
M  V30 9757 C 936.883 0.964439 -1.784 0
M  V30 9758 C 937.216 1.84573 -0.603868 0
M  V30 9759 O 936.491 1.90395 0.397473 0
M  V30 9760 C 936.774 1.81608 -3.10951 0
M  V30 9761 C 936.627 0.962283 -4.39386 0
M  V30 9762 C 937.946 2.79665 -3.39817 0
M  V30 9763 H 935.065 0.349192 -0.649026 0
M  V30 9764 H 937.707 0.234247 -1.8855 0
M  V30 9765 H 935.857 2.43864 -3.02428 0
M  V30 9766 H 937.529 0.35762 -4.59912 0
M  V30 9767 H 935.772 0.267062 -4.32977 0
M  V30 9768 H 936.443 1.59222 -5.28538 0
M  V30 9769 H 938.919 2.27546 -3.4837 0
M  V30 9770 H 937.795 3.36367 -4.33761 0
M  V30 9771 H 938.056 3.56657 -2.61244 0
M  V30 9772 N 937.115 1.49373 0.502552 0
M  V30 9773 C 938.361 1.5999 1.25597 0
M  V30 9774 C 938.716 0.282287 1.90318 0
M  V30 9775 O 938.009 -0.71735 1.77664 0
M  V30 9776 C 938.203 2.69508 2.34735 0
M  V30 9777 C 938.032 4.11791 1.80716 0
M  V30 9778 C 936.802 4.78598 1.62087 0
M  V30 9779 C 939 4.97074 1.31991 0
M  V30 9780 N 936.982 6.05201 1.02981 0
M  V30 9781 C 938.353 6.14144 0.850098 0
M  V30 9782 C 940.408 4.83086 1.20549 0
M  V30 9783 C 939.111 7.18766 0.277192 0
M  V30 9784 C 941.137 5.87855 0.64656 0
M  V30 9785 C 940.499 7.04152 0.186968 0
M  V30 9786 H 936.598 0.639822 0.449613 0
M  V30 9787 H 939.182 1.86371 0.563361 0
M  V30 9788 H 937.353 2.44902 3.01459 0
M  V30 9789 H 939.085 2.69656 3.01774 0
M  V30 9790 H 935.84 4.35372 1.8641 0
M  V30 9791 H 936.264 6.72793 0.753601 0
M  V30 9792 H 940.906 3.93489 1.54681 0
M  V30 9793 H 938.624 8.08064 -0.0763971 0
M  V30 9794 H 942.21 5.79091 0.560832 0
M  V30 9795 H 941.09 7.83836 -0.238784 0
M  V30 9796 N 938.594 -0.753485 1.38421 0
M  V30 9797 C 939.524 -1.8808 1.38377 0
M  V30 9798 C 940.505 -1.68258 0.249664 0
M  V30 9799 O 941.69 -1.88848 0.45276 0
M  V30 9800 C 938.82 -3.25608 1.20818 0
M  V30 9801 C 937.774 -3.60032 2.31433 0
M  V30 9802 C 937.1 -4.96297 1.9898 0
M  V30 9803 C 938.4 -3.64898 3.73694 0
M  V30 9804 H 940.094 -1.88375 2.32713 0
M  V30 9805 H 937.64 -0.90489 1.12017 0
M  V30 9806 H 939.593 -4.04127 1.19412 0
M  V30 9807 H 938.317 -3.25793 0.229433 0
M  V30 9808 H 936.976 -2.83831 2.32025 0
M  V30 9809 H 936.624 -4.93043 0.995889 0
M  V30 9810 H 936.324 -5.20298 2.73063 0
M  V30 9811 H 937.848 -5.77196 1.99193 0
M  V30 9812 H 939.262 -4.33531 3.75132 0
M  V30 9813 H 937.659 -4.00407 4.46983 0
M  V30 9814 H 938.729 -2.65124 4.06002 0
M  V30 9815 N 940.072 -1.23292 -0.981677 0
M  V30 9816 C 941.32 -1.06214 -1.71939 0
M  V30 9817 C 941.641 0.401989 -1.90812 0
M  V30 9818 O 940.911 1.28825 -1.47584 0
M  V30 9819 H 939.491 -0.390042 -0.637084 0
M  V30 9820 H 942.153 -1.54988 -1.18173 0
M  V30 9821 H 941.249 -1.54904 -2.70945 0
M  V30 9822 N 941.55 1.18024 -1.04442 0
M  V30 9823 C 942.798 1.87727 -0.74854 0
M  V30 9824 C 943.119 1.80975 0.726156 0
M  V30 9825 O 942.389 1.23061 1.52423 0
M  V30 9826 H 940.969 0.694974 -0.273897 0
M  V30 9827 H 943.631 1.43213 -1.32197 0
M  V30 9828 H 942.727 2.93665 -1.05674 0
M  V30 9829 N 943.028 0.824394 1.34319 0
M  V30 9830 C 943.958 0.262077 2.32025 0
M  V30 9831 C 944.939 -0.622277 1.58309 0
M  V30 9832 O 946.124 -0.548848 1.86283 0
M  V30 9833 C 943.254 -0.57567 3.42496 0
M  V30 9834 C 942.208 0.21167 4.27476 0
M  V30 9835 C 941.534 -0.748913 5.29429 0
M  V30 9836 C 942.834 1.42068 5.02607 0
M  V30 9837 H 944.528 1.07842 2.79304 0
M  V30 9838 H 942.074 0.520022 1.34282 0
M  V30 9839 H 944.027 -0.979251 4.09864 0
M  V30 9840 H 942.751 -1.42508 2.93869 0
M  V30 9841 H 941.41 0.596636 3.61712 0
M  V30 9842 H 941.058 -1.59432 4.77064 0
M  V30 9843 H 940.758 -0.226313 5.87164 0
M  V30 9844 H 942.282 -1.15032 5.99667 0
M  V30 9845 H 943.696 1.09103 5.62823 0
M  V30 9846 H 942.093 1.87903 5.69923 0
M  V30 9847 H 943.163 2.1981 4.32217 0
M  V30 9848 N 944.506 -1.46559 0.579492 0
M  V30 9849 C 945.469 -2.28739 -0.145371 0
M  V30 9850 C 946.469 -1.38211 -0.821854 0
M  V30 9851 O 947.659 -1.6062 -0.674302 0
M  V30 9852 C 944.791 -3.18507 -1.21515 0
M  V30 9853 H 945.984 -2.94301 0.576786 0
M  V30 9854 H 943.537 -1.52616 0.337327 0
M  V30 9855 H 944.272 -2.57685 -1.96899 0
M  V30 9856 H 944.057 -3.85157 -0.734616 0
M  V30 9857 H 945.547 -3.80369 -1.72363 0
M  V30 9858 N 945.984 -0.3171 -1.54377 0
M  V30 9859 C 946.894 0.560867 -2.27797 0
M  V30 9860 C 947.91 1.13473 -1.31908 0
M  V30 9861 O 949.086 1.15608 -1.64914 0
M  V30 9862 C 946.151 1.70886 -3.0166 0
M  V30 9863 C 945.212 1.16745 -4.13121 0
M  V30 9864 C 944.445 2.26073 -4.83453 0
M  V30 9865 O 944.668 3.46292 -4.53252 0
M  V30 9866 O 943.602 1.91856 -5.70504 0
M  V30 9867 H 947.428 -0.035193 -3.0368 0
M  V30 9868 H 945.013 -0.0830062 -1.49169 0
M  V30 9869 H 946.895 2.37736 -3.47936 0
M  V30 9870 H 945.57 2.29122 -2.28658 0
M  V30 9871 H 944.477 0.464224 -3.71209 0
M  V30 9872 H 945.81 0.630307 -4.88147 0
M  V30 9873 N 947.462 1.57535 -0.0451378 0
M  V30 9874 C 948.41 2.12351 0.949205 0
M  V30 9875 C 949.404 1.05386 1.32628 0
M  V30 9876 O 950.61 1.23802 1.30664 0
M  V30 9877 H 946.985 0.678648 0.323945 0
M  V30 9878 H 948.956 2.94806 0.461718 0
M  V30 9879 C 947.705 2.67862 2.21687 0
M  V30 9880 H 947.028 3.49826 1.93551 0
M  V30 9881 H 948.468 3.09844 2.89435 0
M  V30 9882 C 946.927 1.61353 2.95748 0
M  V30 9883 O 947.457 1.02276 3.88462 0
M  V30 9884 N 945.663 1.33017 2.5837 0
M  V30 9885 H 945.21 1.81246 1.83051 0
M  V30 9886 H 945.168 0.619812 3.0823 0
M  V30 9887 N 948.94 -0.228186 1.55939 0
M  V30 9888 C 950.187 -0.953552 1.78644 0
M  V30 9889 C 950.515 -1.84596 0.61275 0
M  V30 9890 O 949.77 -1.91502 -0.403175 0
M  V30 9891 C 950.069 -1.82924 3.0704 0
M  V30 9892 C 949.735 -1.09062 4.37511 0
M  V30 9893 C 948.397 -0.886565 4.72962 0
M  V30 9894 C 950.749 -0.568533 5.1809 0
M  V30 9895 C 948.077 -0.148413 5.86512 0
M  V30 9896 C 950.429 0.156243 6.32407 0
M  V30 9897 C 949.093 0.371612 6.66465 0
M  V30 9898 H 948.363 -0.348929 0.653704 0
M  V30 9899 H 951.01 -0.222211 1.90206 0
M  V30 9900 H 949.315 -2.62823 2.90571 0
M  V30 9901 H 951.012 -2.3925 3.21808 0
M  V30 9902 H 947.602 -1.25963 4.09672 0
M  V30 9903 H 951.786 -0.713673 4.91142 0
M  V30 9904 H 947.042 0.0287418 6.11393 0
M  V30 9905 H 951.216 0.568333 6.94077 0
M  V30 9906 H 948.843 0.945522 7.54297 0
M  V30 9907 N 950.418 -1.49637 -0.494624 0
M  V30 9908 C 951.348 -1.69692 -1.60396 0
M  V30 9909 C 952.329 -0.545648 -1.61111 0
M  V30 9910 O 953.514 -0.782202 -1.77751 0
M  V30 9911 C 950.644 -1.76934 -2.9885 0
M  V30 9912 C 949.598 -2.91915 -3.13001 0
M  V30 9913 C 948.924 -2.84276 -4.5287 0
M  V30 9914 C 950.224 -4.32764 -2.92426 0
M  V30 9915 H 951.918 -2.6257 -1.43866 0
M  V30 9916 H 949.464 -1.26355 -0.690679 0
M  V30 9917 H 951.417 -1.8955 -3.76362 0
M  V30 9918 H 950.141 -0.806609 -3.16483 0
M  V30 9919 H 948.8 -2.78911 -2.37916 0
M  V30 9920 H 948.448 -1.85897 -4.67388 0
M  V30 9921 H 948.148 -3.61452 -4.63278 0
M  V30 9922 H 949.672 -2.98909 -5.32434 0
M  V30 9923 H 951.086 -4.46415 -3.59703 0
M  V30 9924 H 949.483 -5.1121 -3.143 0
M  V30 9925 H 950.553 -4.46765 -1.88491 0
M  V30 9926 N 951.896 0.746133 -1.38819 0
M  V30 9927 C 953.307 1.32384 -1.31648 0
M  V30 9928 C 953.658 1.96185 0.0243086 0
M  V30 9929 O 952.783 1.95567 0.92641 0
M  V30 9930 C 953.378 2.40712 -2.38418 0
M  V30 9931 C 951.937 2.94185 -2.34803 0
M  V30 9932 C 951.084 1.67639 -2.20891 0
M  V30 9933 H 954.035 0.544457 -1.49068 0
M  V30 9934 H 954.056 3.20833 -2.04564 0
M  V30 9935 H 953.568 1.94247 -3.3599 0
M  V30 9936 H 951.669 3.44959 -1.40834 0
M  V30 9937 H 951.782 3.48057 -3.29231 0
M  V30 9938 H 950.146 1.9155 -1.67871 0
M  V30 9939 H 950.929 1.23242 -3.20416 0
M  V30 9940 N 953.375 1.23811 0.975125 0
M  V30 9941 C 954.791 1.0019 1.24234 0
M  V30 9942 C 954.991 -0.293811 1.99346 0
M  V30 9943 O 954.047 -1.01189 2.31337 0
M  V30 9944 C 955.36 2.21218 2.03674 0
M  V30 9945 C 956.908 2.25764 2.16793 0
M  V30 9946 C 957.383 3.46394 2.99626 0
M  V30 9947 N 958.874 3.46665 3.07209 0
M  V30 9948 C 959.609 4.3666 3.71639 0
M  V30 9949 N 959.105 5.36899 4.37849 0
M  V30 9950 N 960.898 4.2439 3.68578 0
M  V30 9951 H 953.049 2.07087 0.472076 0
M  V30 9952 H 955.312 0.90838 0.271201 0
M  V30 9953 H 955.018 3.15277 1.55862 0
M  V30 9954 H 954.892 2.22733 3.04417 0
M  V30 9955 H 957.279 1.32242 2.63811 0
M  V30 9956 H 957.36 2.28279 1.15422 0
M  V30 9957 H 957.004 4.40227 2.53304 0
M  V30 9958 H 956.934 3.41121 4.01178 0
M  V30 9959 H 959.425 2.74142 2.60105 0
M  V30 9960 H 959.738 6.01816 4.84807 0
M  V30 9961 H 958.083 5.40793 4.36541 0
M  V30 9962 H 961.274 3.4532 3.16025 0
M  V30 9963 H 961.447 4.94727 4.18508 0
M  V30 9964 N 954.853 -1.17469 1.05066 0
M  V30 9965 C 955.816 -2.19648 0.654793 0
M  V30 9966 C 956.816 -1.58107 -0.293063 0
M  V30 9967 O 958.006 -1.74029 -0.077106 0
M  V30 9968 C 955.138 -3.40878 -0.0384437 0
M  V30 9969 H 956.331 -2.56184 1.55915 0
M  V30 9970 H 953.884 -1.31528 0.844396 0
M  V30 9971 H 954.619 -3.09885 -0.956133 0
M  V30 9972 H 954.404 -3.86792 0.642961 0
M  V30 9973 H 955.894 -4.1651 -0.301568 0
M  V30 9974 N 956.331 -0.831506 -1.3388 0
M  V30 9975 C 957.747 -0.518349 -1.50948 0
M  V30 9976 C 957.947 0.955807 -1.77388 0
M  V30 9977 O 957.003 1.73993 -1.82983 0
M  V30 9978 C 958.316 -1.38531 -2.66889 0
M  V30 9979 C 959.864 -1.38332 -2.80772 0
M  V30 9980 C 960.339 -2.23497 -3.99766 0
M  V30 9981 N 961.83 -2.21167 -4.06988 0
M  V30 9982 C 962.565 -2.83805 -4.98239 0
M  V30 9983 N 962.061 -3.55468 -5.94655 0
M  V30 9984 N 963.854 -2.73314 -4.91178 0
M  V30 9985 H 956.005 -1.78588 -1.14978 0
M  V30 9986 H 958.268 -0.761508 -0.564633 0
M  V30 9987 H 957.974 -2.43255 -2.54007 0
M  V30 9988 H 957.848 -1.05611 -3.62114 0
M  V30 9989 H 960.235 -0.343832 -2.9309 0
M  V30 9990 H 960.316 -1.75256 -1.86331 0
M  V30 9991 H 959.96 -3.27501 -3.88208 0
M  V30 9992 H 959.89 -1.83919 -4.93438 0
M  V30 9993 H 962.381 -1.69046 -3.37982 0
M  V30 9994 H 962.694 -4.00487 -6.60931 0
M  V30 9995 H 961.039 -3.59575 -5.94753 0
M  V30 9996 H 964.23 -2.16897 -4.14817 0
M  V30 9997 H 964.403 -3.22416 -5.62096 0
M  V30 9998 N 957.809 1.4625 -0.587256 0
M  V30 9999 C 959.037 2.06744 -0.08033 0
M  V30 10000 C 959.452 1.43527 1.2266 0
M  V30 10001 O 958.809 0.542168 1.74261 0
M  V30 10002 C 958.86 3.61394 0.0873469 0
M  V30 10003 O 958.581 4.22247 -1.16785 0
M  V30 10004 C 960.082 4.38828 0.628095 0
M  V30 10005 H 957.302 0.668354 -0.0595301 0
M  V30 10006 H 959.846 1.87808 -0.809217 0
M  V30 10007 H 958.001 3.79742 0.766473 0
M  V30 10008 H 958.415 5.15176 -0.984565 0
M  V30 10009 H 959.889 5.47613 0.694583 0
M  V30 10010 H 960.366 4.07188 1.64606 0
M  V30 10011 H 960.972 4.25297 -0.0163115 0
M  V30 10012 N 959.287 0.325282 1.54207 0
M  V30 10013 C 960.535 -0.276229 2.00203 0
M  V30 10014 C 960.856 -1.52519 1.21503 0
M  V30 10015 O 960.126 -1.93313 0.317302 0
M  V30 10016 H 958.706 -0.105059 0.739575 0
M  V30 10017 H 961.368 0.442225 1.89817 0
M  V30 10018 H 960.464 -0.531427 3.07542 0
M  V30 10019 N 960.765 -1.57509 0.0534917 0
M  V30 10020 C 962.176 -1.80374 -0.481867 0
M  V30 10021 C 962.527 -0.965917 -1.70776 0
M  V30 10022 O 961.652 -0.183167 -2.15623 0
M  V30 10023 C 962.247 -3.27146 -0.880978 0
M  V30 10024 C 960.806 -3.50921 -1.3613 0
M  V30 10025 C 959.953 -2.75237 -0.337611 0
M  V30 10026 H 962.904 -1.56222 0.279353 0
M  V30 10027 H 962.925 -3.38193 -1.74373 0
M  V30 10028 H 962.437 -3.88098 0.011441 0
M  V30 10029 H 960.538 -2.95251 -2.27283 0
M  V30 10030 H 960.651 -4.59632 -1.35186 0
M  V30 10031 H 959.015 -2.41444 -0.810991 0
M  V30 10032 H 959.798 -3.38918 0.546763 0
M  V30 10033 N 962.243 0.219913 -1.56058 0
M  V30 10034 C 963.173 1.27572 -1.9557 0
M  V30 10035 C 964.154 1.48801 -0.824148 0
M  V30 10036 O 965.339 1.60957 -1.08658 0
M  V30 10037 C 962.469 2.62517 -2.27381 0
M  V30 10038 C 961.423 2.55941 -3.43042 0
M  V30 10039 C 960.749 3.94931 -3.60463 0
M  V30 10040 C 962.049 2.10584 -4.77966 0
M  V30 10041 H 963.743 0.947482 -2.84013 0
M  V30 10042 H 961.289 0.454337 -1.36645 0
M  V30 10043 H 963.242 3.36538 -2.53615 0
M  V30 10044 H 961.966 2.97031 -1.35794 0
M  V30 10045 H 960.625 1.84377 -3.1686 0
M  V30 10046 H 960.273 4.26756 -2.66249 0
M  V30 10047 H 959.973 3.91413 -4.38258 0
M  V30 10048 H 961.497 4.70611 -3.89046 0
M  V30 10049 H 962.911 2.74349 -5.03394 0
M  V30 10050 H 961.308 2.18122 -5.59055 0
M  V30 10051 H 962.378 1.05818 -4.73213 0
M  V30 10052 N 963.721 1.49897 0.486681 0
M  V30 10053 C 964.968 1.60105 1.23986 0
M  V30 10054 C 965.296 0.294228 1.92262 0
M  V30 10055 O 964.551 -0.718876 1.82018 0
M  V30 10056 C 964.85 2.71982 2.31863 0
M  V30 10057 C 964.516 4.13 1.80948 0
M  V30 10058 C 963.178 4.51373 1.66782 0
M  V30 10059 C 965.53 5.01198 1.43004 0
M  V30 10060 C 962.858 5.75701 1.13072 0
M  V30 10061 C 965.21 6.26058 0.90742 0
M  V30 10062 C 963.874 6.63247 0.752269 0
M  V30 10063 H 963.144 0.585866 0.453698 0
M  V30 10064 H 965.791 1.83778 0.538305 0
M  V30 10065 H 964.096 2.42336 3.07865 0
M  V30 10066 H 965.793 2.77087 2.89869 0
M  V30 10067 H 962.383 3.82718 1.92937 0
M  V30 10068 H 966.567 4.72196 1.52789 0
M  V30 10069 H 961.823 6.03202 0.997842 0
M  V30 10070 H 965.997 6.9377 0.604684 0
M  V30 10071 H 963.624 7.59466 0.33392 0
M  V30 10072 N 965.199 -0.738761 1.39212 0
M  V30 10073 C 966.162 -1.83441 1.37412 0
M  V30 10074 C 967.162 -1.58484 0.271908 0
M  V30 10075 O 968.352 -1.65954 0.529609 0
M  V30 10076 C 965.484 -3.21167 1.143 0
M  V30 10077 H 966.677 -1.86441 2.34904 0
M  V30 10078 H 964.23 -0.942023 1.24722 0
M  V30 10079 H 964.965 -3.23829 0.174756 0
M  V30 10080 H 964.75 -3.40678 1.94116 0
M  V30 10081 H 966.24 -4.01231 1.15773 0
M  V30 10082 N 966.677 -1.24326 -0.968545 0
M  V30 10083 C 967.917 -1.09434 -1.72637 0
M  V30 10084 C 968.281 0.360781 -1.8858 0
M  V30 10085 O 969.482 0.631188 -2.61284 0
M  V30 10086 C 967.753 -1.81285 -3.08011 0
M  V30 10087 S 969.312 -1.82113 -3.99225 0
M  V30 10088 H 966.13 -0.391409 -0.593565 0
M  V30 10089 H 968.732 -1.57643 -1.15624 0
M  V30 10090 H 967.436 -2.86274 -2.94067 0
M  V30 10091 H 966.967 -1.33405 -3.7009 0
M  V30 10092 H 968.982 -0.888196 -4.88186 0
M  V30 10093 N 968.156 1.1691 -1.05688 0
M  V30 10094 C 969.086 2.23275 -0.683402 0
M  V30 10095 C 970.067 1.6704 0.321206 0
M  V30 10096 O 971.252 1.93191 0.197691 0
M  V30 10097 C 968.382 3.47244 -0.0626006 0
M  V30 10098 C 967.336 4.16333 -0.992513 0
M  V30 10099 C 966.662 5.34182 -0.23533 0
M  V30 10100 C 967.962 4.68002 -2.31886 0
M  V30 10101 H 969.656 2.54771 -1.57264 0
M  V30 10102 H 967.202 1.2246 -0.757606 0
M  V30 10103 H 969.155 4.20874 0.210503 0
M  V30 10104 H 967.879 3.1503 0.861616 0
M  V30 10105 H 966.538 3.44622 -1.25026 0
M  V30 10106 H 966.186 4.9822 0.69181 0
M  V30 10107 H 965.886 5.81346 -0.855002 0
M  V30 10108 H 967.41 6.10592 0.0303717 0
M  V30 10109 H 968.824 5.33244 -2.10531 0
M  V30 10110 H 967.221 5.25764 -2.89296 0
M  V30 10111 H 968.291 3.84541 -2.95391 0
M  V30 10112 N 969.634 0.838594 1.33437 0
M  V30 10113 C 970.883 0.430484 1.97053 0
M  V30 10114 C 971.196 -1.01556 1.6717 0
M  V30 10115 O 972.402 -1.52834 2.24397 0
M  V30 10116 C 970.858 0.718828 3.52648 0
M  V30 10117 C 970.466 2.17953 3.91408 0
M  V30 10118 C 972.21 0.377654 4.22817 0
M  V30 10119 C 970.117 2.41194 5.39981 0
M  V30 10120 H 969.047 0.157239 0.737422 0
M  V30 10121 H 971.698 1.02714 1.5206 0
M  V30 10122 H 970.08 0.0518042 3.95966 0
M  V30 10123 H 971.254 2.88701 3.59149 0
M  V30 10124 H 969.569 2.48366 3.34221 0
M  V30 10125 H 972.166 0.528926 5.32077 0
M  V30 10126 H 972.509 -0.679338 4.1072 0
M  V30 10127 H 973.042 0.999899 3.85028 0
M  V30 10128 H 969.781 3.45457 5.57081 0
M  V30 10129 H 969.301 1.75007 5.73701 0
M  V30 10130 H 970.98 2.24334 6.06863 0
M  V30 10131 N 971.112 -1.45937 0.595003 0
M  V30 10132 C 972.36 -2.01921 0.0851368 0
M  V30 10133 C 972.681 -1.46748 -1.28413 0
M  V30 10134 O 971.951 -0.656873 -1.84559 0
M  V30 10135 H 970.531 -0.746457 0.0284826 0
M  V30 10136 H 973.193 -1.78891 0.773561 0
M  V30 10137 H 972.289 -3.1209 0.0254002 0
M  V30 10138 N 972.59 -0.333456 -1.54032 0
M  V30 10139 C 973.537 0.527981 -2.2468 0
M  V30 10140 C 974.507 1.10371 -1.24127 0
M  V30 10141 O 975.692 1.14221 -1.52834 0
M  V30 10142 C 972.832 1.67808 -3.01553 0
M  V30 10143 C 971.945 1.13064 -4.16942 0
M  V30 10144 C 971.08 2.24722 -4.81325 0
M  V30 10145 C 970.119 1.67277 -5.88799 0
M  V30 10146 N 969.256 2.72638 -6.47003 0
M  V30 10147 H 974.096 -0.0810308 -2.9789 0
M  V30 10148 H 971.633 -0.051761 -1.47009 0
M  V30 10149 H 973.591 2.35502 -3.44376 0
M  V30 10150 H 972.221 2.25823 -2.30659 0
M  V30 10151 H 971.273 0.344948 -3.78833 0
M  V30 10152 H 972.585 0.670373 -4.94275 0
M  V30 10153 H 971.739 3.00301 -5.27166 0
M  V30 10154 H 970.478 2.74089 -4.03394 0
M  V30 10155 H 969.483 0.902002 -5.4235 0
M  V30 10156 H 970.708 1.18775 -6.68632 0
M  V30 10157 H 968.654 3.21277 -5.71941 0
M  V30 10158 H 968.571 2.31204 -7.19778 0
M  V30 10159 H 969.839 3.48015 -6.97499 0
M  V30 10160 N 974.068 1.57479 -0.061844 0
M  V30 10161 C 975 2.09116 0.938245 0
M  V30 10162 C 976.013 1.0212 1.26788 0
M  V30 10163 O 977.202 1.2966 1.22681 0
M  V30 10164 C 974.302 2.52822 2.25686 0
M  V30 10165 C 973.475 3.83277 2.10755 0
M  V30 10166 C 972.534 4.13182 3.25833 0
M  V30 10167 O 971.56 4.82937 3.01265 0
M  V30 10168 N 972.762 3.65938 4.50633 0
M  V30 10169 H 975.527 2.95543 0.497433 0
M  V30 10170 H 973.088 1.61423 0.124134 0
M  V30 10171 H 975.08 2.69896 3.01559 0
M  V30 10172 H 973.65 1.71586 2.61299 0
M  V30 10173 H 972.87 3.7568 1.19409 0
M  V30 10174 H 974.158 4.68686 1.98018 0
M  V30 10175 H 973.556 3.09566 4.73482 0
M  V30 10176 H 972.113 3.8823 5.23565 0
M  V30 10177 N 975.546 -0.211634 1.56173 0
M  V30 10178 C 976.479 -1.28982 1.88252 0
M  V30 10179 C 977.457 -1.4474 0.740889 0
M  V30 10180 O 978.641 -1.60394 0.990249 0
M  V30 10181 C 975.768 -2.65879 2.09824 0
M  V30 10182 C 974.814 -2.67082 3.3252 0
M  V30 10183 S 975.647 -2.2016 4.8815 0
M  V30 10184 C 976.803 -3.58913 5.12769 0
M  V30 10185 H 977.036 -1.01578 2.79409 0
M  V30 10186 H 974.569 -0.414351 1.48736 0
M  V30 10187 H 976.527 -3.44688 2.22935 0
M  V30 10188 H 975.188 -2.90502 1.19447 0
M  V30 10189 H 974.381 -3.67703 3.44689 0
M  V30 10190 H 973.983 -1.96343 3.18317 0
M  V30 10191 H 976.275 -4.54671 5.02276 0
M  V30 10192 H 977.218 -3.51652 6.14611 0
M  V30 10193 H 977.626 -3.5306 4.40465 0
M  V30 10194 N 977.024 -1.50153 -0.478725 0
M  V30 10195 C 977.971 -1.68458 -1.57767 0
M  V30 10196 C 978.941 -0.5259 -1.57555 0
M  V30 10197 O 980.126 -0.755574 -1.75202 0
M  V30 10198 C 977.266 -1.77772 -2.95789 0
M  V30 10199 C 976.379 -3.05092 -3.05848 0
M  V30 10200 C 975.514 -3.05247 -4.34739 0
M  V30 10201 C 974.553 -4.27053 -4.38512 0
M  V30 10202 N 973.69 -4.24991 -5.58862 0
M  V30 10203 H 978.53 -2.62282 -1.41464 0
M  V30 10204 H 976.067 -1.30023 -0.687921 0
M  V30 10205 H 978.025 -1.81152 -3.75819 0
M  V30 10206 H 976.655 -0.873944 -3.10744 0
M  V30 10207 H 975.707 -3.11219 -2.1874 0
M  V30 10208 H 977.019 -3.95075 -3.04495 0
M  V30 10209 H 976.173 -3.07314 -5.23109 0
M  V30 10210 H 974.912 -2.13081 -4.38689 0
M  V30 10211 H 973.917 -4.25206 -3.4854 0
M  V30 10212 H 975.142 -5.20437 -4.36259 0
M  V30 10213 H 973.088 -3.35674 -5.63612 0
M  V30 10214 H 973.005 -5.08734 -5.59219 0
M  V30 10215 H 974.273 -4.31193 -6.49379 0
M  V30 10216 N 978.502 0.731368 -1.39602 0
M  V30 10217 C 979.465 1.8271 -1.38383 0
M  V30 10218 C 980.465 1.58338 -0.280309 0
M  V30 10219 O 981.655 1.65671 -0.538402 0
M  V30 10220 C 978.787 3.20556 -1.16002 0
M  V30 10221 H 979.98 1.85193 -2.35889 0
M  V30 10222 H 977.533 0.935396 -1.2522 0
M  V30 10223 H 978.268 3.23732 -0.191927 0
M  V30 10224 H 978.053 3.39643 -1.9592 0
M  V30 10225 H 979.543 4.00612 -1.17899 0
M  V30 10226 N 979.98 1.24838 0.961938 0
M  V30 10227 C 980.91 1.07053 2.07514 0
M  V30 10228 C 981.891 -0.0182465 1.7009 0
M  V30 10229 O 983.076 0.149915 1.9362 0
M  V30 10230 C 980.206 0.680693 3.40564 0
M  V30 10231 C 979.16 1.71889 3.91967 0
M  V30 10232 C 978.486 1.18395 5.21428 0
M  V30 10233 C 979.786 3.1161 4.19161 0
M  V30 10234 H 981.48 2.00167 2.22651 0
M  V30 10235 H 979.026 0.963799 1.0699 0
M  V30 10236 H 980.979 0.54324 4.17884 0
M  V30 10237 H 979.703 -0.28615 3.25344 0
M  V30 10238 H 978.362 1.84465 3.16809 0
M  V30 10239 H 978.01 0.207543 5.02572 0
M  V30 10240 H 977.71 1.87778 5.56788 0
M  V30 10241 H 979.234 1.05873 6.01351 0
M  V30 10242 H 980.648 3.0223 4.87165 0
M  V30 10243 H 979.045 3.78398 4.65763 0
M  V30 10244 H 980.115 3.59218 3.25715 0
M  V30 10245 N 981.458 -1.16348 1.06306 0
M  V30 10246 C 982.874 -1.38873 0.786543 0
M  V30 10247 C 983.074 -1.91915 -0.614061 0
M  V30 10248 O 982.13 -2.11804 -1.3746 0
M  V30 10249 C 983.443 -2.36936 1.85154 0
M  V30 10250 C 984.991 -2.5062 1.87506 0
M  V30 10251 C 985.466 -3.51965 2.9306 0
M  V30 10252 N 986.957 -3.59492 2.92095 0
M  V30 10253 C 987.692 -4.37699 3.70415 0
M  V30 10254 N 987.188 -5.19327 4.58553 0
M  V30 10255 N 988.981 -4.32683 3.58806 0
M  V30 10256 H 981.132 -0.802542 1.96655 0
M  V30 10257 H 983.395 -0.415304 0.852189 0
M  V30 10258 H 983.101 -2.05056 2.85736 0
M  V30 10259 H 982.975 -3.36585 1.70267 0
M  V30 10260 H 985.362 -2.81804 0.875827 0
M  V30 10261 H 985.443 -1.51006 2.06472 0
M  V30 10262 H 985.087 -3.21518 3.93177 0
M  V30 10263 H 985.017 -4.51309 2.71344 0
M  V30 10264 H 987.508 -3.01222 2.28197 0
M  V30 10265 H 987.821 -5.76216 5.1497 0
M  V30 10266 H 986.166 -5.1867 4.62608 0
M  V30 10267 H 989.357 -3.67971 2.89335 0
M  V30 10268 H 989.53 -4.93386 4.20088 0
M  V30 10269 N 982.937 -0.845659 -1.3299 0
M  V30 10270 C 984.214 -0.366306 -1.92139 0
M  V30 10271 C 984.594 1.14912 -1.77083 0
M  V30 10272 O 983.942 1.96667 -1.16338 0
M  V30 10273 C 984.152 -0.820716 -3.39213 0
M  V30 10274 C 985.5 -0.832667 -4.16355 0
M  V30 10275 O 986.524 -0.764764 -3.47893 0
M  V30 10276 O 985.383 -0.926658 -5.38586 0
M  V30 10277 H 982.477 -0.105063 -0.820299 0
M  V30 10278 H 985.023 -0.931962 -1.41819 0
M  V30 10279 H 983.795 -1.86357 -3.44074 0
M  V30 10280 H 983.418 -0.232009 -3.96923 0
M  V30 10281 N 984.415 1.45619 -0.602734 0
M  V30 10282 C 985.663 2.01873 -0.095844 0
M  V30 10283 C 985.984 1.47427 1.27633 0
M  V30 10284 O 985.254 0.666652 1.84208 0
M  V30 10285 H 983.834 0.746295 -0.0324408 0
M  V30 10286 H 986.496 1.78478 -0.783037 0
M  V30 10287 H 985.592 3.12072 -0.0419507 0
M  V30 10288 N 985.893 0.34162 1.53853 0
M  V30 10289 C 987.17 -0.310664 1.93117 0
M  V30 10290 C 987.55 -1.68398 1.273 0
M  V30 10291 O 986.898 -2.24546 0.423225 0
M  V30 10292 C 987.108 -0.384867 3.46871 0
M  V30 10293 C 988.456 -0.636621 4.198 0
M  V30 10294 O 989.48 -0.467061 3.53125 0
M  V30 10295 O 988.339 -0.964962 5.37913 0
M  V30 10296 H 985.433 -0.180881 0.806977 0
M  V30 10297 H 987.979 0.392656 1.65095 0
M  V30 10298 H 986.751 0.57894 3.86994 0
M  V30 10299 H 986.374 -1.13505 3.81054 0
M  V30 10300 N 987.371 -1.57444 0.0701946 0
M  V30 10301 C 988.617 -1.94528 -0.594177 0
M  V30 10302 C 988.972 -0.949898 -1.67316 0
M  V30 10303 O 988.265 0.0280668 -1.91579 0
M  V30 10304 C 988.459 -3.36044 -1.21694 0
M  V30 10305 C 988.288 -4.49256 -0.199806 0
M  V30 10306 C 987.058 -5.04843 0.214963 0
M  V30 10307 C 989.256 -5.11217 0.562312 0
M  V30 10308 N 987.238 -6.01595 1.22297 0
M  V30 10309 C 988.609 -6.03453 1.42284 0
M  V30 10310 C 990.664 -4.94043 0.618555 0
M  V30 10311 C 989.367 -6.80359 2.33461 0
M  V30 10312 C 991.393 -5.71591 1.51783 0
M  V30 10313 C 990.755 -6.63474 2.36604 0
M  V30 10314 H 986.854 -0.758941 -0.1885 0
M  V30 10315 H 989.438 -1.94145 0.146965 0
M  V30 10316 H 987.609 -3.37168 -1.92801 0
M  V30 10317 H 989.341 -3.60368 -1.84165 0
M  V30 10318 H 986.096 -4.73303 -0.167835 0
M  V30 10319 H 986.52 -6.5467 1.72443 0
M  V30 10320 H 991.162 -4.22794 -0.0230235 0
M  V30 10321 H 988.88 -7.50886 2.98656 0
M  V30 10322 H 992.466 -5.60324 1.56616 0
M  V30 10323 H 991.346 -7.22432 3.0506 0
M  V30 10324 N 988.849 0.203349 -1.56283 0
M  V30 10325 C 990.096 0.92501 -1.80138 0
M  V30 10326 C 990.424 1.83598 -0.64204 0
M  V30 10327 O 989.679 1.92119 0.372658 0
M  V30 10328 C 989.978 1.78016 -3.09912 0
M  V30 10329 C 989.644 1.02088 -4.39191 0
M  V30 10330 C 988.306 0.811208 -4.74313 0
M  V30 10331 C 990.658 0.486037 -5.18929 0
M  V30 10332 C 987.986 0.0550856 -5.86674 0
M  V30 10333 C 990.338 -0.256833 -6.32078 0
M  V30 10334 C 989.002 -0.477594 -6.65789 0
M  V30 10335 H 988.272 0.338485 -0.659173 0
M  V30 10336 H 990.919 0.191923 -1.90536 0
M  V30 10337 H 989.224 2.58167 -2.94715 0
M  V30 10338 H 990.921 2.341 -3.25574 0
M  V30 10339 H 987.511 1.1943 -4.11624 0
M  V30 10340 H 991.695 0.635446 -4.92215 0
M  V30 10341 H 986.951 -0.126006 -6.1127 0
M  V30 10342 H 991.125 -0.678683 -6.93085 0
M  V30 10343 H 988.752 -1.0654 -7.52697 0
M  V30 10344 N 990.327 1.50405 0.470755 0
M  V30 10345 C 991.573 1.62618 1.22175 0
M  V30 10346 C 991.928 0.322593 1.89676 0
M  V30 10347 O 991.221 -0.679504 1.79146 0
M  V30 10348 C 991.415 2.74426 2.28965 0
M  V30 10349 C 991.244 4.15532 1.71941 0
M  V30 10350 C 990.014 4.81928 1.51899 0
M  V30 10351 C 992.212 4.99762 1.21417 0
M  V30 10352 N 990.194 6.07249 0.901208 0
M  V30 10353 C 991.565 6.15809 0.719638 0
M  V30 10354 C 993.62 4.85535 1.10275 0
M  V30 10355 C 992.323 7.19192 0.124669 0
M  V30 10356 C 994.349 5.89094 0.521721 0
M  V30 10357 C 993.711 7.0439 0.0375645 0
M  V30 10358 H 989.81 0.649215 0.43594 0
M  V30 10359 H 992.394 1.87525 0.523702 0
M  V30 10360 H 990.565 2.51242 2.96196 0
M  V30 10361 H 992.297 2.75996 2.95987 0
M  V30 10362 H 989.052 4.39228 1.77133 0
M  V30 10363 H 989.476 6.7424 0.610722 0
M  V30 10364 H 994.118 3.96681 1.463 0
M  V30 10365 H 991.836 8.0772 -0.247782 0
M  V30 10366 H 995.422 5.8015 0.437872 0
M  V30 10367 H 994.302 7.83154 -0.404993 0
M  V30 10368 N 991.805 -0.723954 1.39988 0
M  V30 10369 C 993.051 -1.48476 1.3902 0
M  V30 10370 C 993.406 -1.92397 -0.0105439 0
M  V30 10371 O 992.699 -1.64683 -0.979294 0
M  V30 10372 C 992.893 -2.73004 2.30659 0
M  V30 10373 C 992.722 -2.41261 3.79504 0
M  V30 10374 C 991.492 -2.33013 4.48367 0
M  V30 10375 C 993.69 -2.06078 4.71207 0
M  V30 10376 N 991.672 -1.93856 5.82489 0
M  V30 10377 C 993.043 -1.77455 5.94062 0
M  V30 10378 C 995.098 -1.92642 4.59123 0
M  V30 10379 C 993.801 -1.36748 7.06182 0
M  V30 10380 C 995.827 -1.53338 5.71175 0
M  V30 10381 C 995.189 -1.25607 6.93111 0
M  V30 10382 H 991.288 -0.54172 0.563971 0
M  V30 10383 H 993.872 -0.840344 1.75631 0
M  V30 10384 H 992.043 -3.35209 1.96188 0
M  V30 10385 H 993.775 -3.39286 2.20606 0
M  V30 10386 H 990.53 -2.50476 4.01944 0
M  V30 10387 H 990.954 -1.7684 6.53496 0
M  V30 10388 H 995.596 -2.12745 3.65376 0
M  V30 10389 H 993.314 -1.15386 7.9982 0
M  V30 10390 H 996.9 -1.43532 5.63817 0
M  V30 10391 H 995.78 -0.956505 7.78345 0
M  V30 10392 N 993.283 -1.25346 -0.955304 0
M  V30 10393 C 994.193 -1.07412 -2.08566 0
M  V30 10394 C 995.209 -0.0114424 -1.73996 0
M  V30 10395 O 996.385 -0.212236 -2.00279 0
M  V30 10396 C 993.45 -0.694141 -3.3968 0
M  V30 10397 C 992.511 -1.83468 -3.88121 0
M  V30 10398 C 991.744 -1.47274 -5.12978 0
M  V30 10399 O 991.967 -0.368086 -5.69211 0
M  V30 10400 O 990.901 -2.30269 -5.56111 0
M  V30 10401 H 994.727 -2.02206 -2.26598 0
M  V30 10402 H 992.312 -1.04279 -1.06988 0
M  V30 10403 H 994.194 -0.494325 -4.18491 0
M  V30 10404 H 992.869 0.224545 -3.2292 0
M  V30 10405 H 991.776 -2.08935 -3.10318 0
M  V30 10406 H 993.109 -2.73258 -4.09379 0
M  V30 10407 N 994.761 1.15782 -1.06922 0
M  V30 10408 C 995.709 2.22441 -0.679893 0
M  V30 10409 C 996.703 1.66591 0.307221 0
M  V30 10410 O 997.909 1.79182 0.171402 0
M  V30 10411 H 994.284 0.724427 -0.201765 0
M  V30 10412 H 996.255 2.52562 -1.58918 0
M  V30 10413 C 995.004 3.47586 -0.0891142 0
M  V30 10414 H 994.327 3.9088 -0.839805 0
M  V30 10415 H 995.767 4.2375 0.14569 0
M  V30 10416 C 994.226 3.15967 1.16903 0
M  V30 10417 O 994.756 3.32359 2.25611 0
M  V30 10418 N 992.962 2.70046 1.07349 0
M  V30 10419 H 992.509 2.56907 0.188825 0
M  V30 10420 H 992.467 2.49264 1.91611 0
M  V30 10421 N 996.239 0.8527 1.3254 0
M  V30 10422 C 997.464 0.468157 2.02047 0
M  V30 10423 C 997.889 -0.926967 1.63673 0
M  V30 10424 O 997.247 -1.60855 0.836378 0
M  V30 10425 C 997.295 0.612519 3.5536 0
M  V30 10426 O 996.399 -0.355506 4.10865 0
M  V30 10427 H 995.74 0.188401 0.636711 0
M  V30 10428 H 998.27 1.15135 1.6913 0
M  V30 10429 H 998.28 0.499315 4.04933 0
M  V30 10430 H 996.955 1.62988 3.82632 0
M  V30 10431 H 995.532 -0.198703 3.7237 0
M  V30 10432 N 997.718 -1.45297 0.610449 0
M  V30 10433 C 998.668 -2.27639 -0.128194 0
M  V30 10434 C 999.652 -1.37485 -0.835861 0
M  V30 10435 O 1000.84 -1.61454 -0.725378 0
M  V30 10436 C 997.973 -3.24413 -1.123 0
M  V30 10437 C 997.059 -4.22055 -0.416029 0
M  V30 10438 N 997.45 -5.02867 0.543921 0
M  V30 10439 C 995.748 -4.41041 -0.663208 0
M  V30 10440 C 996.449 -5.73728 0.959731 0
M  V30 10441 N 995.425 -5.42756 0.302873 0
M  V30 10442 H 999.227 -2.8752 0.609056 0
M  V30 10443 H 996.741 -1.56484 0.434338 0
M  V30 10444 H 998.738 -3.82139 -1.6666 0
M  V30 10445 H 997.398 -2.66092 -1.86078 0
M  V30 10446 H 998.409 -5.09649 0.920799 0
M  V30 10447 H 995.086 -3.93842 -1.38544 0
M  V30 10448 H 996.476 -6.48666 1.75163 0
M  V30 10449 N 999.196 -0.349774 -1.5367 0
M  V30 10450 C 1000.44 0.245189 -2.01312 0
M  V30 10451 C 1000.77 1.49702 -1.23705 0
M  V30 10452 O 1000.05 1.91742 -0.326371 0
M  V30 10453 C 1000.33 0.553071 -3.55827 0
M  V30 10454 C 1000.19 -0.71129 -4.4414 0
M  V30 10455 C 1001.5 1.36015 -4.18555 0
M  V30 10456 H 998.624 0.0876415 -0.73177 0
M  V30 10457 H 1001.27 -0.471543 -1.84056 0
M  V30 10458 H 999.416 1.16367 -3.70663 0
M  V30 10459 H 1001.09 -1.34913 -4.41131 0
M  V30 10460 H 999.331 -1.33491 -4.1275 0
M  V30 10461 H 1000 -0.45104 -5.50154 0
M  V30 10462 H 1002.48 0.843778 -4.07455 0
M  V30 10463 H 1001.35 1.54432 -5.26728 0
M  V30 10464 H 1001.61 2.36408 -3.73582 0
M  V30 10465 N 1000.67 1.57404 -0.0785433 0
M  V30 10466 C 1001.92 1.93744 0.589024 0
M  V30 10467 C 1002.25 0.959087 1.69209 0
M  V30 10468 O 1001.5 -0.0241604 1.95685 0
M  V30 10469 C 1001.8 3.36684 1.1991 0
M  V30 10470 C 1001.47 4.50356 0.221493 0
M  V30 10471 C 1000.13 4.81177 -0.0474347 0
M  V30 10472 C 1002.48 5.1928 -0.446941 0
M  V30 10473 C 999.811 5.78257 -0.99177 0
M  V30 10474 C 1002.16 6.17372 -1.37964 0
M  V30 10475 C 1000.83 6.46607 -1.65697 0
M  V30 10476 H 1000.1 0.70896 0.215539 0
M  V30 10477 H 1002.74 1.90905 -0.150856 0
M  V30 10478 H 1001.05 3.36022 2.01486 0
M  V30 10479 H 1002.75 3.62095 1.72303 0
M  V30 10480 H 999.336 4.26322 0.441284 0
M  V30 10481 H 1003.52 4.95658 -0.252298 0
M  V30 10482 H 998.776 5.9923 -1.21381 0
M  V30 10483 H 1002.95 6.6988 -1.9035 0
M  V30 10484 H 1000.58 7.21643 -2.39031 0
M  V30 10485 N 1002.15 -0.195058 1.56388 0
M  V30 10486 C 1003.38 -0.931642 1.84738 0
M  V30 10487 C 1003.79 -1.76849 0.661046 0
M  V30 10488 O 1003.15 -1.78705 -0.370241 0
M  V30 10489 C 1003.2 -1.82777 3.11889 0
M  V30 10490 O 1002.92 -1.02471 4.25948 0
M  V30 10491 C 1004.42 -2.67603 3.53417 0
M  V30 10492 H 1001.64 -0.271821 0.613477 0
M  V30 10493 H 1004.19 -0.202299 2.03497 0
M  V30 10494 H 1002.34 -2.51074 2.95027 0
M  V30 10495 H 1002.76 -1.63539 4.98353 0
M  V30 10496 H 1004.23 -3.26138 4.45352 0
M  V30 10497 H 1004.71 -3.41314 2.76408 0
M  V30 10498 H 1005.31 -2.04678 3.7281 0
M  V30 10499 N 1003.63 -1.50653 -0.462772 0
M  V30 10500 C 1004.91 -1.5258 -1.22387 0
M  V30 10501 C 1005.29 -0.275263 -2.09298 0
M  V30 10502 O 1004.63 0.740943 -2.16153 0
M  V30 10503 C 1004.84 -2.82611 -2.04773 0
M  V30 10504 C 1006.19 -3.33592 -2.62681 0
M  V30 10505 O 1007.22 -2.83989 -2.15008 0
M  V30 10506 O 1006.08 -4.20081 -3.49563 0
M  V30 10507 H 1003.17 -0.612367 -0.55582 0
M  V30 10508 H 1005.72 -1.62948 -0.473914 0
M  V30 10509 H 1004.49 -3.65098 -1.40781 0
M  V30 10510 H 1004.11 -2.75286 -2.86886 0
M  V30 10511 N 1005.11 0.71652 -1.4037 0
M  V30 10512 C 1006.07 1.81231 -1.40313 0
M  V30 10513 C 1007.07 1.58032 -0.297087 0
M  V30 10514 O 1008.26 1.65091 -0.555944 0
M  V30 10515 C 1005.39 3.19308 -1.19395 0
M  V30 10516 H 1006.59 1.8268 -2.3784 0
M  V30 10517 H 1004.14 0.922062 -1.26205 0
M  V30 10518 H 1004.87 3.2351 -0.226252 0
M  V30 10519 H 1004.66 3.37546 -1.99512 0
M  V30 10520 H 1006.15 3.99339 -1.22141 0
M  V30 10521 N 1006.59 1.25851 0.948643 0
M  V30 10522 C 1007.52 1.02549 2.04979 0
M  V30 10523 C 1008.53 -0.0115923 1.62796 0
M  V30 10524 O 1009.72 0.227643 1.77042 0
M  V30 10525 C 1006.82 0.529486 3.34738 0
M  V30 10526 C 1005.99 1.6341 4.05729 0
M  V30 10527 C 1005.05 1.13743 5.1376 0
M  V30 10528 O 1004.08 1.83303 5.38877 0
M  V30 10529 N 1005.28 -0.0181151 5.80497 0
M  V30 10530 H 1008.05 1.97365 2.25537 0
M  V30 10531 H 1005.61 1.17137 1.11761 0
M  V30 10532 H 1007.6 0.181566 4.04293 0
M  V30 10533 H 1006.17 -0.324893 3.10907 0
M  V30 10534 H 1005.39 2.15331 3.30191 0
M  V30 10535 H 1006.68 2.37603 4.49914 0
M  V30 10536 H 1006.07 -0.599198 5.62518 0
M  V30 10537 H 1004.63 -0.307019 6.51077 0
M  V30 10538 N 1008.06 -1.15214 1.07534 0
M  V30 10539 C 1009.48 -1.38031 0.801228 0
M  V30 10540 C 1009.68 -1.92556 -0.593672 0
M  V30 10541 O 1008.74 -2.1325 -1.35206 0
M  V30 10542 C 1010.05 -2.34958 1.87657 0
M  V30 10543 C 1011.6 -2.48617 1.90154 0
M  V30 10544 C 1012.07 -3.48837 2.96777 0
M  V30 10545 N 1013.56 -3.56374 2.95892 0
M  V30 10546 C 1014.3 -4.33746 3.75036 0
M  V30 10547 N 1013.79 -5.14435 4.64036 0
M  V30 10548 N 1015.59 -4.28853 3.63375 0
M  V30 10549 H 1007.74 -0.781639 1.97495 0
M  V30 10550 H 1010 -0.406243 0.856546 0
M  V30 10551 H 1009.71 -2.02013 2.87895 0
M  V30 10552 H 1009.58 -3.3476 1.73827 0
M  V30 10553 H 1011.97 -2.80859 0.905666 0
M  V30 10554 H 1012.05 -1.48808 2.08062 0
M  V30 10555 H 1011.69 -3.1733 3.96565 0
M  V30 10556 H 1011.62 -4.48406 2.76116 0
M  V30 10557 H 1014.11 -2.98784 2.31379 0
M  V30 10558 H 1014.43 -5.70722 5.21053 0
M  V30 10559 H 1012.77 -5.13734 4.68084 0
M  V30 10560 H 1015.96 -3.64882 2.93221 0
M  V30 10561 H 1016.14 -4.88903 4.25298 0
M  V30 10562 N 1009.54 -0.859717 -1.32086 0
M  V30 10563 C 1010.96 -0.55025 -1.49815 0
M  V30 10564 C 1011.16 0.917966 -1.79376 0
M  V30 10565 O 1010.21 1.70073 -1.86632 0
M  V30 10566 C 1011.53 -1.44161 -2.6389 0
M  V30 10567 C 1013.08 -1.44257 -2.77775 0
M  V30 10568 C 1013.55 -2.31926 -3.94936 0
M  V30 10569 N 1015.04 -2.2975 -4.02206 0
M  V30 10570 C 1015.78 -2.9431 -4.92107 0
M  V30 10571 N 1015.27 -3.68001 -5.86981 0
M  V30 10572 N 1017.07 -2.83671 -4.8527 0
M  V30 10573 H 1009.22 -1.80987 -1.11164 0
M  V30 10574 H 1011.48 -0.773313 -0.548353 0
M  V30 10575 H 1011.19 -2.48588 -2.4879 0
M  V30 10576 H 1011.06 -1.13268 -3.59792 0
M  V30 10577 H 1013.45 -0.405923 -2.92295 0
M  V30 10578 H 1013.53 -1.79169 -1.82571 0
M  V30 10579 H 1013.17 -3.35661 -3.81174 0
M  V30 10580 H 1013.1 -1.94344 -4.89426 0
M  V30 10581 H 1015.59 -1.76177 -3.3432 0
M  V30 10582 H 1015.91 -4.14417 -6.52287 0
M  V30 10583 H 1014.25 -3.72109 -5.86992 0
M  V30 10584 H 1017.44 -2.25647 -4.10123 0
M  V30 10585 H 1017.61 -3.34267 -5.5513 0
M  V30 10586 N 1011.02 1.44971 -0.618145 0
M  V30 10587 C 1011.93 2.34403 0.0960457 0
M  V30 10588 C 1012.95 1.51862 0.849355 0
M  V30 10589 O 1014.12 1.84632 0.804557 0
M  V30 10590 C 1011.19 3.29646 1.07397 0
M  V30 10591 C 1010.25 4.28095 0.321466 0
M  V30 10592 C 1009.48 5.18787 1.25281 0
M  V30 10593 O 1009.7 5.1313 2.49106 0
M  V30 10594 O 1008.64 5.97282 0.744156 0
M  V30 10595 H 1012.46 2.96898 -0.639176 0
M  V30 10596 H 1010.05 1.44529 -0.37837 0
M  V30 10597 H 1011.93 3.88307 1.63694 0
M  V30 10598 H 1010.61 2.69702 1.79004 0
M  V30 10599 H 1009.51 3.73019 -0.284223 0
M  V30 10600 H 1010.85 4.90923 -0.354315 0
M  V30 10601 N 1012.5 0.357919 1.53482 0
M  V30 10602 C 1013.43 -0.484231 2.28424 0
M  V30 10603 C 1014.41 -1.09046 1.30548 0
M  V30 10604 O 1015.59 -1.10916 1.59409 0
M  V30 10605 C 1012.72 -1.62803 3.06778 0
M  V30 10606 C 1011.68 -1.14943 4.12277 0
M  V30 10607 C 1011 -2.38287 4.78669 0
M  V30 10608 C 1012.3 -0.239627 5.2175 0
M  V30 10609 H 1014 0.140979 2.99068 0
M  V30 10610 H 1011.54 0.069244 1.43833 0
M  V30 10611 H 1013.5 -2.22374 3.57949 0
M  V30 10612 H 1012.22 -2.28036 2.3381 0
M  V30 10613 H 1010.88 -0.576442 3.6204 0
M  V30 10614 H 1010.53 -3.01959 4.02281 0
M  V30 10615 H 1010.23 -2.06939 5.49955 0
M  V30 10616 H 1011.75 -2.98558 5.32631 0
M  V30 10617 H 1013.17 -0.742597 5.6847 0
M  V30 10618 H 1011.56 -0.0173747 6.00097 0
M  V30 10619 H 1012.63 0.720333 4.7952 0
M  V30 10620 N 1013.98 -1.5736 0.0868897 0
M  V30 10621 C 1014.89 -2.17087 -0.889402 0
M  V30 10622 C 1015.9 -1.13809 -1.31619 0
M  V30 10623 O 1017.08 -1.46143 -1.38579 0
M  V30 10624 C 1014.14 -2.73286 -2.13344 0
M  V30 10625 C 1013.2 -3.91491 -1.76164 0
M  V30 10626 C 1012.44 -4.45 -2.94637 0
M  V30 10627 O 1012.66 -3.97467 -4.09116 0
M  V30 10628 O 1011.59 -5.36133 -2.73579 0
M  V30 10629 H 1015.42 -3.00902 -0.411275 0
M  V30 10630 H 1013.01 -1.4877 -0.137015 0
M  V30 10631 H 1014.89 -3.0924 -2.86266 0
M  V30 10632 H 1013.56 -1.92521 -2.60225 0
M  V30 10633 H 1012.47 -3.60363 -1.00447 0
M  V30 10634 H 1013.8 -4.73593 -1.34053 0
M  V30 10635 N 1015.45 0.186762 -1.56489 0
M  V30 10636 C 1016.4 1.23141 -1.95205 0
M  V30 10637 C 1017.37 1.44799 -0.81378 0
M  V30 10638 O 1018.56 1.57795 -1.07263 0
M  V30 10639 C 1015.7 2.56926 -2.30397 0
M  V30 10640 C 1014.81 2.42777 -3.57328 0
M  V30 10641 C 1013.94 3.69323 -3.81804 0
M  V30 10642 C 1012.98 3.50041 -5.02133 0
M  V30 10643 N 1012.12 4.68619 -5.2282 0
M  V30 10644 H 1016.96 0.894256 -2.84266 0
M  V30 10645 H 1014.5 0.430187 -1.40669 0
M  V30 10646 H 1016.46 3.3488 -2.4882 0
M  V30 10647 H 1015.09 2.88668 -1.44466 0
M  V30 10648 H 1014.14 1.56078 -3.46906 0
M  V30 10649 H 1015.45 2.24468 -4.45439 0
M  V30 10650 H 1014.6 4.55715 -4.00511 0
M  V30 10651 H 1013.34 3.90595 -2.92039 0
M  V30 10652 H 1012.35 2.62034 -4.8334 0
M  V30 10653 H 1013.57 3.30206 -5.93414 0
M  V30 10654 H 1011.52 4.90139 -4.36005 0
M  V30 10655 H 1011.44 4.53165 -6.05126 0
M  V30 10656 H 1012.7 5.56338 -5.45993 0
M  V30 10657 N 1016.93 1.50896 0.454776 0
M  V30 10658 C 1017.88 1.67333 1.54867 0
M  V30 10659 C 1018.87 0.527576 1.52005 0
M  V30 10660 O 1020.06 0.782726 1.58753 0
M  V30 10661 C 1017.19 1.7858 2.93196 0
M  V30 10662 C 1016.27 2.98884 3.0088 0
M  V30 10663 N 1016.66 4.22326 2.78343 0
M  V30 10664 C 1014.96 2.97779 3.32029 0
M  V30 10665 C 1015.66 5.03439 2.91418 0
M  V30 10666 N 1014.64 4.37725 3.22332 0
M  V30 10667 H 1018.44 2.60453 1.36167 0
M  V30 10668 H 1015.96 1.48304 0.661797 0
M  V30 10669 H 1017.95 1.88463 3.7187 0
M  V30 10670 H 1016.61 0.866296 3.1293 0
M  V30 10671 H 1017.62 4.51557 2.53607 0
M  V30 10672 H 1014.3 2.15393 3.57648 0
M  V30 10673 H 1015.69 6.11648 2.78095 0
M  V30 10674 N 1018.41 -0.709066 1.40748 0
M  V30 10675 C 1019.64 -1.50313 1.42901 0
M  V30 10676 C 1020.06 -1.88072 0.032213 0
M  V30 10677 O 1019.42 -1.53716 -0.96131 0
M  V30 10678 C 1019.47 -2.75074 2.33166 0
M  V30 10679 O 1018.57 -3.72036 1.7794 0
M  V30 10680 H 1017.91 -0.452934 0.485538 0
M  V30 10681 H 1020.44 -0.872712 1.85054 0
M  V30 10682 H 1020.45 -3.23532 2.48578 0
M  V30 10683 H 1019.13 -2.46927 3.34664 0
M  V30 10684 H 1017.7 -3.30911 1.71908 0
M  V30 10685 N 1019.89 -1.26353 -0.941956 0
M  V30 10686 C 1020.82 -1.10341 -2.05784 0
M  V30 10687 C 1021.8 -0.00881565 -1.70098 0
M  V30 10688 O 1022.99 -0.180699 -1.93357 0
M  V30 10689 C 1020.12 -0.734788 -3.39438 0
M  V30 10690 C 1019.07 -1.78103 -3.89183 0
M  V30 10691 C 1018.4 -1.26675 -5.19478 0
M  V30 10692 C 1019.7 -3.1824 -4.14151 0
M  V30 10693 H 1021.39 -2.03684 -2.19438 0
M  V30 10694 H 1018.94 -0.980698 -1.05443 0
M  V30 10695 H 1020.89 -0.609653 -4.16967 0
M  V30 10696 H 1019.61 0.234354 -3.25758 0
M  V30 10697 H 1018.27 -1.89482 -3.13835 0
M  V30 10698 H 1017.92 -0.287472 -5.02178 0
M  V30 10699 H 1017.62 -1.96612 -5.53731 0
M  V30 10700 H 1019.14 -1.15427 -5.99591 0
M  V30 10701 H 1020.56 -3.09942 -4.82296 0
M  V30 10702 H 1018.95 -3.8576 -4.59684 0
M  V30 10703 H 1020.02 -3.64354 -3.19959 0
M  V30 10704 N 1021.37 1.14642 -1.08144 0
M  V30 10705 C 1022.59 1.90025 -0.830972 0
M  V30 10706 C 1023.02 1.77904 0.610879 0
M  V30 10707 O 1022.38 1.11735 1.42776 0
M  V30 10708 C 1022.42 3.38085 -1.25422 0
M  V30 10709 O 1021.53 4.10412 -0.404486 0
M  V30 10710 H 1020.87 0.591327 -0.302041 0
M  V30 10711 H 1023.4 1.4513 -1.44216 0
M  V30 10712 H 1023.41 3.88894 -1.23391 0
M  V30 10713 H 1022.08 3.46226 -2.30435 0
M  V30 10714 H 1020.66 3.69693 -0.487987 0
M  V30 10715 N 1022.85 0.866709 1.31628 0
M  V30 10716 C 1024.26 0.558188 1.49521 0
M  V30 10717 C 1024.46 -0.90844 1.7986 0
M  V30 10718 O 1023.52 -1.6908 1.87531 0
M  V30 10719 C 1024.83 1.45559 2.63122 0
M  V30 10720 C 1026.38 1.45728 2.77006 0
M  V30 10721 C 1026.85 2.34017 3.937 0
M  V30 10722 N 1028.34 2.31879 4.00982 0
M  V30 10723 C 1029.08 2.96915 4.90539 0
M  V30 10724 N 1028.58 3.71109 5.85021 0
M  V30 10725 N 1030.37 2.86241 4.83759 0
M  V30 10726 H 1022.52 1.81574 1.10203 0
M  V30 10727 H 1024.78 0.77621 0.544244 0
M  V30 10728 H 1024.49 2.49904 2.47469 0
M  V30 10729 H 1024.36 1.15174 3.59186 0
M  V30 10730 H 1026.75 0.421419 2.92075 0
M  V30 10731 H 1026.83 1.80134 1.81619 0
M  V30 10732 H 1026.47 3.37678 3.79389 0
M  V30 10733 H 1026.4 1.96937 4.88388 0
M  V30 10734 H 1028.9 1.77948 3.33381 0
M  V30 10735 H 1029.21 4.1787 6.5008 0
M  V30 10736 H 1027.55 3.75217 5.8501 0
M  V30 10737 H 1030.74 2.27819 4.08921 0
M  V30 10738 H 1030.92 3.37206 5.5335 0
M  V30 10739 N 1024.32 -1.44642 0.625825 0
M  V30 10740 C 1025.57 -2.02393 0.128391 0
M  V30 10741 C 1025.9 -1.49075 -1.2446 0
M  V30 10742 O 1025.18 -0.672684 -1.82497 0
M  V30 10743 C 1025.46 -3.59934 0.109279 0
M  V30 10744 C 1025.31 -4.23546 1.51423 0
M  V30 10745 C 1026.63 -4.36406 -0.568985 0
M  V30 10746 H 1023.75 -0.735427 0.0481299 0
M  V30 10747 H 1026.39 -1.72277 0.801286 0
M  V30 10748 H 1024.54 -3.85722 -0.463726 0
M  V30 10749 H 1026.22 -4.08882 2.13572 0
M  V30 10750 H 1024.46 -3.81245 2.06966 0
M  V30 10751 H 1025.13 -5.32535 1.45294 0
M  V30 10752 H 1027.61 -4.1602 -0.0817516 0
M  V30 10753 H 1026.48 -5.46122 -0.551527 0
M  V30 10754 H 1026.74 -4.1062 -1.6384 0
M  V30 10755 N 1025.8 -0.366053 -1.5329 0
M  V30 10756 C 1027.05 0.224614 -2.00445 0
M  V30 10757 C 1027.36 1.49829 -1.2574 0
M  V30 10758 O 1028.57 2.16759 -1.63487 0
M  V30 10759 C 1027.03 0.450818 -3.57065 0
M  V30 10760 C 1026.63 -0.808257 -4.40649 0
M  V30 10761 C 1028.38 0.999116 -4.12575 0
M  V30 10762 C 1026.28 -0.551612 -5.88822 0
M  V30 10763 H 1025.21 0.0877114 -0.748881 0
M  V30 10764 H 1027.87 -0.484866 -1.76978 0
M  V30 10765 H 1026.25 1.22157 -3.76688 0
M  V30 10766 H 1027.42 -1.58184 -4.32798 0
M  V30 10767 H 1025.74 -1.27981 -3.96245 0
M  V30 10768 H 1028.33 1.20646 -5.20911 0
M  V30 10769 H 1028.68 1.96139 -3.67199 0
M  V30 10770 H 1029.21 0.288518 -3.96752 0
M  V30 10771 H 1025.95 -1.48423 -6.38475 0
M  V30 10772 H 1025.47 0.183462 -5.99519 0
M  V30 10773 H 1027.15 -0.177307 -6.46757 0
M  V30 10774 N 1027.28 1.57312 -0.0952337 0
M  V30 10775 C 1028.52 1.96239 0.571813 0
M  V30 10776 C 1028.88 0.97602 1.65342 0
M  V30 10777 O 1030.08 1.25379 2.37768 0
M  V30 10778 C 1028.36 3.39644 1.1125 0
M  V30 10779 S 1029.91 4.00568 1.7914 0
M  V30 10780 H 1026.73 0.686081 0.186585 0
M  V30 10781 H 1029.33 1.94718 -0.174669 0
M  V30 10782 H 1028.04 4.09199 0.313796 0
M  V30 10783 H 1027.57 3.44762 1.89481 0
M  V30 10784 H 1029.58 3.89383 3.07563 0
M  V30 10785 N 1028.76 -0.17846 1.56586 0
M  V30 10786 C 1030.03 -0.923096 1.72448 0
M  V30 10787 C 1030.41 -2.00692 0.654659 0
M  V30 10788 O 1029.76 -2.26079 -0.33171 0
M  V30 10789 C 1029.97 -1.49435 3.15389 0
M  V30 10790 C 1031.32 -1.97005 3.76131 0
M  V30 10791 O 1032.34 -1.59244 3.18622 0
M  V30 10792 O 1031.2 -2.66541 4.77094 0
M  V30 10793 H 1028.3 -0.434009 0.703964 0
M  V30 10794 H 1030.84 -0.16685 1.68878 0
M  V30 10795 H 1029.62 -0.713933 3.84732 0
M  V30 10796 H 1029.24 -2.31498 3.23256 0
M  V30 10797 N 1030.24 -1.51135 -0.446768 0
M  V30 10798 C 1031.18 -1.72328 -1.56224 0
M  V30 10799 C 1032.18 -0.589411 -1.58815 0
M  V30 10800 O 1033.38 -0.770554 -1.62673 0
M  V30 10801 H 1029.76 -0.544339 -0.518844 0
M  V30 10802 H 1031.73 -2.65851 -1.3552 0
M  V30 10803 C 1030.48 -1.85686 -2.93966 0
M  V30 10804 H 1029.8 -2.72336 -2.927 0
M  V30 10805 H 1031.24 -2.0453 -3.71407 0
M  V30 10806 C 1029.7 -0.614328 -3.31252 0
M  V30 10807 O 1030.23 0.235369 -4.0101 0
M  V30 10808 N 1028.44 -0.461181 -2.86917 0
M  V30 10809 H 1027.98 -1.15369 -2.30321 0
M  V30 10810 H 1027.94 0.368966 -3.12227 0
M  V30 10811 N 1031.71 0.701592 -1.41122 0
M  V30 10812 C 1032.94 1.49049 -1.43499 0
M  V30 10813 C 1033.36 1.88761 -0.0385684 0
M  V30 10814 O 1032.71 1.56384 0.940755 0
M  V30 10815 C 1032.76 2.7569 -2.33832 0
M  V30 10816 O 1032.49 2.37653 -3.68039 0
M  V30 10817 C 1033.99 3.69479 -2.44949 0
M  V30 10818 H 1031.21 0.459519 -0.488961 0
M  V30 10819 H 1033.75 0.864318 -1.85337 0
M  V30 10820 H 1031.91 3.34559 -1.95318 0
M  V30 10821 H 1032.32 3.19241 -4.16156 0
M  V30 10822 H 1033.79 4.55139 -3.12334 0
M  V30 10823 H 1034.27 4.13553 -1.47887 0
M  V30 10824 H 1034.88 3.16517 -2.84072 0
M  V30 10825 N 1033.19 1.2685 0.935242 0
M  V30 10826 C 1034.44 1.12522 1.67878 0
M  V30 10827 C 1034.76 -0.330894 1.92172 0
M  V30 10828 O 1034.03 -1.23259 1.52263 0
M  V30 10829 H 1032.61 0.413418 0.622169 0
M  V30 10830 H 1035.27 1.59267 1.12339 0
M  V30 10831 H 1034.37 1.64853 2.65009 0
M  V30 10832 N 1034.67 -1.14067 1.0875 0
M  V30 10833 C 1035.6 -2.21385 0.74236 0
M  V30 10834 C 1036.58 -1.67833 -0.276805 0
M  V30 10835 O 1037.77 -1.93647 -0.1464 0
M  V30 10836 C 1034.9 -3.46956 0.154644 0
M  V30 10837 C 1033.85 -4.13555 1.10255 0
M  V30 10838 C 1033.18 -5.3337 0.376877 0
M  V30 10839 C 1034.48 -4.6169 2.44213 0
M  V30 10840 H 1036.17 -2.50512 1.63964 0
M  V30 10841 H 1033.72 -1.20408 0.789807 0
M  V30 10842 H 1035.67 -4.21284 -0.0988419 0
M  V30 10843 H 1034.39 -3.17203 -0.777789 0
M  V30 10844 H 1033.05 -3.41186 1.34119 0
M  V30 10845 H 1032.7 -4.99879 -0.559472 0
M  V30 10846 H 1032.4 -5.78875 1.00884 0
M  V30 10847 H 1033.92 -6.10458 0.131527 0
M  V30 10848 H 1035.34 -5.27475 2.24595 0
M  V30 10849 H 1033.74 -5.17909 3.03134 0
M  V30 10850 H 1034.81 -3.76574 3.05483 0
M  V30 10851 N 1036.15 -0.873678 -1.31166 0
M  V30 10852 C 1037.38 -0.501043 -2.00742 0
M  V30 10853 C 1037.79 0.907477 -1.65561 0
M  V30 10854 O 1037.15 1.59507 -0.886771 0
M  V30 10855 C 1037.2 -0.652877 -3.55556 0
M  V30 10856 O 1036.92 -2.00593 -3.89479 0
M  V30 10857 C 1038.42 -0.281742 -4.42404 0
M  V30 10858 H 1035.64 -0.194829 -0.642092 0
M  V30 10859 H 1038.19 -1.17587 -1.67313 0
M  V30 10860 H 1036.34 -0.0255627 -3.87392 0
M  V30 10861 H 1036.75 -2.01638 -4.84193 0
M  V30 10862 H 1038.23 -0.43892 -5.50252 0
M  V30 10863 H 1038.71 0.779389 -4.32229 0
M  V30 10864 H 1039.31 -0.88491 -4.15992 0
M  V30 10865 N 1037.63 1.44308 -0.633487 0
M  V30 10866 C 1039.04 1.56768 -0.29931 0
M  V30 10867 C 1039.24 1.62061 1.19743 0
M  V30 10868 O 1038.3 1.56492 1.98158 0
M  V30 10869 C 1039.61 2.8382 -0.993307 0
M  V30 10870 C 1041.16 2.97536 -0.971674 0
M  V30 10871 C 1041.63 4.27393 -1.64618 0
M  V30 10872 N 1043.13 4.34212 -1.61288 0
M  V30 10873 C 1043.86 5.33415 -2.1037 0
M  V30 10874 N 1043.36 6.3901 -2.67653 0
M  V30 10875 N 1045.15 5.24939 -2.00985 0
M  V30 10876 H 1037.3 1.39115 -1.60501 0
M  V30 10877 H 1039.56 0.666804 -0.673852 0
M  V30 10878 H 1039.27 2.85902 -2.04823 0
M  V30 10879 H 1039.14 3.73422 -0.532537 0
M  V30 10880 H 1041.53 2.95005 0.0747854 0
M  V30 10881 H 1041.61 2.09276 -1.47096 0
M  V30 10882 H 1041.26 4.30683 -2.6921 0
M  V30 10883 H 1041.19 5.14515 -1.12171 0
M  V30 10884 H 1043.68 3.58519 -1.19468 0
M  V30 10885 H 1043.99 7.10994 -3.02831 0
M  V30 10886 H 1042.33 6.39689 -2.71705 0
M  V30 10887 H 1045.53 4.41357 -1.55953 0
M  V30 10888 H 1045.7 6.02097 -2.39547 0
M  V30 10889 N 1039.1 0.374177 1.53094 0
M  V30 10890 C 1040.35 -0.213131 2.01677 0
M  V30 10891 C 1040.68 -1.47715 1.26071 0
M  V30 10892 O 1039.96 -1.91199 0.356834 0
M  V30 10893 C 1040.24 -0.496392 3.56662 0
M  V30 10894 C 1040.09 0.781859 4.42953 0
M  V30 10895 C 1041.41 -1.29339 4.20666 0
M  V30 10896 H 1038.53 -0.0759885 0.733072 0
M  V30 10897 H 1041.17 0.500765 1.83282 0
M  V30 10898 H 1039.32 -1.10455 3.72467 0
M  V30 10899 H 1041 1.41914 4.38928 0
M  V30 10900 H 1039.24 1.40041 4.10574 0
M  V30 10901 H 1039.91 0.538508 5.49367 0
M  V30 10902 H 1042.39 -0.778848 4.08746 0
M  V30 10903 H 1041.26 -1.46033 5.29118 0
M  V30 10904 H 1041.52 -2.30435 3.77296 0
M  V30 10905 N 1040.58 -1.57259 0.103575 0
M  V30 10906 C 1041.99 -1.81816 -0.424239 0
M  V30 10907 C 1042.34 -1.01976 -1.67617 0
M  V30 10908 O 1041.47 -0.251673 -2.14932 0
M  V30 10909 C 1042.06 -3.29783 -0.776453 0
M  V30 10910 C 1040.62 -3.55074 -1.24897 0
M  V30 10911 C 1039.77 -2.76172 -0.249875 0
M  V30 10912 H 1042.72 -1.55254 0.328913 0
M  V30 10913 H 1042.74 -3.43569 -1.63526 0
M  V30 10914 H 1042.25 -3.87865 0.134906 0
M  V30 10915 H 1040.36 -3.02332 -2.17775 0
M  V30 10916 H 1040.47 -4.637 -1.20495 0
M  V30 10917 H 1038.83 -2.43902 -0.733767 0
M  V30 10918 H 1039.62 -3.37007 0.65431 0
M  V30 10919 N 1042.06 0.170153 -1.56679 0
M  V30 10920 C 1042.99 1.23945 -1.91606 0
M  V30 10921 C 1043.97 1.42725 -0.779004 0
M  V30 10922 O 1045.16 1.57712 -1.03243 0
M  V30 10923 C 1042.28 2.60222 -2.168 0
M  V30 10924 C 1041.33 2.58172 -3.39484 0
M  V30 10925 S 1042.16 2.0714 -4.93815 0
M  V30 10926 C 1043.32 3.45192 -5.22105 0
M  V30 10927 H 1043.55 0.941345 -2.82004 0
M  V30 10928 H 1041.08 0.374771 -1.49783 0
M  V30 10929 H 1043.04 3.38656 -2.31996 0
M  V30 10930 H 1041.7 2.87232 -1.27107 0
M  V30 10931 H 1040.9 3.58435 -3.54317 0
M  V30 10932 H 1040.5 1.87834 -3.2341 0
M  V30 10933 H 1042.79 4.41194 -5.14154 0
M  V30 10934 H 1043.73 3.35233 -6.23718 0
M  V30 10935 H 1044.14 3.41257 -4.49671 0
M  V30 10936 N 1043.54 1.5137 0.438746 0
M  V30 10937 C 1044.82 1.54508 1.19944 0
M  V30 10938 C 1045.2 0.308525 2.08833 0
M  V30 10939 O 1044.54 -0.706461 2.17305 0
M  V30 10940 C 1044.75 2.85833 2.00251 0
M  V30 10941 C 1046.1 3.37729 2.5734 0
M  V30 10942 O 1047.13 2.87374 2.10463 0
M  V30 10943 O 1045.98 4.25589 3.42836 0
M  V30 10944 H 1043.08 0.621132 0.546007 0
M  V30 10945 H 1045.62 1.63682 0.447931 0
M  V30 10946 H 1044.4 3.67291 1.34955 0
M  V30 10947 H 1044.02 2.79815 2.8247 0
M  V30 10948 N 1045.02 -0.694098 1.41492 0
M  V30 10949 C 1045.98 -1.78976 1.43179 0
M  V30 10950 C 1046.98 -1.57539 0.322191 0
M  V30 10951 O 1048.17 -1.64185 0.582138 0
M  V30 10952 C 1045.3 -3.17368 1.2446 0
M  V30 10953 H 1046.49 -1.78874 2.40716 0
M  V30 10954 H 1044.05 -0.901867 1.27656 0
M  V30 10955 H 1044.78 -3.23109 0.277691 0
M  V30 10956 H 1044.57 -3.3433 2.04856 0
M  V30 10957 H 1046.06 -3.97345 1.28479 0
M  V30 10958 N 1046.49 -1.27344 -0.928501 0
M  V30 10959 C 1047.74 -1.13635 -1.6761 0
M  V30 10960 C 1048.07 0.317957 -1.91884 0
M  V30 10961 O 1047.32 1.24904 -1.50657 0
M  V30 10962 C 1047.62 -1.86439 -3.04918 0
M  V30 10963 C 1047.29 -3.36298 -3.00358 0
M  V30 10964 C 1045.95 -3.77173 -2.98821 0
M  V30 10965 C 1048.3 -4.31921 -2.91708 0
M  V30 10966 C 1045.63 -5.12037 -2.86417 0
M  V30 10967 C 1047.98 -5.66841 -2.80846 0
M  V30 10968 C 1046.65 -6.07011 -2.77659 0
M  V30 10969 H 1045.92 -0.415821 -0.61333 0
M  V30 10970 H 1048.56 -1.57943 -1.08288 0
M  V30 10971 H 1046.87 -1.34638 -3.6794 0
M  V30 10972 H 1048.57 -1.73261 -3.61637 0
M  V30 10973 H 1045.16 -3.0379 -3.0234 0
M  V30 10974 H 1049.34 -4.01314 -2.91994 0
M  V30 10975 H 1044.6 -5.42307 -2.82336 0
M  V30 10976 H 1048.77 -6.40608 -2.73119 0
M  V30 10977 H 1046.4 -7.11467 -2.67804 0
M  V30 10978 N 1047.97 1.13488 -1.09353 0
M  V30 10979 C 1048.9 2.18563 -0.69012 0
M  V30 10980 C 1049.92 1.60585 0.267651 0
M  V30 10981 O 1051.11 1.78419 0.0538176 0
M  V30 10982 C 1048.21 3.389 0.00391255 0
M  V30 10983 C 1047.38 4.2639 -0.975209 0
M  V30 10984 C 1046.44 5.25258 -0.314719 0
M  V30 10985 O 1045.46 5.6101 -0.962119 0
M  V30 10986 N 1046.67 5.72978 0.931458 0
M  V30 10987 H 1049.43 2.53788 -1.59411 0
M  V30 10988 H 1046.99 1.28803 -0.980886 0
M  V30 10989 H 1048.98 4.02112 0.45696 0
M  V30 10990 H 1047.55 3.0192 0.81014 0
M  V30 10991 H 1046.77 3.59964 -1.60684 0
M  V30 10992 H 1048.06 4.817 -1.63836 0
M  V30 10993 H 1047.46 5.46078 1.477 0
M  V30 10994 H 1046.02 6.38131 1.32784 0
M  V30 10995 N 1049.45 0.880621 1.30701 0
M  V30 10996 C 1050.7 0.497611 1.966 0
M  V30 10997 C 1051.03 -0.949901 1.69383 0
M  V30 10998 O 1050.31 -1.67054 0.996152 0
M  V30 10999 C 1050.59 0.767919 3.51817 0
M  V30 11000 C 1050.44 2.26574 3.88567 0
M  V30 11001 C 1051.76 0.241502 4.39437 0
M  V30 11002 H 1048.88 0.182267 0.714106 0
M  V30 11003 H 1051.52 1.10382 1.54648 0
M  V30 11004 H 1049.67 0.251967 3.87682 0
M  V30 11005 H 1051.34 2.84977 3.62748 0
M  V30 11006 H 1049.59 2.73411 3.36792 0
M  V30 11007 H 1050.26 2.40549 4.9683 0
M  V30 11008 H 1052.73 0.683051 4.10455 0
M  V30 11009 H 1051.61 0.459997 5.46969 0
M  V30 11010 H 1051.87 -0.857068 4.33713 0
M  V30 11011 N 1050.93 -1.4397 0.641131 0
M  V30 11012 C 1052.18 -2.01548 0.149333 0
M  V30 11013 C 1052.5 -1.50759 -1.23679 0
M  V30 11014 O 1051.77 -0.715257 -1.82376 0
M  V30 11015 H 1050.35 -0.745173 0.0522161 0
M  V30 11016 H 1053.01 -1.7634 0.830082 0
M  V30 11017 H 1052.11 -3.11851 0.124676 0
M  V30 11018 N 1052.41 -0.382291 -1.52893 0
M  V30 11019 C 1053.35 0.456234 -2.26246 0
M  V30 11020 C 1054.32 1.06366 -1.27575 0
M  V30 11021 O 1055.51 1.09301 -1.5639 0
M  V30 11022 C 1052.65 1.5813 -3.06739 0
M  V30 11023 C 1051.76 0.997416 -4.20328 0
M  V30 11024 C 1050.9 2.09296 -4.8823 0
M  V30 11025 C 1049.94 1.4846 -5.93823 0
M  V30 11026 N 1049.07 2.51916 -6.55349 0
M  V30 11027 H 1053.91 -0.175761 -2.97481 0
M  V30 11028 H 1051.45 -0.0985046 -1.4677 0
M  V30 11029 H 1053.41 2.24426 -3.51694 0
M  V30 11030 H 1052.04 2.18371 -2.37727 0
M  V30 11031 H 1051.09 0.224251 -3.79738 0
M  V30 11032 H 1052.4 0.512784 -4.96157 0
M  V30 11033 H 1051.56 2.83377 -5.36453 0
M  V30 11034 H 1050.3 2.61116 -4.1191 0
M  V30 11035 H 1049.3 0.729001 -5.44946 0
M  V30 11036 H 1050.53 0.97443 -6.72073 0
M  V30 11037 H 1048.47 3.02919 -5.81873 0
M  V30 11038 H 1048.39 2.08188 -7.26769 0
M  V30 11039 H 1049.66 3.25649 -7.08218 0
M  V30 11040 N 1053.89 1.57202 -0.111913 0
M  V30 11041 C 1055.13 1.9495 0.547795 0
M  V30 11042 C 1055.46 0.994763 1.67137 0
M  V30 11043 O 1054.72 0.0173528 1.95692 0
M  V30 11044 C 1055.01 3.39152 1.12741 0
M  V30 11045 C 1054.68 4.50724 0.125916 0
M  V30 11046 C 1053.34 4.80968 -0.149489 0
M  V30 11047 C 1055.69 5.18215 -0.556987 0
M  V30 11048 C 1053.02 5.76023 -1.1142 0
M  V30 11049 C 1055.37 6.14307 -1.51029 0
M  V30 11050 C 1054.04 6.42947 -1.79375 0
M  V30 11051 H 1053.31 0.713372 0.200453 0
M  V30 11052 H 1055.96 1.90542 -0.191316 0
M  V30 11053 H 1054.26 3.4022 1.94313 0
M  V30 11054 H 1055.96 3.65668 1.64584 0
M  V30 11055 H 1052.55 4.27162 0.350756 0
M  V30 11056 H 1056.73 4.95012 -0.357378 0
M  V30 11057 H 1051.99 5.9652 -1.34064 0
M  V30 11058 H 1056.16 6.65692 -2.04516 0
M  V30 11059 H 1053.79 7.1641 -2.54284 0
M  V30 11060 N 1055.36 -0.161842 1.56767 0
M  V30 11061 C 1056.77 -0.723385 1.72116 0
M  V30 11062 C 1057.13 -1.82355 0.723961 0
M  V30 11063 O 1056.25 -2.16107 -0.112643 0
M  V30 11064 C 1056.85 -1.31895 3.12072 0
M  V30 11065 C 1055.4 -1.82722 3.29074 0
M  V30 11066 C 1054.55 -0.709863 2.6806 0
M  V30 11067 H 1057.5 0.0636647 1.58572 0
M  V30 11068 H 1057.52 -2.18871 3.11249 0
M  V30 11069 H 1057.04 -0.51801 3.84627 0
M  V30 11070 H 1055.14 -2.6543 2.61491 0
M  V30 11071 H 1055.25 -1.96614 4.36898 0
M  V30 11072 H 1053.61 -1.13273 2.28126 0
M  V30 11073 H 1054.4 0.0793884 3.43208 0
M  V30 11074 N 1056.84 -1.516 -0.430713 0
M  V30 11075 C 1057.75 -1.76247 -1.54836 0
M  V30 11076 C 1058.77 -0.646985 -1.61524 0
M  V30 11077 O 1059.94 -0.929987 -1.78643 0
M  V30 11078 C 1057.01 -1.88833 -2.90763 0
M  V30 11079 C 1056.07 -3.12701 -2.94137 0
M  V30 11080 C 1055.3 -3.24676 -4.23581 0
M  V30 11081 O 1055.53 -2.42429 -5.16318 0
M  V30 11082 O 1054.46 -4.17697 -4.33374 0
M  V30 11083 H 1058.29 -2.71069 -1.3695 0
M  V30 11084 H 1055.87 -1.36182 -0.614396 0
M  V30 11085 H 1057.75 -1.99057 -3.71422 0
M  V30 11086 H 1056.43 -0.971987 -3.08762 0
M  V30 11087 H 1055.33 -3.0795 -2.1241 0
M  V30 11088 H 1056.67 -4.04045 -2.81084 0
M  V30 11089 N 1058.32 0.686584 -1.41858 0
M  V30 11090 C 1059.6 1.44176 -1.32185 0
M  V30 11091 C 1059.98 2.11049 0.046362 0
M  V30 11092 O 1059.32 2.02365 1.06117 0
M  V30 11093 C 1059.53 2.45385 -2.48168 0
M  V30 11094 C 1060.88 3.10375 -2.89746 0
M  V30 11095 O 1061.91 2.55711 -2.47973 0
M  V30 11096 O 1060.77 4.09404 -3.62009 0
M  V30 11097 H 1057.86 0.642513 -0.520678 0
M  V30 11098 H 1060.41 0.716303 -1.53841 0
M  V30 11099 H 1059.18 1.94687 -3.3943 0
M  V30 11100 H 1058.8 3.25428 -2.28435 0
M  V30 11101 N 1059.8 1.27835 0.921735 0
M  V30 11102 C 1061.04 1.14523 1.67005 0
M  V30 11103 C 1061.37 -0.307776 1.92049 0
M  V30 11104 O 1060.63 -1.24103 1.51317 0
M  V30 11105 C 1060.93 1.88054 3.03925 0
M  V30 11106 C 1060.59 3.37886 2.9857 0
M  V30 11107 C 1059.25 3.78752 2.96817 0
M  V30 11108 C 1061.61 4.33462 2.89414 0
M  V30 11109 C 1058.93 5.13549 2.83698 0
M  V30 11110 C 1061.29 5.68322 2.77836 0
M  V30 11111 C 1059.95 6.08475 2.74436 0
M  V30 11112 H 1059.22 0.419068 0.611116 0
M  V30 11113 H 1061.87 1.58515 1.07449 0
M  V30 11114 H 1060.17 1.36587 3.67221 0
M  V30 11115 H 1061.87 1.75176 3.60714 0
M  V30 11116 H 1058.46 3.05389 3.00725 0
M  V30 11117 H 1062.64 4.02857 2.89862 0
M  V30 11118 H 1057.9 5.43796 2.79456 0
M  V30 11119 H 1062.07 6.42048 2.69717 0
M  V30 11120 H 1059.7 7.12877 2.64027 0
M  V30 11121 N 1061.28 -1.12907 1.09954 0
M  V30 11122 C 1062.19 -2.22082 0.756095 0
M  V30 11123 C 1063.2 -1.72277 -0.244272 0
M  V30 11124 O 1064.38 -2.01224 -0.0842637 0
M  V30 11125 C 1061.44 -3.46192 0.187642 0
M  V30 11126 C 1060.5 -4.10861 1.24465 0
M  V30 11127 C 1059.74 -5.29047 0.703227 0
M  V30 11128 O 1059.96 -5.68443 -0.472043 0
M  V30 11129 O 1058.89 -5.83904 1.46082 0
M  V30 11130 H 1062.72 -2.53842 1.66727 0
M  V30 11131 H 1060.3 -1.21145 0.874316 0
M  V30 11132 H 1062.19 -4.21212 -0.125774 0
M  V30 11133 H 1060.86 -3.16119 -0.696459 0
M  V30 11134 H 1059.77 -3.37643 1.61085 0
M  V30 11135 H 1061.1 -4.45078 2.10159 0
M  V30 11136 N 1062.75 -0.88754 -1.30232 0
M  V30 11137 C 1063.98 -0.521562 -2.00735 0
M  V30 11138 C 1064.4 0.883247 -1.66073 0
M  V30 11139 O 1063.76 1.58581 -0.878731 0
M  V30 11140 C 1063.81 -0.706521 -3.53611 0
M  V30 11141 O 1062.91 0.246447 -4.11663 0
M  V30 11142 H 1062.25 -0.205216 -0.631492 0
M  V30 11143 H 1064.78 -1.19579 -1.66018 0
M  V30 11144 H 1064.79 -0.606501 -4.03467 0
M  V30 11145 H 1063.47 -1.73076 -3.78177 0
M  V30 11146 H 1062.05 0.0999062 -3.72766 0
M  V30 11147 N 1064.23 1.43628 -0.648757 0
M  V30 11148 C 1065.47 2.03742 -0.163878 0
M  V30 11149 C 1065.84 1.50047 1.19791 0
M  V30 11150 O 1067.04 2.01777 1.77594 0
M  V30 11151 C 1065.31 3.57001 -0.168849 0
M  V30 11152 S 1066.87 4.38094 0.248835 0
M  V30 11153 H 1063.69 0.70757 -0.0697515 0
M  V30 11154 H 1066.29 1.75759 -0.856094 0
M  V30 11155 H 1064.99 3.93583 -1.16277 0
M  V30 11156 H 1064.52 3.8962 0.544048 0
M  V30 11157 H 1066.54 4.73338 1.48882 0
M  V30 11158 N 1065.71 0.390394 1.52688 0
M  V30 11159 C 1066.99 -0.249068 1.94008 0
M  V30 11160 C 1067.37 -1.64263 1.32593 0
M  V30 11161 O 1066.72 -2.23086 0.494448 0
M  V30 11162 C 1066.93 -0.274318 3.4792 0
M  V30 11163 C 1068.27 -0.502743 4.21613 0
M  V30 11164 O 1069.3 -0.35448 3.54432 0
M  V30 11165 O 1068.16 -0.79334 5.40711 0
M  V30 11166 H 1065.25 -0.155116 0.812323 0
M  V30 11167 H 1067.8 0.44498 1.63762 0
M  V30 11168 H 1066.57 0.701766 3.84956 0
M  V30 11169 H 1066.19 -1.01324 3.84473 0
M  V30 11170 N 1067.19 -1.57141 0.120249 0
M  V30 11171 C 1068.41 -2.00017 -0.548454 0
M  V30 11172 C 1068.84 -0.999433 -1.59352 0
M  V30 11173 O 1068.2 0.0286978 -1.81277 0
M  V30 11174 C 1068.24 -3.41766 -1.15015 0
M  V30 11175 O 1067.35 -3.44589 -2.26566 0
M  V30 11176 H 1066.69 -0.649739 -0.136875 0
M  V30 11177 H 1069.22 -2.03529 0.209092 0
M  V30 11178 H 1069.23 -3.80001 -1.48537 0
M  V30 11179 H 1067.9 -4.14117 -0.384681 0
M  V30 11180 H 1066.48 -3.18174 -1.94473 0
M  V30 11181 N 1068.67 0.153526 -1.5685 0
M  V30 11182 C 1069.92 0.865628 -1.82181 0
M  V30 11183 C 1070.23 1.82629 -0.700434 0
M  V30 11184 O 1071.43 2.58206 -0.839155 0
M  V30 11185 C 1069.89 1.58993 -3.22877 0
M  V30 11186 C 1069.5 0.672006 -4.42931 0
M  V30 11187 C 1071.24 2.2892 -3.57486 0
M  V30 11188 C 1069.15 1.39755 -5.7465 0
M  V30 11189 H 1068.08 0.326993 -0.679406 0
M  V30 11190 H 1070.73 0.118403 -1.83118 0
M  V30 11191 H 1069.11 2.38255 -3.16308 0
M  V30 11192 H 1070.29 -0.0849226 -4.60722 0
M  V30 11193 H 1068.6 0.0814825 -4.1632 0
M  V30 11194 H 1071.2 2.8383 -4.5315 0
M  V30 11195 H 1071.54 3.05105 -2.83226 0
M  V30 11196 H 1072.07 1.56583 -3.65686 0
M  V30 11197 H 1068.81 0.677686 -6.51987 0
M  V30 11198 H 1068.33 2.12736 -5.60806 0
M  V30 11199 H 1070.01 1.94024 -6.17223 0
M  V30 11200 N 1070.14 1.51827 0.422667 0
M  V30 11201 C 1071.37 1.69049 1.1929 0
M  V30 11202 C 1071.79 0.394095 1.84641 0
M  V30 11203 O 1071.14 -0.628731 1.71328 0
M  V30 11204 C 1071.2 2.81657 2.26609 0
M  V30 11205 O 1070.92 4.06275 1.63929 0
M  V30 11206 C 1072.42 3.10274 3.16615 0
M  V30 11207 H 1069.64 0.566894 0.358988 0
M  V30 11208 H 1072.18 1.98318 0.499029 0
M  V30 11209 H 1070.34 2.54945 2.91688 0
M  V30 11210 H 1070.75 4.68924 2.3497 0
M  V30 11211 H 1072.22 3.92613 3.88019 0
M  V30 11212 H 1072.7 2.23273 3.78214 0
M  V30 11213 H 1073.31 3.387 2.57221 0
M  V30 11214 N 1071.62 -0.679052 1.4222 0
M  V30 11215 C 1072.87 -1.43627 1.42182 0
M  V30 11216 C 1073.19 -1.94964 0.0377095 0
M  V30 11217 O 1072.46 -1.72788 -0.923098 0
M  V30 11218 H 1071.04 -0.532972 0.523402 0
M  V30 11219 H 1073.7 -0.802649 1.77605 0
M  V30 11220 H 1072.8 -2.29137 2.11902 0
M  V30 11221 N 1073.1 -1.28322 -0.914942 0
M  V30 11222 C 1074.03 -1.06469 -2.01841 0
M  V30 11223 C 1075.01 0.0188681 -1.62589 0
M  V30 11224 O 1076.2 -0.128825 -1.88059 0
M  V30 11225 C 1073.32 -0.617685 -3.3302 0
M  V30 11226 C 1072.37 -1.6977 -3.91255 0
M  V30 11227 S 1073.2 -3.29337 -4.22253 0
M  V30 11228 C 1074.36 -2.86468 -5.56495 0
M  V30 11229 H 1074.59 -1.99893 -2.20068 0
M  V30 11230 H 1072.12 -1.12297 -1.05966 0
M  V30 11231 H 1074.08 -0.366481 -4.08861 0
M  V30 11232 H 1072.74 0.296709 -3.12695 0
M  V30 11233 H 1071.94 -1.33653 -4.85956 0
M  V30 11234 H 1071.54 -1.90164 -3.22046 0
M  V30 11235 H 1073.83 -2.32565 -6.36333 0
M  V30 11236 H 1074.77 -3.79962 -5.97523 0
M  V30 11237 H 1075.18 -2.2522 -5.17626 0
M  V30 11238 N 1074.58 1.12322 -1.10551 0
M  V30 11239 C 1075.53 2.20166 -0.750317 0
M  V30 11240 C 1076.52 1.67484 0.254066 0
M  V30 11241 O 1077.73 1.79637 0.114309 0
M  V30 11242 H 1074.1 0.717642 -0.22471 0
M  V30 11243 H 1076.07 2.47378 -1.66873 0
M  V30 11244 C 1074.82 3.47126 -0.199651 0
M  V30 11245 H 1074.14 3.88011 -0.963735 0
M  V30 11246 H 1075.58 4.23999 0.0108033 0
M  V30 11247 C 1074.04 3.19526 1.06792 0
M  V30 11248 O 1074.57 3.39368 2.14923 0
M  V30 11249 N 1072.78 2.73324 0.987032 0
M  V30 11250 H 1072.33 2.57378 0.106997 0
M  V30 11251 H 1072.28 2.55234 1.83584 0
M  V30 11252 N 1076.06 0.894434 1.2976 0
M  V30 11253 C 1076.99 0.3847 2.30309 0
M  V30 11254 C 1077.97 -0.537486 1.61385 0
M  V30 11255 O 1079.15 -0.449332 1.8893 0
M  V30 11256 C 1076.28 -0.393311 3.45066 0
M  V30 11257 C 1075.24 0.437968 4.25753 0
M  V30 11258 C 1074.56 -0.467221 5.32655 0
M  V30 11259 C 1075.86 1.6851 4.9437 0
M  V30 11260 H 1077.56 1.22496 2.73194 0
M  V30 11261 H 1075.1 0.590471 1.31337 0
M  V30 11262 H 1077.06 -0.760614 4.14479 0
M  V30 11263 H 1075.78 -1.2673 3.0101 0
M  V30 11264 H 1074.44 0.787533 3.58041 0
M  V30 11265 H 1074.09 -1.33919 4.84845 0
M  V30 11266 H 1073.79 0.0852482 5.87538 0
M  V30 11267 H 1075.31 -0.830833 6.04921 0
M  V30 11268 H 1076.72 1.38784 5.56248 0
M  V30 11269 H 1075.12 2.17849 5.59162 0
M  V30 11270 H 1076.19 2.42412 4.19958 0
M  V30 11271 N 1077.53 -1.43282 0.656365 0
M  V30 11272 C 1078.44 -2.34576 -0.033864 0
M  V30 11273 C 1079.46 -1.5406 -0.808793 0
M  V30 11274 O 1080.64 -1.867 -0.755322 0
M  V30 11275 C 1077.7 -3.32378 -0.986197 0
M  V30 11276 C 1076.76 -4.28797 -0.207851 0
M  V30 11277 C 1076 -5.21927 -1.11482 0
M  V30 11278 O 1076.22 -5.19554 -2.35414 0
M  V30 11279 O 1075.15 -5.99045 -0.585536 0
M  V30 11280 H 1078.98 -2.95099 0.717668 0
M  V30 11281 H 1076.56 -1.43475 0.416556 0
M  V30 11282 H 1078.45 -3.9251 -1.53341 0
M  V30 11283 H 1077.12 -2.74354 -1.7179 0
M  V30 11284 H 1076.03 -3.72134 0.383022 0
M  V30 11285 H 1077.36 -4.89811 0.48435 0
M  V30 11286 N 1079.01 -0.398486 -1.52479 0
M  V30 11287 C 1079.98 0.420206 -2.25315 0
M  V30 11288 C 1080.98 0.982559 -1.27289 0
M  V30 11289 O 1082.17 0.863113 -1.51314 0
M  V30 11290 C 1079.3 1.59045 -3.01525 0
M  V30 11291 H 1080.49 -0.217599 -2.9911 0
M  V30 11292 H 1078.04 -0.150784 -1.55571 0
M  V30 11293 H 1078.78 2.26542 -2.32054 0
M  V30 11294 H 1078.56 1.19382 -3.73484 0
M  V30 11295 H 1080.05 2.16984 -3.56802 0
M  V30 11296 N 1080.49 1.57075 -0.12858 0
M  V30 11297 C 1081.74 1.96599 0.52157 0
M  V30 11298 C 1082.09 1.01134 1.63675 0
M  V30 11299 O 1081.39 0.043056 1.91552 0
M  V30 11300 C 1081.58 3.40329 1.09138 0
M  V30 11301 C 1081.41 4.49688 0.0329296 0
M  V30 11302 C 1080.18 5.03697 -0.402184 0
M  V30 11303 C 1082.38 5.08778 -0.75166 0
M  V30 11304 N 1080.36 5.96642 -1.4454 0
M  V30 11305 C 1081.73 5.97756 -1.64583 0
M  V30 11306 C 1083.78 4.91407 -0.801489 0
M  V30 11307 C 1082.49 6.71225 -2.58552 0
M  V30 11308 C 1084.51 5.65564 -1.72892 0
M  V30 11309 C 1083.88 6.54236 -2.61065 0
M  V30 11310 H 1079.97 0.765414 0.160202 0
M  V30 11311 H 1082.56 1.93465 -0.218919 0
M  V30 11312 H 1080.73 3.44091 1.80155 0
M  V30 11313 H 1082.46 3.66955 1.70663 0
M  V30 11314 H 1079.22 4.73599 -0.00794396 0
M  V30 11315 H 1079.64 6.47819 -1.96622 0
M  V30 11316 H 1084.28 4.22588 -0.133909 0
M  V30 11317 H 1082 7.39285 -3.26319 0
M  V30 11318 H 1085.59 5.54125 -1.77304 0
M  V30 11319 H 1084.47 7.10612 -3.31662 0
M  V30 11320 N 1081.97 -0.145205 1.5693 0
M  V30 11321 C 1083.39 -0.497905 1.51635 0
M  V30 11322 C 1083.59 -1.8328 0.837301 0
M  V30 11323 O 1082.64 -2.49172 0.408584 0
M  V30 11324 C 1083.95 -0.506557 2.96403 0
M  V30 11325 C 1085.5 -0.591947 3.07352 0
M  V30 11326 C 1085.98 -0.631244 4.53629 0
M  V30 11327 N 1087.47 -0.693417 4.5798 0
M  V30 11328 C 1088.2 -0.744836 5.68542 0
M  V30 11329 N 1087.7 -0.755492 6.88668 0
M  V30 11330 N 1089.49 -0.785854 5.5658 0
M  V30 11331 H 1081.64 0.729779 1.99469 0
M  V30 11332 H 1083.91 0.266295 0.90983 0
M  V30 11333 H 1083.61 0.406127 3.49347 0
M  V30 11334 H 1083.49 -1.34383 3.5245 0
M  V30 11335 H 1085.87 -1.49505 2.54425 0
M  V30 11336 H 1085.95 0.272507 2.54344 0
M  V30 11337 H 1085.6 0.26771 5.07194 0
M  V30 11338 H 1085.53 -1.51221 5.0442 0
M  V30 11339 H 1088.02 -0.692408 3.71503 0
M  V30 11340 H 1088.33 -0.796624 7.68683 0
M  V30 11341 H 1086.68 -0.723339 6.91226 0
M  V30 11342 H 1089.87 -0.774712 4.61645 0
M  V30 11343 H 1090.04 -0.822461 6.42759 0
M  V30 11344 N 1083.45 -1.52049 -0.414609 0
M  V30 11345 C 1084.36 -1.7788 -1.52958 0
M  V30 11346 C 1085.37 -0.66408 -1.60829 0
M  V30 11347 O 1086.55 -0.948882 -1.77646 0
M  V30 11348 C 1083.61 -1.91906 -2.88744 0
M  V30 11349 C 1082.68 -3.15803 -2.90804 0
M  V30 11350 C 1081.91 -3.29151 -4.20114 0
M  V30 11351 O 1082.13 -2.47892 -5.13718 0
M  V30 11352 O 1081.07 -4.2227 -4.28919 0
M  V30 11353 H 1084.89 -2.72506 -1.34067 0
M  V30 11354 H 1082.48 -1.36826 -0.599918 0
M  V30 11355 H 1084.36 -2.02986 -3.6929 0
M  V30 11356 H 1083.03 -1.00468 -3.07714 0
M  V30 11357 H 1081.94 -3.10185 -2.09131 0
M  V30 11358 H 1083.27 -4.07004 -2.76783 0
M  V30 11359 N 1084.93 0.6715 -1.42579 0
M  V30 11360 C 1086.15 1.45972 -1.46628 0
M  V30 11361 C 1086.57 1.88636 -0.0785986 0
M  V30 11362 O 1085.93 1.58345 0.907372 0
M  V30 11363 C 1085.98 2.70668 -2.39627 0
M  V30 11364 O 1085.7 2.29793 -3.72997 0
M  V30 11365 C 1087.2 3.64201 -2.52731 0
M  V30 11366 H 1084.42 0.449044 -0.498598 0
M  V30 11367 H 1086.96 0.824811 -1.87129 0
M  V30 11368 H 1085.12 3.3034 -2.02371 0
M  V30 11369 H 1085.53 3.10341 -4.22834 0
M  V30 11370 H 1087.01 4.48412 -3.21918 0
M  V30 11371 H 1087.48 4.10323 -1.56626 0
M  V30 11372 H 1088.09 3.1042 -2.90722 0
M  V30 11373 N 1086.4 1.28806 0.908124 0
M  V30 11374 C 1087.65 1.16287 1.65781 0
M  V30 11375 C 1087.98 -0.287389 1.92365 0
M  V30 11376 O 1087.23 -1.22491 1.52625 0
M  V30 11377 C 1087.53 1.91267 3.01914 0
M  V30 11378 C 1087.2 3.41033 2.9497 0
M  V30 11379 C 1085.86 3.81879 2.92783 0
M  V30 11380 C 1088.21 4.36507 2.848 0
M  V30 11381 C 1085.54 5.16529 2.78235 0
M  V30 11382 C 1087.89 5.71237 2.71792 0
M  V30 11383 C 1086.56 6.11351 2.67967 0
M  V30 11384 H 1085.83 0.425526 0.606637 0
M  V30 11385 H 1088.47 1.59646 1.05762 0
M  V30 11386 H 1086.78 1.40474 3.65752 0
M  V30 11387 H 1088.48 1.78992 3.58835 0
M  V30 11388 H 1085.07 3.08561 2.97469 0
M  V30 11389 H 1089.25 4.05909 2.85573 0
M  V30 11390 H 1084.51 5.4673 2.73672 0
M  V30 11391 H 1088.68 6.44872 2.62892 0
M  V30 11392 H 1086.31 7.15637 2.56451 0
M  V30 11393 N 1087.88 -1.11734 1.11145 0
M  V30 11394 C 1089.29 -1.64928 0.874959 0
M  V30 11395 C 1089.64 -1.87012 -0.593375 0
M  V30 11396 O 1088.77 -1.60206 -1.45475 0
M  V30 11397 C 1089.36 -2.99608 1.58178 0
M  V30 11398 C 1087.92 -3.49723 1.39179 0
M  V30 11399 C 1087.07 -2.24595 1.62642 0
M  V30 11400 H 1090.02 -0.954154 1.26813 0
M  V30 11401 H 1090.04 -3.66434 1.02501 0
M  V30 11402 H 1089.55 -2.83504 2.65042 0
M  V30 11403 H 1087.65 -3.70998 0.345111 0
M  V30 11404 H 1087.77 -4.28711 2.13878 0
M  V30 11405 H 1086.13 -2.32067 1.04961 0
M  V30 11406 H 1086.91 -2.11036 2.70774 0
M  V30 11407 N 1089.36 -0.901303 -1.29284 0
M  V30 11408 C 1090.29 -0.337552 -2.26701 0
M  V30 11409 C 1091.3 0.517039 -1.54371 0
M  V30 11410 O 1092.49 0.333937 -1.75349 0
M  V30 11411 C 1089.59 0.537214 -3.34615 0
M  V30 11412 C 1088.77 -0.292017 -4.36424 0
M  V30 11413 C 1087.83 0.515837 -5.23666 0
M  V30 11414 O 1086.85 -0.0672303 -5.6916 0
M  V30 11415 N 1088.05 1.82159 -5.51179 0
M  V30 11416 H 1090.82 -1.17484 -2.75713 0
M  V30 11417 H 1088.38 -0.765957 -1.42635 0
M  V30 11418 H 1090.37 1.0841 -3.8991 0
M  V30 11419 H 1088.94 1.2752 -2.85408 0
M  V30 11420 H 1088.16 -1.02031 -3.80767 0
M  V30 11421 H 1089.45 -0.859855 -5.01482 0
M  V30 11422 H 1088.85 2.318 -5.16028 0
M  V30 11423 H 1087.4 2.31556 -6.09282 0
M  V30 11424 N 1090.84 1.42931 -0.663954 0
M  V30 11425 C 1092.11 1.95284 -0.111174 0
M  V30 11426 C 1092.49 1.60484 1.37142 0
M  V30 11427 O 1091.84 0.895425 2.10225 0
M  V30 11428 C 1092.05 3.47046 -0.368789 0
M  V30 11429 C 1093.4 4.23679 -0.279473 0
M  V30 11430 O 1094.42 3.54918 -0.301937 0
M  V30 11431 O 1093.28 5.46087 -0.21236 0
M  V30 11432 H 1090.38 0.826993 0.00341718 0
M  V30 11433 H 1092.92 1.52816 -0.737935 0
M  V30 11434 H 1091.7 3.65541 -1.39626 0
M  V30 11435 H 1091.32 3.96537 0.290514 0
M  V30 11436 N 1092.32 0.406567 1.52266 0
M  V30 11437 C 1093.59 -0.228477 1.94261 0
M  V30 11438 C 1093.97 -1.62848 1.34328 0
M  V30 11439 O 1093.32 -2.22549 0.518082 0
M  V30 11440 C 1093.53 -0.237401 3.48192 0
M  V30 11441 C 1094.88 -0.457997 4.22123 0
M  V30 11442 O 1095.9 -0.316868 3.54788 0
M  V30 11443 O 1094.76 -0.735946 5.41522 0
M  V30 11444 H 1091.86 -0.146492 0.813922 0
M  V30 11445 H 1094.4 0.462325 1.63281 0
M  V30 11446 H 1093.17 0.742556 3.8419 0
M  V30 11447 H 1092.8 -0.972408 3.85526 0
M  V30 11448 N 1093.79 -1.57004 0.136909 0
M  V30 11449 C 1094.74 -2.16246 -0.806607 0
M  V30 11450 C 1095.71 -1.09246 -1.25118 0
M  V30 11451 O 1096.9 -1.3724 -1.32551 0
M  V30 11452 C 1094.04 -2.78031 -2.04433 0
M  V30 11453 C 1093.15 -3.99393 -1.64649 0
M  V30 11454 C 1092.28 -4.49208 -2.83524 0
M  V30 11455 C 1091.32 -5.63059 -2.40064 0
M  V30 11456 N 1090.46 -6.07537 -3.51913 0
M  V30 11457 H 1095.3 -2.9654 -0.294596 0
M  V30 11458 H 1092.84 -1.46491 -0.133705 0
M  V30 11459 H 1094.8 -3.11992 -2.76978 0
M  V30 11460 H 1093.43 -2.00398 -2.53062 0
M  V30 11461 H 1092.48 -3.71477 -0.819077 0
M  V30 11462 H 1093.79 -4.81904 -1.28723 0
M  V30 11463 H 1092.94 -4.85171 -3.64271 0
M  V30 11464 H 1091.68 -3.65683 -3.22688 0
M  V30 11465 H 1090.69 -5.26682 -1.57754 0
M  V30 11466 H 1091.91 -6.48362 -2.01997 0
M  V30 11467 H 1089.86 -5.2695 -3.90717 0
M  V30 11468 H 1089.78 -6.84949 -3.1997 0
M  V30 11469 H 1091.04 -6.48143 -4.33048 0
M  V30 11470 N 1095.27 0.136881 -1.57004 0
M  V30 11471 C 1096.51 0.853873 -1.8571 0
M  V30 11472 C 1096.88 1.77885 -0.722556 0
M  V30 11473 O 1098.08 2.53606 -0.89092 0
M  V30 11474 C 1096.35 1.59935 -3.19618 0
M  V30 11475 S 1097.91 2.36038 -3.69908 0
M  V30 11476 H 1094.73 0.285342 -0.65123 0
M  V30 11477 H 1097.33 0.113254 -1.95172 0
M  V30 11478 H 1096.03 0.91148 -4.0015 0
M  V30 11479 H 1095.56 2.38069 -3.13188 0
M  V30 11480 H 1097.58 3.61425 -3.3998 0
M  V30 11481 N 1096.75 1.52266 0.40654 0
M  V30 11482 C 1098 1.66123 1.15097 0
M  V30 11483 C 1098.32 0.394836 1.90961 0
M  V30 11484 O 1097.59 -0.590349 1.86793 0
M  V30 11485 H 1096.17 0.612317 0.427875 0
M  V30 11486 H 1098.83 1.89318 0.463106 0
M  V30 11487 H 1097.93 2.50351 1.86361 0
M  V30 11488 N 1098.23 -0.663929 1.42933 0
M  V30 11489 C 1099.48 -1.42393 1.43981 0
M  V30 11490 C 1099.8 -1.94407 0.0601802 0
M  V30 11491 O 1099.06 -1.72019 -0.933172 0
M  V30 11492 C 1099.36 -2.62976 2.4203 0
M  V30 11493 C 1099.02 -2.29441 3.88159 0
M  V30 11494 C 1097.69 -2.20007 4.27961 0
M  V30 11495 C 1100.04 -2.02413 4.8029 0
M  V30 11496 C 1097.37 -1.81686 5.57859 0
M  V30 11497 C 1099.72 -1.65592 6.10542 0
M  V30 11498 C 1098.38 -1.54676 6.49332 0
M  V30 11499 H 1097.65 -0.521051 0.526865 0
M  V30 11500 H 1100.3 -0.756042 1.75944 0
M  V30 11501 H 1098.6 -3.34847 2.03433 0
M  V30 11502 H 1100.3 -3.21174 2.40101 0
M  V30 11503 H 1096.89 -2.3769 3.56653 0
M  V30 11504 H 1101.07 -2.08628 4.5032 0
M  V30 11505 H 1096.33 -1.71812 5.86763 0
M  V30 11506 H 1100.5 -1.43707 6.81411 0
M  V30 11507 H 1098.13 -1.24752 7.49894 0
M  V30 11508 N 1099.71 -1.29285 -0.901281 0
M  V30 11509 C 1101.12 -1.15499 -1.46686 0
M  V30 11510 C 1101.47 0.250446 -1.94595 0
M  V30 11511 O 1100.59 1.14581 -1.83576 0
M  V30 11512 C 1101.19 -2.0906 -2.66607 0
M  V30 11513 C 1099.75 -1.99301 -3.19306 0
M  V30 11514 C 1098.89 -2.00079 -1.91999 0
M  V30 11515 H 1101.85 -1.41793 -0.712773 0
M  V30 11516 H 1101.87 -1.6619 -3.42288 0
M  V30 11517 H 1101.38 -3.11341 -2.31707 0
M  V30 11518 H 1099.48 -1.00103 -3.58901 0
M  V30 11519 H 1099.59 -2.86885 -3.8371 0
M  V30 11520 H 1097.96 -1.44655 -2.09636 0
M  V30 11521 H 1098.74 -3.04061 -1.59379 0
M  V30 11522 N 1101.18 1.11143 -1.11736 0
M  V30 11523 C 1102.09 2.20851 -0.791331 0
M  V30 11524 C 1103.11 1.72644 0.216833 0
M  V30 11525 O 1104.29 2.01332 0.0522401 0
M  V30 11526 C 1101.35 3.4585 -0.242694 0
M  V30 11527 C 1100.41 4.08829 -1.30986 0
M  V30 11528 C 1099.65 5.27861 -0.787305 0
M  V30 11529 O 1099.87 5.69122 0.381549 0
M  V30 11530 O 1098.8 5.81506 -1.55352 0
M  V30 11531 H 1102.63 2.51158 -1.70744 0
M  V30 11532 H 1100.21 1.19739 -0.893478 0
M  V30 11533 H 1102.1 4.21359 0.0587472 0
M  V30 11534 H 1100.77 3.17187 0.646079 0
M  V30 11535 H 1099.68 3.35037 -1.66436 0
M  V30 11536 H 1101.01 4.41678 -2.17213 0
M  V30 11537 N 1102.66 0.908147 1.28804 0
M  V30 11538 C 1103.89 0.553431 1.9988 0
M  V30 11539 C 1104.31 -0.856714 1.67458 0
M  V30 11540 O 1103.67 -1.57163 0.903849 0
M  V30 11541 C 1103.72 0.762688 3.52442 0
M  V30 11542 O 1102.82 -0.180924 4.12003 0
M  V30 11543 H 1102.16 0.215237 0.628147 0
M  V30 11544 H 1104.69 1.22205 1.64095 0
M  V30 11545 H 1104.7 0.670612 4.02451 0
M  V30 11546 H 1103.38 1.79071 3.75375 0
M  V30 11547 H 1101.96 -0.0405897 3.72878 0
M  V30 11548 N 1104.14 -1.42577 0.671525 0
M  V30 11549 C 1105.39 -2.01882 0.192716 0
M  V30 11550 C 1105.72 -1.52959 -1.19654 0
M  V30 11551 O 1104.99 -0.730404 -1.80265 0
M  V30 11552 C 1105.28 -3.59404 0.223734 0
M  V30 11553 C 1105.13 -4.18514 1.64821 0
M  V30 11554 C 1106.45 -4.37996 -0.429858 0
M  V30 11555 H 1103.57 -0.733523 0.0715026 0
M  V30 11556 H 1106.21 -1.69641 0.855689 0
M  V30 11557 H 1104.36 -3.87003 -0.340776 0
M  V30 11558 H 1106.03 -4.01881 2.26472 0
M  V30 11559 H 1104.28 -3.74467 2.1899 0
M  V30 11560 H 1104.95 -5.27643 1.62162 0
M  V30 11561 H 1107.42 -4.16069 0.0506433 0
M  V30 11562 H 1106.3 -5.476 -0.377503 0
M  V30 11563 H 1106.56 -4.15625 -1.50693 0
M  V30 11564 N 1105.62 -0.414636 -1.52048 0
M  V30 11565 C 1106.53 0.414861 -2.30903 0
M  V30 11566 C 1107.54 1.04855 -1.38858 0
M  V30 11567 O 1108.72 1.04886 -1.71933 0
M  V30 11568 C 1105.79 1.51356 -3.11917 0
M  V30 11569 C 1104.85 0.902359 -4.19709 0
M  V30 11570 C 1104.08 1.9487 -4.96852 0
M  V30 11571 O 1104.3 3.16766 -4.74358 0
M  V30 11572 O 1103.24 1.55186 -5.8155 0
M  V30 11573 H 1107.06 -0.228251 -3.02841 0
M  V30 11574 H 1104.65 -0.177704 -1.48339 0
M  V30 11575 H 1106.53 2.15127 -3.62351 0
M  V30 11576 H 1105.2 2.14117 -2.42767 0
M  V30 11577 H 1104.11 0.22721 -3.73409 0
M  V30 11578 H 1105.44 0.318587 -4.91168 0
M  V30 11579 N 1107.1 1.56929 -0.145233 0
M  V30 11580 C 1108.04 2.17958 0.812237 0
M  V30 11581 C 1109.04 1.13608 1.25657 0
M  V30 11582 O 1110.24 1.31861 1.22526 0
M  V30 11583 H 1106.62 0.697876 0.28013 0
M  V30 11584 H 1108.59 2.97146 0.273297 0
M  V30 11585 C 1107.34 2.81418 2.04203 0
M  V30 11586 H 1106.66 3.61427 1.70911 0
M  V30 11587 H 1108.1 3.27624 2.69144 0
M  V30 11588 C 1106.56 1.79835 2.84888 0
M  V30 11589 O 1107.09 1.26773 3.81171 0
M  V30 11590 N 1105.3 1.49179 2.49387 0
M  V30 11591 H 1104.84 1.9252 1.71154 0
M  V30 11592 H 1104.8 0.81458 3.03664 0
M  V30 11593 N 1108.58 -0.128553 1.57075 0
M  V30 11594 C 1109.82 -0.836355 1.83982 0
M  V30 11595 C 1110.14 -1.80862 0.728971 0
M  V30 11596 O 1109.41 -1.94326 -0.247859 0
M  V30 11597 H 1107.99 -0.31185 0.678792 0
M  V30 11598 H 1110.66 -0.118153 1.94542 0
M  V30 11599 H 1109.75 -1.38741 2.79567 0
M  V30 11600 N 1110.05 -1.5248 -0.398459 0
M  V30 11601 C 1111.33 -1.57634 -1.15805 0
M  V30 11602 C 1111.71 -0.363785 -2.07942 0
M  V30 11603 O 1111.06 0.648598 -2.19101 0
M  V30 11604 C 1111.27 -2.91042 -1.92602 0
M  V30 11605 C 1112.62 -3.44433 -2.48296 0
M  V30 11606 O 1113.64 -2.92853 -2.0277 0
M  V30 11607 O 1112.5 -4.34529 -3.31432 0
M  V30 11608 H 1109.59 -0.63539 -0.529347 0
M  V30 11609 H 1112.14 -1.64812 -0.404376 0
M  V30 11610 H 1110.91 -3.7074 -1.25169 0
M  V30 11611 H 1110.53 -2.87206 -2.74952 0
M  V30 11612 N 1111.53 0.65634 -1.43283 0
M  V30 11613 C 1112.78 1.41627 -1.44734 0
M  V30 11614 C 1113.11 1.94372 -0.0704893 0
M  V30 11615 O 1112.36 1.72511 0.924037 0
M  V30 11616 C 1112.66 2.61688 -2.43421 0
M  V30 11617 C 1112.33 2.2738 -3.8937 0
M  V30 11618 C 1110.99 2.17735 -4.29121 0
M  V30 11619 C 1113.34 1.99863 -4.81357 0
M  V30 11620 C 1110.67 1.78725 -5.58815 0
M  V30 11621 C 1113.02 1.62352 -6.11412 0
M  V30 11622 C 1111.68 1.51231 -6.50143 0
M  V30 11623 H 1110.95 0.51825 -0.529621 0
M  V30 11624 H 1113.6 0.746701 -1.76342 0
M  V30 11625 H 1111.91 3.33763 -2.05206 0
M  V30 11626 H 1113.6 3.19896 -2.41801 0
M  V30 11627 H 1110.19 2.35795 -3.57908 0
M  V30 11628 H 1114.38 2.06237 -4.5142 0
M  V30 11629 H 1109.63 1.68698 -5.87666 0
M  V30 11630 H 1113.81 1.40091 -6.82164 0
M  V30 11631 H 1111.43 1.20774 -7.50545 0
M  V30 11632 N 1113.01 1.29761 0.894412 0
M  V30 11633 C 1114.26 1.18214 1.64782 0
M  V30 11634 C 1114.59 -0.264635 1.92388 0
M  V30 11635 O 1113.86 -1.19051 1.53809 0
M  V30 11636 C 1114.15 2.00138 2.99361 0
M  V30 11637 C 1114 3.52984 2.78787 0
M  V30 11638 C 1115.32 1.83187 4.00163 0
M  V30 11639 H 1112.44 0.430802 0.597979 0
M  V30 11640 H 1115.08 1.59292 1.03566 0
M  V30 11641 H 1113.23 1.65233 3.51611 0
M  V30 11642 H 1114.9 3.97898 2.33398 0
M  V30 11643 H 1113.14 3.77642 2.13469 0
M  V30 11644 H 1113.82 4.05585 3.7444 0
M  V30 11645 H 1116.29 2.13684 3.57041 0
M  V30 11646 H 1115.17 2.42849 4.92255 0
M  V30 11647 H 1115.43 0.788469 4.35012 0
M  V30 11648 N 1114.49 -1.10549 1.12324 0
M  V30 11649 C 1115.44 -2.14997 0.758979 0
M  V30 11650 C 1116.42 -1.59078 -0.241461 0
M  V30 11651 O 1117.61 -1.76937 -0.0471439 0
M  V30 11652 C 1114.74 -3.42633 0.21395 0
M  V30 11653 C 1113.83 -4.05487 1.24261 0
M  V30 11654 N 1114.22 -4.43064 2.43984 0
M  V30 11655 C 1112.52 -4.32534 1.08769 0
M  V30 11656 C 1113.22 -4.92427 3.09662 0
M  V30 11657 N 1112.19 -4.89161 2.37114 0
M  V30 11658 H 1116 -2.4184 1.67005 0
M  V30 11659 H 1113.51 -1.27659 1.00384 0
M  V30 11660 H 1115.51 -4.16849 -0.0651928 0
M  V30 11661 H 1114.17 -3.17249 -0.691591 0
M  V30 11662 H 1115.18 -4.34797 2.81375 0
M  V30 11663 H 1111.86 -4.16813 0.239354 0
M  V30 11664 H 1113.25 -5.31059 4.11614 0
M  V30 11665 N 1115.97 -0.914965 -1.28321 0
M  V30 11666 C 1117.21 -0.555865 -1.96696 0
M  V30 11667 C 1117.57 0.8842 -1.70429 0
M  V30 11668 O 1118.77 1.35094 -2.32386 0
M  V30 11669 C 1117.04 -0.857942 -3.4695 0
M  V30 11670 S 1118.6 -0.605441 -4.34603 0
M  V30 11671 H 1115.42 -0.20564 -0.680612 0
M  V30 11672 H 1118.02 -1.18068 -1.55821 0
M  V30 11673 H 1116.72 -1.90394 -3.63563 0
M  V30 11674 H 1116.26 -0.221831 -3.92774 0
M  V30 11675 H 1118.27 0.542657 -4.93224 0
M  V30 11676 N 1117.44 1.42219 -0.679077 0
M  V30 11677 C 1118.35 2.346 -0.00345919 0
M  V30 11678 C 1119.37 1.55327 0.784181 0
M  V30 11679 O 1120.55 1.87878 0.725524 0
M  V30 11680 C 1117.61 3.33905 0.933194 0
M  V30 11681 C 1116.67 4.29073 0.139607 0
M  V30 11682 C 1115.9 5.23634 1.03165 0
M  V30 11683 O 1116.13 5.23234 2.27119 0
M  V30 11684 O 1115.06 5.99901 0.490159 0
M  V30 11685 H 1118.89 2.9392 -0.764525 0
M  V30 11686 H 1116.47 1.42794 -0.439329 0
M  V30 11687 H 1118.35 3.949 1.47077 0
M  V30 11688 H 1117.03 2.77052 1.67404 0
M  V30 11689 H 1115.94 3.71478 -0.442177 0
M  V30 11690 H 1117.27 4.88979 -0.562214 0
M  V30 11691 N 1118.92 0.422693 1.51826 0
M  V30 11692 C 1119.83 -0.40261 2.31119 0
M  V30 11693 C 1120.85 -1.04117 1.39412 0
M  V30 11694 O 1122.02 -1.03973 1.72486 0
M  V30 11695 C 1119.09 -1.49699 3.12716 0
M  V30 11696 C 1118.15 -0.880088 4.20182 0
M  V30 11697 C 1117.38 -1.92232 4.97878 0
M  V30 11698 O 1117.61 -3.14246 4.76031 0
M  V30 11699 O 1116.54 -1.521 5.82365 0
M  V30 11700 H 1120.37 0.244308 3.02716 0
M  V30 11701 H 1117.95 0.185569 1.48243 0
M  V30 11702 H 1119.83 -2.13202 3.63487 0
M  V30 11703 H 1118.51 -2.12826 2.43899 0
M  V30 11704 H 1117.41 -0.207404 3.73525 0
M  V30 11705 H 1118.75 -0.292535 4.9133 0
M  V30 11706 N 1120.4 -1.5685 0.153553 0
M  V30 11707 C 1121.62 -2.01135 -0.505904 0
M  V30 11708 C 1122.05 -1.03301 -1.57196 0
M  V30 11709 O 1121.41 -0.00976022 -1.81297 0
M  V30 11710 C 1121.46 -3.44129 -1.0774 0
M  V30 11711 O 1120.56 -3.49318 -2.19205 0
M  V30 11712 H 1119.9 -0.652496 -0.123062 0
M  V30 11713 H 1122.43 -2.03039 0.252216 0
M  V30 11714 H 1122.44 -3.83066 -1.40444 0
M  V30 11715 H 1121.12 -4.1484 -0.296754 0
M  V30 11716 H 1119.69 -3.22227 -1.8768 0
M  V30 11717 N 1121.88 0.120221 -1.57141 0
M  V30 11718 C 1123.13 0.826586 -1.84423 0
M  V30 11719 C 1123.45 1.80473 -0.738553 0
M  V30 11720 O 1122.72 1.94454 0.23755 0
M  V30 11721 H 1121.3 0.308246 -0.680436 0
M  V30 11722 H 1123.96 0.107835 -1.94601 0
M  V30 11723 H 1123.05 1.37256 -2.80298 0
M  V30 11724 N 1123.36 1.52689 0.390367 0
M  V30 11725 C 1124.77 1.41909 0.730338 0
M  V30 11726 C 1124.97 0.538427 1.94173 0
M  V30 11727 O 1124.03 0.0113527 2.52497 0
M  V30 11728 C 1125.34 2.84737 0.966714 0
M  V30 11729 C 1126.89 2.94206 1.06827 0
M  V30 11730 C 1127.36 4.38042 1.33728 0
M  V30 11731 N 1128.86 4.4136 1.40553 0
M  V30 11732 C 1129.59 5.49735 1.63031 0
M  V30 11733 N 1129.09 6.68197 1.82988 0
M  V30 11734 N 1130.88 5.37276 1.65199 0
M  V30 11735 H 1123.03 2.08469 -0.406766 0
M  V30 11736 H 1125.29 0.940401 -0.11979 0
M  V30 11737 H 1125 3.51385 0.148725 0
M  V30 11738 H 1124.87 3.26909 1.88176 0
M  V30 11739 H 1127.26 2.27726 1.87683 0
M  V30 11740 H 1127.34 2.55463 0.131168 0
M  V30 11741 H 1126.99 5.05087 0.533832 0
M  V30 11742 H 1126.92 4.74336 2.28721 0
M  V30 11743 H 1129.41 3.55976 1.26844 0
M  V30 11744 H 1129.72 7.46567 1.99643 0
M  V30 11745 H 1128.06 6.71228 1.80215 0
M  V30 11746 H 1131.26 4.437 1.49158 0
M  V30 11747 H 1131.43 6.21806 1.82377 0
M  V30 11748 N 1124.83 -0.648732 1.43629 0
M  V30 11749 C 1126.25 -0.964917 1.27128 0
M  V30 11750 C 1126.45 -2.00561 0.194251 0
M  V30 11751 O 1125.51 -2.48884 -0.42581 0
M  V30 11752 C 1126.82 -1.44491 2.6371 0
M  V30 11753 C 1128.37 -1.56133 2.71278 0
M  V30 11754 C 1128.84 -2.07521 4.08288 0
M  V30 11755 N 1130.33 -2.14817 4.10375 0
M  V30 11756 C 1131.07 -2.55712 5.13224 0
M  V30 11757 N 1130.56 -2.9587 6.26444 0
M  V30 11758 N 1132.36 -2.55691 5.00578 0
M  V30 11759 H 1124.51 0.0398357 2.12363 0
M  V30 11760 H 1126.77 -0.0447705 0.946942 0
M  V30 11761 H 1126.48 -0.754616 3.43509 0
M  V30 11762 H 1126.35 -2.41914 2.89409 0
M  V30 11763 H 1128.74 -2.24263 1.91808 0
M  V30 11764 H 1128.82 -0.571314 2.49338 0
M  V30 11765 H 1128.46 -1.39992 4.88226 0
M  V30 11766 H 1128.39 -3.07362 4.27594 0
M  V30 11767 H 1130.88 -1.86538 3.28652 0
M  V30 11768 H 1131.2 -3.25837 7.0075 0
M  V30 11769 H 1129.54 -2.93664 6.2991 0
M  V30 11770 H 1132.73 -2.23697 4.1119 0
M  V30 11771 H 1132.91 -2.87239 5.80859 0
M  V30 11772 N 1126.31 -1.30234 -0.887518 0
M  V30 11773 C 1127.56 -1.19086 -1.64153 0
M  V30 11774 C 1127.89 0.254428 -1.92526 0
M  V30 11775 O 1127.17 1.18233 -1.54438 0
M  V30 11776 C 1127.45 -2.01723 -2.98295 0
M  V30 11777 C 1127.3 -3.54458 -2.76911 0
M  V30 11778 C 1128.62 -1.85307 -3.99186 0
M  V30 11779 H 1125.74 -0.433967 -0.595686 0
M  V30 11780 H 1128.38 -1.59839 -1.0272 0
M  V30 11781 H 1126.53 -1.67096 -3.5073 0
M  V30 11782 H 1128.2 -3.99131 -2.31284 0
M  V30 11783 H 1126.45 -3.78768 -2.11464 0
M  V30 11784 H 1127.12 -4.07565 -3.72283 0
M  V30 11785 H 1129.59 -2.15575 -3.55903 0
M  V30 11786 H 1128.47 -2.45456 -4.90961 0
M  V30 11787 H 1128.73 -0.811528 -4.34588 0
M  V30 11788 N 1127.79 1.09952 -1.12909 0
M  V30 11789 C 1128.72 2.18477 -0.824014 0
M  V30 11790 C 1129.7 1.68744 0.214324 0
M  V30 11791 O 1130.89 1.94057 0.0744281 0
M  V30 11792 C 1128.02 3.46143 -0.283308 0
M  V30 11793 C 1126.97 4.09178 -1.25528 0
M  V30 11794 C 1126.3 5.31604 -0.574574 0
M  V30 11795 C 1127.6 4.52308 -2.6118 0
M  V30 11796 H 1129.29 2.44254 -1.73148 0
M  V30 11797 H 1126.84 1.17394 -0.833952 0
M  V30 11798 H 1128.79 4.21361 -0.057583 0
M  V30 11799 H 1127.51 3.19872 0.659525 0
M  V30 11800 H 1126.17 3.35973 -1.4669 0
M  V30 11801 H 1125.82 5.01611 0.37356 0
M  V30 11802 H 1125.52 5.74732 -1.22299 0
M  V30 11803 H 1127.04 6.0955 -0.358004 0
M  V30 11804 H 1128.46 5.18776 -2.44017 0
M  V30 11805 H 1126.86 5.06302 -3.22147 0
M  V30 11806 H 1127.93 3.64977 -3.19249 0
M  V30 11807 N 1129.27 0.921757 1.27833 0
M  V30 11808 C 1130.51 0.559906 1.94918 0
M  V30 11809 C 1130.85 -0.895532 1.72319 0
M  V30 11810 O 1130.12 -1.638 1.04879 0
M  V30 11811 C 1130.41 0.879458 3.49196 0
M  V30 11812 C 1130.26 2.38821 3.81162 0
M  V30 11813 C 1131.58 0.381183 4.38446 0
M  V30 11814 H 1128.7 0.204893 0.707946 0
M  V30 11815 H 1131.34 1.15246 1.51058 0
M  V30 11816 H 1129.49 0.375177 3.86684 0
M  V30 11817 H 1131.16 2.96373 3.53498 0
M  V30 11818 H 1129.4 2.83988 3.27923 0
M  V30 11819 H 1130.07 2.56234 4.88926 0
M  V30 11820 H 1132.55 0.813289 4.08075 0
M  V30 11821 H 1131.43 0.633778 5.45229 0
M  V30 11822 H 1131.69 -0.718651 4.3622 0
M  V30 11823 N 1130.75 -1.41857 0.686609 0
M  V30 11824 C 1131.98 -2.05401 0.222238 0
M  V30 11825 C 1132.38 -1.51731 -1.13023 0
M  V30 11826 O 1131.73 -0.656701 -1.71561 0
M  V30 11827 C 1131.79 -3.59381 0.0926608 0
M  V30 11828 C 1131.45 -4.35801 1.37573 0
M  V30 11829 C 1132.45 -4.65678 2.31171 0
M  V30 11830 C 1130.14 -4.75233 1.62661 0
M  V30 11831 C 1132.13 -5.33936 3.48125 0
M  V30 11832 C 1129.82 -5.43229 2.79902 0
M  V30 11833 C 1130.81 -5.72507 3.72458 0
M  V30 11834 O 1130.5 -6.39106 4.87646 0
M  V30 11835 H 1130.23 -0.668126 0.102876 0
M  V30 11836 H 1132.79 -1.82775 0.93714 0
M  V30 11837 H 1131.02 -3.80711 -0.67793 0
M  V30 11838 H 1132.71 -4.04529 -0.333364 0
M  V30 11839 H 1133.47 -4.35704 2.13042 0
M  V30 11840 H 1129.35 -4.51831 0.914862 0
M  V30 11841 H 1132.9 -5.56706 4.20386 0
M  V30 11842 H 1128.79 -5.72621 2.97951 0
M  V30 11843 H 1129.56 -6.576 4.87344 0
M  V30 11844 N 1132.22 -0.430739 -1.51599 0
M  V30 11845 C 1133.45 0.139197 -2.06932 0
M  V30 11846 C 1133.87 1.3626 -1.29672 0
M  V30 11847 O 1133.23 1.78219 -0.332836 0
M  V30 11848 C 1133.28 0.446593 -3.57824 0
M  V30 11849 O 1132.38 1.53414 -3.82803 0
M  V30 11850 H 1131.73 0.00475812 -0.663983 0
M  V30 11851 H 1134.26 -0.610171 -1.9529 0
M  V30 11852 H 1134.27 0.698972 -4.01968 0
M  V30 11853 H 1132.94 -0.447613 -4.13484 0
M  V30 11854 H 1131.52 1.27224 -3.50526 0
M  V30 11855 N 1133.7 1.56767 -0.161869 0
M  V30 11856 C 1134.94 1.98487 0.488067 0
M  V30 11857 C 1135.31 1.04527 1.61053 0
M  V30 11858 O 1136.51 1.35351 2.32236 0
M  V30 11859 C 1134.78 3.44057 0.967446 0
M  V30 11860 S 1136.34 4.07805 1.61989 0
M  V30 11861 H 1133.16 0.693377 0.157318 0
M  V30 11862 H 1135.76 1.93802 -0.257099 0
M  V30 11863 H 1134.46 4.10161 0.139959 0
M  V30 11864 H 1133.99 3.52488 1.74688 0
M  V30 11865 H 1136.01 4.02078 2.90772 0
M  V30 11866 N 1135.18 -0.111886 1.57202 0
M  V30 11867 C 1136.6 -0.465629 1.52657 0
M  V30 11868 C 1136.8 -1.81463 0.875989 0
M  V30 11869 O 1135.85 -2.4825 0.461345 0
M  V30 11870 C 1137.17 -0.443571 2.9741 0
M  V30 11871 C 1138.71 -0.52662 3.08538 0
M  V30 11872 C 1139.19 -0.53488 4.54866 0
M  V30 11873 N 1140.68 -0.596117 4.59348 0
M  V30 11874 C 1141.41 -0.624073 5.69994 0
M  V30 11875 N 1140.91 -0.609245 6.90116 0
M  V30 11876 N 1142.7 -0.667619 5.58121 0
M  V30 11877 H 1134.85 0.771925 1.97876 0
M  V30 11878 H 1137.12 0.285534 0.903977 0
M  V30 11879 H 1136.82 0.480138 3.48407 0
M  V30 11880 H 1136.7 -1.26876 3.55221 0
M  V30 11881 H 1139.08 -1.44075 2.57539 0
M  V30 11882 H 1139.17 0.326396 2.53709 0
M  V30 11883 H 1138.81 0.375233 5.06512 0
M  V30 11884 H 1138.74 -1.40488 5.07514 0
M  V30 11885 H 1141.23 -0.613452 3.72888 0
M  V30 11886 H 1141.54 -0.633396 7.702 0
M  V30 11887 H 1139.89 -0.576557 6.92604 0
M  V30 11888 H 1143.08 -0.676616 4.63184 0
M  V30 11889 H 1143.25 -0.685938 6.44359 0
M  V30 11890 N 1136.66 -1.52894 -0.382264 0
M  V30 11891 C 1137.61 -1.74531 -1.46707 0
M  V30 11892 C 1138.59 -0.599499 -1.49315 0
M  V30 11893 O 1139.78 -0.857577 -1.54837 0
M  V30 11894 C 1136.91 -1.92366 -2.84342 0
M  V30 11895 C 1136 -3.12899 -2.86278 0
M  V30 11896 N 1136.39 -4.35125 -2.57876 0
M  V30 11897 C 1134.69 -3.13282 -3.17444 0
M  V30 11898 C 1135.39 -5.16769 -2.67066 0
M  V30 11899 N 1134.37 -4.52606 -3.0108 0
M  V30 11900 H 1138.17 -2.66653 -1.23585 0
M  V30 11901 H 1135.68 -1.51292 -0.590286 0
M  V30 11902 H 1137.68 -2.0599 -3.62455 0
M  V30 11903 H 1136.34 -1.01461 -3.08441 0
M  V30 11904 H 1137.35 -4.63143 -2.31774 0
M  V30 11905 H 1134.03 -2.32211 -3.46964 0
M  V30 11906 H 1135.42 -6.24219 -2.48595 0
M  V30 11907 N 1138.14 0.641106 -1.43971 0
M  V30 11908 C 1139.39 1.39807 -1.4594 0
M  V30 11909 C 1139.71 1.94795 -0.0893874 0
M  V30 11910 O 1138.98 1.75175 0.876962 0
M  V30 11911 H 1137.56 0.518908 -0.537349 0
M  V30 11912 H 1140.22 0.755278 -1.79671 0
M  V30 11913 H 1139.31 2.23439 -2.17903 0
M  V30 11914 N 1139.62 1.30703 0.880598 0
M  V30 11915 C 1140.85 1.22536 1.66339 0
M  V30 11916 C 1141.25 -0.213507 1.87991 0
M  V30 11917 O 1140.6 -1.15236 1.43061 0
M  V30 11918 C 1140.66 1.88798 3.05934 0
M  V30 11919 C 1140.32 3.38131 3.07435 0
M  V30 11920 C 1141.32 4.34053 2.86171 0
M  V30 11921 C 1139 3.79651 3.28893 0
M  V30 11922 C 1141 5.69469 2.86328 0
M  V30 11923 C 1138.69 5.15182 3.2868 0
M  V30 11924 C 1139.68 6.09902 3.07423 0
M  V30 11925 O 1139.37 7.42957 3.07034 0
M  V30 11926 H 1139.1 0.425018 0.525677 0
M  V30 11927 H 1141.66 1.72939 1.1082 0
M  V30 11928 H 1139.89 1.3293 3.63134 0
M  V30 11929 H 1141.58 1.74691 3.66385 0
M  V30 11930 H 1142.34 4.03307 2.69385 0
M  V30 11931 H 1138.22 3.06365 3.44473 0
M  V30 11932 H 1141.77 6.43375 2.69655 0
M  V30 11933 H 1137.66 5.45567 3.45002 0
M  V30 11934 H 1138.43 7.52 3.23169 0
M  V30 11935 N 1141.09 -1.09351 1.1349 0
M  V30 11936 C 1142 -2.19564 0.826366 0
M  V30 11937 C 1143.02 -1.72967 -0.189339 0
M  V30 11938 O 1144.2 -2.0139 -0.0202033 0
M  V30 11939 C 1141.26 -3.4542 0.297685 0
M  V30 11940 C 1140.32 -4.06694 1.37473 0
M  V30 11941 C 1139.55 -5.26542 0.871183 0
M  V30 11942 O 1139.78 -5.69657 -0.290958 0
M  V30 11943 O 1138.71 -5.78961 1.64584 0
M  V30 11944 H 1142.54 -2.4841 1.74718 0
M  V30 11945 H 1140.12 -1.18302 0.912414 0
M  V30 11946 H 1142 -4.21399 0.00829479 0
M  V30 11947 H 1140.68 -3.18175 -0.595536 0
M  V30 11948 H 1139.59 -3.32347 1.71745 0
M  V30 11949 H 1140.92 -4.38166 2.24212 0
M  V30 11950 N 1142.57 -0.928524 -1.27343 0
M  V30 11951 C 1143.5 -0.445627 -2.29208 0
M  V30 11952 C 1144.48 0.494508 -1.62753 0
M  V30 11953 O 1145.67 0.399082 -1.90055 0
M  V30 11954 C 1142.8 0.301684 -3.45987 0
M  V30 11955 C 1141.75 -0.550695 -4.24442 0
M  V30 11956 C 1141.08 0.325833 -5.33706 0
M  V30 11957 C 1142.38 -1.81559 -4.89728 0
M  V30 11958 H 1144.07 -1.29696 -2.69851 0
M  V30 11959 H 1141.62 -0.625085 -1.29725 0
M  V30 11960 H 1143.57 0.650455 -4.1635 0
M  V30 11961 H 1142.29 1.18705 -3.04264 0
M  V30 11962 H 1140.95 -0.882185 -3.55827 0
M  V30 11963 H 1140.6 1.21018 -4.88225 0
M  V30 11964 H 1140.3 -0.240994 -5.87106 0
M  V30 11965 H 1141.83 0.670156 -6.06911 0
M  V30 11966 H 1143.24 -1.53483 -5.52373 0
M  V30 11967 H 1141.64 -2.32598 -5.53189 0
M  V30 11968 H 1142.71 -2.53461 -4.13383 0
M  V30 11969 N 1144.05 1.41491 -0.694123 0
M  V30 11970 C 1144.98 2.29197 0.0112742 0
M  V30 11971 C 1145.99 1.44708 0.745877 0
M  V30 11972 O 1147.18 1.68227 0.596821 0
M  V30 11973 C 1144.28 3.22547 1.04004 0
M  V30 11974 C 1143.46 4.35787 0.375347 0
M  V30 11975 C 1142.52 5.09722 1.30652 0
M  V30 11976 O 1141.54 5.63558 0.799459 0
M  V30 11977 N 1142.74 5.1705 2.63893 0
M  V30 11978 H 1145.51 2.90377 -0.741705 0
M  V30 11979 H 1143.07 1.52628 -0.540039 0
M  V30 11980 H 1145.06 3.68878 1.66468 0
M  V30 11981 H 1143.63 2.62685 1.69456 0
M  V30 11982 H 1142.85 3.91857 -0.429145 0
M  V30 11983 H 1144.14 5.08726 -0.0869041 0
M  V30 11984 H 1143.54 4.74756 3.07609 0
M  V30 11985 H 1142.09 5.66962 3.21555 0
M  V30 11986 N 1145.53 0.438773 1.51369 0
M  V30 11987 C 1146.78 -0.126962 2.01701 0
M  V30 11988 C 1147.1 -1.43086 1.32481 0
M  V30 11989 O 1146.37 -1.90427 0.459823 0
M  V30 11990 H 1144.95 -0.0499092 0.745331 0
M  V30 11991 H 1147.61 0.581808 1.86013 0
M  V30 11992 H 1146.7 -0.301836 3.10637 0
M  V30 11993 N 1147.01 -1.56678 0.170181 0
M  V30 11994 C 1148.42 -1.58512 -0.185999 0
M  V30 11995 C 1148.62 -1.18548 -1.62937 0
M  V30 11996 O 1147.68 -0.896554 -2.36047 0
M  V30 11997 C 1148.99 -3.00554 0.0937842 0
M  V30 11998 C 1150.54 -3.12984 0.0319057 0
M  V30 11999 C 1151.01 -4.57115 0.284664 0
M  V30 12000 N 1152.5 -4.62617 0.2324 0
M  V30 12001 C 1153.24 -5.71988 0.40216 0
M  V30 12002 N 1152.74 -6.89921 0.630915 0
M  V30 12003 N 1154.53 -5.61082 0.338144 0
M  V30 12004 H 1146.68 -1.80944 1.11235 0
M  V30 12005 H 1148.94 -0.838586 0.442128 0
M  V30 12006 H 1148.65 -3.34265 1.09362 0
M  V30 12007 H 1148.52 -3.72151 -0.615118 0
M  V30 12008 H 1150.91 -2.791 -0.958502 0
M  V30 12009 H 1150.99 -2.43825 0.773501 0
M  V30 12010 H 1150.63 -4.91707 1.27227 0
M  V30 12011 H 1150.56 -5.2443 -0.477529 0
M  V30 12012 H 1153.06 -3.7785 0.0611933 0
M  V30 12013 H 1153.37 -7.69153 0.749931 0
M  V30 12014 H 1151.71 -6.91787 0.667516 0
M  V30 12015 H 1154.9 -4.67826 0.16003 0
M  V30 12016 H 1155.08 -6.46265 0.473872 0
M  V30 12017 N 1148.48 0.103547 -1.57259 0
M  V30 12018 C 1149.39 1.14475 -2.04774 0
M  V30 12019 C 1150.41 1.44385 -0.971025 0
M  V30 12020 O 1151.59 1.55195 -1.28361 0
M  V30 12021 C 1148.65 2.4475 -2.45558 0
M  V30 12022 C 1147.71 2.22098 -3.67384 0
M  V30 12023 C 1146.94 3.4616 -4.06213 0
M  V30 12024 O 1147.17 4.5407 -3.45219 0
M  V30 12025 O 1146.1 3.36248 -4.9922 0
M  V30 12026 H 1149.93 0.771211 -2.93745 0
M  V30 12027 H 1147.51 0.315456 -1.46032 0
M  V30 12028 H 1149.39 3.21476 -2.72454 0
M  V30 12029 H 1148.07 2.81547 -1.59728 0
M  V30 12030 H 1146.98 1.43179 -3.45616 0
M  V30 12031 H 1148.31 1.90197 -4.53967 0
M  V30 12032 N 1149.96 1.53094 0.37415 0
M  V30 12033 C 1150.89 1.75199 1.47776 0
M  V30 12034 C 1151.91 0.632627 1.50006 0
M  V30 12035 O 1153.1 0.908688 1.5364 0
M  V30 12036 C 1150.2 1.80909 2.86575 0
M  V30 12037 C 1149.37 3.10432 3.08141 0
M  V30 12038 C 1148.43 3.07495 4.27005 0
M  V30 12039 O 1147.45 3.81319 4.22592 0
M  V30 12040 N 1148.66 2.27715 5.33972 0
M  V30 12041 H 1151.42 2.70423 1.29196 0
M  V30 12042 H 1148.98 1.51766 0.563802 0
M  V30 12043 H 1150.97 1.76432 3.64217 0
M  V30 12044 H 1149.54 0.930074 2.98443 0
M  V30 12045 H 1148.76 3.2828 2.18233 0
M  V30 12046 H 1150.05 3.96047 3.19413 0
M  V30 12047 H 1149.45 1.67231 5.40417 0
M  V30 12048 H 1148.01 2.29065 6.10223 0
M  V30 12049 N 1151.44 -0.633461 1.44309 0
M  V30 12050 C 1152.37 -1.75676 1.53819 0
M  V30 12051 C 1153.35 -1.65537 0.391365 0
M  V30 12052 O 1154.54 -1.84332 0.611181 0
M  V30 12053 C 1151.67 -3.14197 1.47979 0
M  V30 12054 C 1150.62 -3.39122 2.61113 0
M  V30 12055 C 1149.95 -4.77648 2.40325 0
M  V30 12056 C 1151.25 -3.31914 4.03274 0
M  V30 12057 H 1152.94 -1.67974 2.47841 0
M  V30 12058 H 1150.49 -0.8067 1.19283 0
M  V30 12059 H 1152.44 -3.92553 1.53233 0
M  V30 12060 H 1151.16 -3.22677 0.504718 0
M  V30 12061 H 1149.82 -2.63145 2.55245 0
M  V30 12062 H 1149.47 -4.82829 1.41016 0
M  V30 12063 H 1149.17 -4.95284 3.16177 0
M  V30 12064 H 1150.69 -5.58237 2.47394 0
M  V30 12065 H 1152.11 -4.00178 4.10524 0
M  V30 12066 H 1150.5 -3.61085 4.7931 0
M  V30 12067 H 1151.57 -2.29761 4.2701 0
M  V30 12068 N 1152.92 -1.31168 -0.873655 0
M  V30 12069 C 1154.15 -1.23595 -1.65927 0
M  V30 12070 C 1154.56 0.199349 -1.87745 0
M  V30 12071 O 1153.92 1.13013 -1.43298 0
M  V30 12072 C 1153.97 -1.97268 -3.02932 0
M  V30 12073 O 1153.69 -3.35196 -2.82091 0
M  V30 12074 C 1155.19 -1.9649 -3.97374 0
M  V30 12075 H 1152.41 -0.427228 -0.517414 0
M  V30 12076 H 1154.96 -1.72983 -1.09074 0
M  V30 12077 H 1153.11 -1.51651 -3.56484 0
M  V30 12078 H 1153.52 -3.7266 -3.69087 0
M  V30 12079 H 1155 -2.52557 -4.90835 0
M  V30 12080 H 1155.48 -0.946525 -4.28879 0
M  V30 12081 H 1156.08 -2.4197 -3.49758 0
M  V30 12082 N 1154.4 1.08748 -1.14068 0
M  V30 12083 C 1155.64 1.82672 -0.917072 0
M  V30 12084 C 1156 1.84052 0.546688 0
M  V30 12085 O 1157.2 2.53704 0.888118 0
M  V30 12086 C 1155.47 3.24525 -1.49727 0
M  V30 12087 S 1157.03 4.15369 -1.41472 0
M  V30 12088 H 1153.85 0.629576 -0.330387 0
M  V30 12089 H 1156.45 1.3074 -1.45352 0
M  V30 12090 H 1155.16 3.21101 -2.55583 0
M  V30 12091 H 1154.69 3.8153 -0.959069 0
M  V30 12092 H 1156.7 4.94602 -0.39788 0
M  V30 12093 N 1155.87 0.935264 1.26849 0
M  V30 12094 C 1157.1 0.596249 1.98122 0
M  V30 12095 C 1157.52 -0.827452 1.69702 0
M  V30 12096 O 1156.87 -1.55095 0.961864 0
M  V30 12097 C 1156.93 0.821773 3.52036 0
M  V30 12098 O 1156.65 2.18947 3.79465 0
M  V30 12099 C 1158.15 0.492498 4.40556 0
M  V30 12100 H 1155.37 0.225242 0.632066 0
M  V30 12101 H 1157.91 1.25435 1.61512 0
M  V30 12102 H 1156.07 0.210363 3.86828 0
M  V30 12103 H 1156.48 2.24509 4.74021 0
M  V30 12104 H 1157.95 0.700953 5.47531 0
M  V30 12105 H 1158.43 -0.57228 4.35456 0
M  V30 12106 H 1159.04 1.08238 4.11296 0
M  V30 12107 N 1157.35 -1.41121 0.701616 0
M  V30 12108 C 1158.28 -2.292 0.000880842 0
M  V30 12109 C 1159.3 -1.45102 -0.738192 0
M  V30 12110 O 1160.49 -1.68541 -0.587891 0
M  V30 12111 C 1157.59 -3.23094 -1.02292 0
M  V30 12112 C 1156.76 -4.35979 -0.352231 0
M  V30 12113 C 1155.82 -5.10408 -1.27947 0
M  V30 12114 O 1154.84 -5.63974 -0.769561 0
M  V30 12115 N 1156.05 -5.18442 -2.61147 0
M  V30 12116 H 1158.81 -2.8998 0.757094 0
M  V30 12117 H 1156.37 -1.52339 0.548126 0
M  V30 12118 H 1158.36 -3.69755 -1.64509 0
M  V30 12119 H 1156.93 -2.6358 -1.68061 0
M  V30 12120 H 1156.15 -3.91624 0.44992 0
M  V30 12121 H 1157.44 -5.08673 0.113882 0
M  V30 12122 H 1156.84 -4.76381 -3.05087 0
M  V30 12123 H 1155.4 -5.68659 -3.18544 0
M  V30 12124 N 1158.83 -0.446794 -1.51134 0
M  V30 12125 C 1159.74 0.36579 -2.31731 0
M  V30 12126 C 1160.76 1.01886 -1.41051 0
M  V30 12127 O 1161.93 1.01216 -1.74119 0
M  V30 12128 C 1159 1.44705 -3.15058 0
M  V30 12129 C 1158.06 0.813129 -4.21529 0
M  V30 12130 C 1157.29 1.84287 -5.00873 0
M  V30 12131 O 1157.51 3.06633 -4.8097 0
M  V30 12132 O 1156.45 1.42816 -5.84711 0
M  V30 12133 H 1160.27 -0.292436 -3.02289 0
M  V30 12134 H 1157.86 -0.209129 -1.47929 0
M  V30 12135 H 1159.74 2.07393 -3.66833 0
M  V30 12136 H 1158.42 2.08919 -2.47254 0
M  V30 12137 H 1157.32 0.147953 -3.73807 0
M  V30 12138 H 1158.66 0.214331 -4.91733 0
M  V30 12139 N 1160.31 1.56586 -0.178487 0
M  V30 12140 C 1161.56 1.96709 0.4637 0
M  V30 12141 C 1161.88 1.06586 1.63292 0
M  V30 12142 O 1161.15 0.133683 1.95443 0
M  V30 12143 H 1159.73 0.726381 0.174299 0
M  V30 12144 H 1162.39 1.9314 -0.261345 0
M  V30 12145 H 1161.49 3.01164 0.818934 0
M  V30 12146 N 1161.79 -0.095206 1.57312 0
M  V30 12147 C 1163.03 -0.794786 1.87229 0
M  V30 12148 C 1163.39 -1.7635 0.769305 0
M  V30 12149 O 1162.68 -1.9023 -0.228704 0
M  V30 12150 C 1162.87 -1.56244 3.21438 0
M  V30 12151 C 1162.7 -0.669563 4.44687 0
M  V30 12152 C 1161.47 -0.315338 5.04315 0
M  V30 12153 C 1163.67 0.0234175 5.14295 0
M  V30 12154 N 1161.65 0.585709 6.111 0
M  V30 12155 C 1163.02 0.782538 6.15042 0
M  V30 12156 C 1165.08 0.0973496 4.97805 0
M  V30 12157 C 1163.78 1.60868 7.01081 0
M  V30 12158 C 1165.81 0.910394 5.84351 0
M  V30 12159 C 1165.17 1.65763 6.84618 0
M  V30 12160 H 1161.27 -0.267005 0.735005 0
M  V30 12161 H 1163.85 -0.0573245 1.94616 0
M  V30 12162 H 1162.02 -2.27077 3.15104 0
M  V30 12163 H 1163.76 -2.2092 3.39082 0
M  V30 12164 H 1160.51 -0.662971 4.68937 0
M  V30 12165 H 1160.94 1.02878 6.69138 0
M  V30 12166 H 1165.58 -0.46602 4.20224 0
M  V30 12167 H 1163.3 2.18312 7.78052 0
M  V30 12168 H 1166.88 0.97027 5.73652 0
M  V30 12169 H 1165.76 2.27663 7.50426 0
M  V30 12170 N 1163.26 -1.53291 -0.366026 0
M  V30 12171 C 1164.54 -1.60055 -1.12436 0
M  V30 12172 C 1164.92 -0.407811 -2.07123 0
M  V30 12173 O 1164.27 0.601977 -2.20428 0
M  V30 12174 C 1164.48 -2.95062 -1.86385 0
M  V30 12175 C 1165.83 -3.49623 -2.40934 0
M  V30 12176 O 1166.85 -2.97088 -1.96512 0
M  V30 12177 O 1165.71 -4.41461 -3.2214 0
M  V30 12178 H 1162.8 -0.646476 -0.51575 0
M  V30 12179 H 1165.35 -1.65632 -0.369326 0
M  V30 12180 H 1164.12 -3.73312 -1.17277 0
M  V30 12181 H 1163.75 -2.92973 -2.68798 0
M  V30 12182 N 1164.74 0.6258 -1.44643 0
M  V30 12183 C 1165.99 1.38525 -1.47706 0
M  V30 12184 C 1166.32 1.94179 -0.111703 0
M  V30 12185 O 1165.57 1.74432 0.887237 0
M  V30 12186 C 1165.87 2.56466 -2.48917 0
M  V30 12187 C 1165.54 2.19069 -3.94106 0
M  V30 12188 C 1164.2 2.08583 -4.33643 0
M  V30 12189 C 1166.55 1.89608 -4.85488 0
M  V30 12190 C 1163.88 1.66831 -5.6248 0
M  V30 12191 C 1166.23 1.49347 -6.14718 0
M  V30 12192 C 1164.9 1.37406 -6.53204 0
M  V30 12193 H 1164.17 0.506899 -0.540494 0
M  V30 12194 H 1166.81 0.709128 -1.77887 0
M  V30 12195 H 1165.12 3.29335 -2.12239 0
M  V30 12196 H 1166.81 3.14695 -2.48532 0
M  V30 12197 H 1163.4 2.28151 -3.62829 0
M  V30 12198 H 1167.59 1.96616 -4.55693 0
M  V30 12199 H 1162.84 1.56195 -5.91112 0
M  V30 12200 H 1167.02 1.2559 -6.84982 0
M  V30 12201 H 1164.65 1.04826 -7.52938 0
M  V30 12202 N 1166.22 1.31629 0.866686 0
M  V30 12203 C 1167.15 1.15377 1.98042 0
M  V30 12204 C 1168.17 0.0919633 1.6254 0
M  V30 12205 O 1169.35 0.339775 1.75236 0
M  V30 12206 C 1166.45 0.741295 3.30693 0
M  V30 12207 C 1165.63 1.88882 3.94516 0
M  V30 12208 C 1164.69 1.46186 5.05486 0
M  V30 12209 O 1163.71 2.17202 5.26129 0
M  V30 12210 N 1164.91 0.351096 5.79437 0
M  V30 12211 H 1167.68 2.11309 2.12529 0
M  V30 12212 H 1165.24 1.24007 1.04085 0
M  V30 12213 H 1167.23 0.438313 4.02319 0
M  V30 12214 H 1165.8 -0.12651 3.12344 0
M  V30 12215 H 1165.02 2.35894 3.15828 0
M  V30 12216 H 1166.31 2.65734 4.33892 0
M  V30 12217 H 1165.71 -0.240245 5.6519 0
M  V30 12218 H 1164.27 0.107663 6.51711 0
M  V30 12219 N 1167.7 -1.08142 1.14644 0
M  V30 12220 C 1169.11 -1.62061 0.926986 0
M  V30 12221 C 1169.46 -1.88805 -0.533578 0
M  V30 12222 O 1168.59 -1.64753 -1.40305 0
M  V30 12223 C 1169.18 -2.94425 1.67629 0
M  V30 12224 C 1167.74 -3.45118 1.50235 0
M  V30 12225 C 1166.89 -2.19307 1.69705 0
M  V30 12226 H 1169.84 -0.913326 1.29785 0
M  V30 12227 H 1169.86 -3.62987 1.14107 0
M  V30 12228 H 1169.37 -2.74928 2.73927 0
M  V30 12229 H 1167.47 -3.69713 0.462967 0
M  V30 12230 H 1167.59 -4.2169 2.27408 0
M  V30 12231 H 1165.95 -2.28611 1.12291 0
M  V30 12232 H 1166.73 -2.02315 2.77351 0
M  V30 12233 N 1169.18 -0.941978 -1.26351 0
M  V30 12234 C 1170.59 -0.632522 -1.75659 0
M  V30 12235 C 1170.94 0.852287 -1.76722 0
M  V30 12236 O 1170.06 1.66701 -1.37985 0
M  V30 12237 C 1170.66 -1.14145 -3.18993 0
M  V30 12238 C 1169.22 -0.882391 -3.65911 0
M  V30 12239 C 1168.37 -1.29189 -2.45368 0
M  V30 12240 H 1171.32 -1.12019 -1.12416 0
M  V30 12241 H 1171.34 -0.495639 -3.77258 0
M  V30 12242 H 1170.85 -2.22213 -3.18187 0
M  V30 12243 H 1168.95 0.183873 -3.72146 0
M  V30 12244 H 1169.06 -1.50996 -4.54683 0
M  V30 12245 H 1167.43 -0.710316 -2.44595 0
M  V30 12246 H 1168.21 -2.38152 -2.47262 0
M  V30 12247 N 1170.66 1.40747 -0.709091 0
M  V30 12248 C 1171.59 2.33404 -0.0669763 0
M  V30 12249 C 1172.57 1.52546 0.752582 0
M  V30 12250 O 1173.75 1.81036 0.702823 0
M  V30 12251 C 1170.88 3.36476 0.860285 0
M  V30 12252 C 1169.84 4.27748 0.146828 0
M  V30 12253 C 1169.16 5.21304 1.18937 0
M  V30 12254 C 1170.46 5.12734 -0.995064 0
M  V30 12255 H 1172.16 2.87349 -0.840888 0
M  V30 12256 H 1169.7 1.38163 -0.405817 0
M  V30 12257 H 1171.65 4.00231 1.31883 0
M  V30 12258 H 1170.38 2.80912 1.66602 0
M  V30 12259 H 1169.04 3.65437 -0.291826 0
M  V30 12260 H 1168.69 4.62048 1.98798 0
M  V30 12261 H 1168.39 5.8321 0.716917 0
M  V30 12262 H 1169.91 5.87936 1.64815 0
M  V30 12263 H 1171.32 5.69979 -0.61618 0
M  V30 12264 H 1169.72 5.83649 -1.39547 0
M  V30 12265 H 1170.79 4.49097 -1.82867 0
M  V30 12266 N 1172.13 0.454803 1.50895 0
M  V30 12267 C 1173.37 -0.104722 2.04132 0
M  V30 12268 C 1173.74 -1.38434 1.33042 0
M  V30 12269 O 1174.94 -2.02521 1.76745 0
M  V30 12270 C 1173.21 -0.300775 3.56132 0
M  V30 12271 S 1174.77 -0.821197 4.31047 0
M  V30 12272 H 1171.59 -0.0236407 0.710607 0
M  V30 12273 H 1174.19 0.618213 1.85468 0
M  V30 12274 H 1172.89 0.636592 4.05433 0
M  V30 12275 H 1172.42 -1.05029 3.79121 0
M  V30 12276 H 1174.44 -2.09669 4.49726 0
M  V30 12277 N 1173.61 -1.56489 0.186789 0
M  V30 12278 C 1174.56 -2.18703 -0.737402 0
M  V30 12279 C 1175.53 -1.13171 -1.21579 0
M  V30 12280 O 1176.71 -1.41388 -1.28118 0
M  V30 12281 C 1173.85 -2.84394 -1.95484 0
M  V30 12282 C 1172.97 -4.04429 -1.51859 0
M  V30 12283 C 1172.1 -4.58001 -2.69089 0
M  V30 12284 C 1171.14 -5.70412 -2.22029 0
M  V30 12285 N 1170.28 -6.18425 -3.32407 0
M  V30 12286 H 1175.12 -2.97327 -0.200105 0
M  V30 12287 H 1172.65 -1.46842 -0.087032 0
M  V30 12288 H 1174.61 -3.20646 -2.66912 0
M  V30 12289 H 1173.24 -2.08347 -2.46559 0
M  V30 12290 H 1172.29 -3.73895 -0.70048 0
M  V30 12291 H 1173.61 -4.85756 -1.13327 0
M  V30 12292 H 1172.76 -4.96515 -3.48652 0
M  V30 12293 H 1171.5 -3.75764 -3.1089 0
M  V30 12294 H 1170.5 -5.31434 -1.40918 0
M  V30 12295 H 1171.73 -6.54461 -1.81268 0
M  V30 12296 H 1169.68 -5.39113 -3.73755 0
M  V30 12297 H 1169.59 -6.94782 -2.98017 0
M  V30 12298 H 1170.86 -6.61592 -4.12209 0
M  V30 12299 N 1175.09 0.086862 -1.5736 0
M  V30 12300 C 1176.37 0.820984 -1.77537 0
M  V30 12301 C 1176.75 1.96534 -0.770554 0
M  V30 12302 O 1176.09 2.27629 0.199334 0
M  V30 12303 C 1176.3 1.30793 -3.23565 0
M  V30 12304 C 1177.65 1.7474 -3.86977 0
M  V30 12305 O 1178.68 1.40396 -3.27364 0
M  V30 12306 O 1177.54 2.38271 -4.91822 0
M  V30 12307 H 1174.63 0.392228 -0.72807 0
M  V30 12308 H 1177.18 0.0681051 -1.69563 0
M  V30 12309 H 1175.95 0.488409 -3.8824 0
M  V30 12310 H 1175.57 2.12258 -3.36203 0
M  V30 12311 N 1176.57 1.53483 0.357892 0
M  V30 12312 C 1177.81 1.70289 1.10134 0
M  V30 12313 C 1178.15 0.457296 1.88739 0
M  V30 12314 O 1177.42 -0.545527 1.86693 0
M  V30 12315 C 1177.7 2.95755 2.05429 0
M  V30 12316 C 1177.56 4.30489 1.30382 0
M  V30 12317 C 1178.88 3.16844 3.05447 0
M  V30 12318 H 1176 0.61965 0.399003 0
M  V30 12319 H 1178.64 1.86133 0.381357 0
M  V30 12320 H 1176.79 2.82377 2.66825 0
M  V30 12321 H 1178.46 4.55692 0.71711 0
M  V30 12322 H 1176.7 4.2955 0.605712 0
M  V30 12323 H 1177.37 5.14427 2.00171 0
M  V30 12324 H 1179.85 3.29458 2.54159 0
M  V30 12325 H 1178.73 4.06053 3.69341 0
M  V30 12326 H 1178.99 2.32476 3.76041 0
M  V30 12327 N 1178.05 -0.61812 1.44973 0
M  V30 12328 C 1178.99 -1.75059 1.53157 0
M  V30 12329 C 1179.99 -1.64554 0.402282 0
M  V30 12330 O 1181.19 -1.70475 0.577767 0
M  V30 12331 H 1177.57 -0.57817 0.480856 0
M  V30 12332 H 1179.54 -1.65281 2.48445 0
M  V30 12333 C 1178.29 -3.13423 1.50538 0
M  V30 12334 H 1177.61 -3.2216 2.36755 0
M  V30 12335 H 1179.05 -3.92521 1.60323 0
M  V30 12336 C 1177.51 -3.36127 0.228127 0
M  V30 12337 O 1178.04 -3.95618 -0.696364 0
M  V30 12338 N 1176.25 -2.90322 0.127142 0
M  V30 12339 H 1175.79 -2.42091 0.880317 0
M  V30 12340 H 1175.75 -3.05887 -0.726659 0
M  V30 12341 N 1179.52 -1.32087 -0.859693 0
M  V30 12342 C 1180.43 -1.22587 -2.00024 0
M  V30 12343 C 1181.45 -0.140477 -1.73432 0
M  V30 12344 O 1182.63 -0.360213 -1.98153 0
M  V30 12345 C 1179.69 -0.944195 -3.33595 0
M  V30 12346 C 1178.75 -2.11752 -3.73443 0
M  V30 12347 C 1177.98 -1.84919 -5.0064 0
M  V30 12348 O 1178.21 -0.789299 -5.64913 0
M  V30 12349 O 1177.14 -2.70885 -5.37499 0
M  V30 12350 H 1180.97 -2.18457 -2.10974 0
M  V30 12351 H 1178.55 -1.11927 -0.989577 0
M  V30 12352 H 1180.43 -0.803389 -4.13671 0
M  V30 12353 H 1179.11 -0.0156083 -3.23696 0
M  V30 12354 H 1178.02 -2.31378 -2.93965 0
M  V30 12355 H 1179.35 -3.02872 -3.87981 0
M  V30 12356 N 1181 1.07532 -1.15215 0
M  V30 12357 C 1182.24 1.81689 -0.936396 0
M  V30 12358 C 1182.61 1.84622 0.527136 0
M  V30 12359 O 1183.81 2.54632 0.861159 0
M  V30 12360 C 1182.08 3.22919 -1.53161 0
M  V30 12361 S 1183.64 4.13845 -1.4587 0
M  V30 12362 H 1180.45 0.626036 -0.337045 0
M  V30 12363 H 1183.06 1.29191 -1.4673 0
M  V30 12364 H 1181.76 3.18372 -2.58974 0
M  V30 12365 H 1181.29 3.80492 -0.999482 0
M  V30 12366 H 1183.31 4.94152 -0.450317 0
M  V30 12367 N 1182.48 0.948665 1.2585 0
M  V30 12368 C 1183.44 0.468673 2.24357 0
M  V30 12369 C 1184.44 -0.424355 1.551 0
M  V30 12370 O 1185.63 -0.222481 1.72773 0
M  V30 12371 C 1182.77 -0.32359 3.39361 0
M  V30 12372 H 1183.96 1.33928 2.68334 0
M  V30 12373 H 1181.51 0.731357 1.38133 0
M  V30 12374 H 1182.25 -1.21212 3.00796 0
M  V30 12375 H 1182.03 0.316998 3.90816 0
M  V30 12376 H 1183.52 -0.649087 4.12525 0
M  V30 12377 N 1183.96 -1.40369 0.716545 0
M  V30 12378 C 1185.24 -1.94737 0.183576 0
M  V30 12379 C 1185.62 -1.65464 -1.31092 0
M  V30 12380 O 1184.96 -0.972832 -2.06756 0
M  V30 12381 C 1185.17 -3.45438 0.497339 0
M  V30 12382 C 1186.52 -4.2235 0.436526 0
M  V30 12383 O 1187.55 -3.53553 0.433454 0
M  V30 12384 O 1186.4 -5.44923 0.41489 0
M  V30 12385 H 1183.5 -0.82655 0.0272785 0
M  V30 12386 H 1186.04 -1.49972 0.794143 0
M  V30 12387 H 1184.82 -3.60107 1.53097 0
M  V30 12388 H 1184.44 -3.97342 -0.143141 0
M  V30 12389 N 1185.44 -0.462799 -1.50652 0
M  V30 12390 C 1186.68 0.0948568 -2.01877 0
M  V30 12391 C 1187.01 1.4096 -1.34741 0
M  V30 12392 O 1186.28 1.89671 -0.49006 0
M  V30 12393 H 1184.86 0.0380453 -0.746031 0
M  V30 12394 H 1187.52 -0.611327 -1.85064 0
M  V30 12395 H 1186.61 0.252378 -3.11078 0
M  V30 12396 N 1186.91 1.56388 -0.195085 0
M  V30 12397 C 1187.88 2.17859 0.712053 0
M  V30 12398 C 1188.88 1.13304 1.141 0
M  V30 12399 O 1190.07 1.38689 1.05409 0
M  V30 12400 C 1187.2 2.78065 1.97213 0
M  V30 12401 H 1188.39 2.9938 0.176529 0
M  V30 12402 H 1185.95 1.56205 0.0545322 0
M  V30 12403 H 1186.68 2.00342 2.55017 0
M  V30 12404 H 1186.47 3.54603 1.67329 0
M  V30 12405 H 1187.96 3.25266 2.619 0
M  V30 12406 N 1188.39 -0.0785156 1.57404 0
M  V30 12407 C 1189.34 -1.10077 1.99668 0
M  V30 12408 C 1190.33 -1.34855 0.87767 0
M  V30 12409 O 1191.52 -1.35268 1.14156 0
M  V30 12410 C 1188.65 -2.41641 2.43854 0
M  V30 12411 C 1187.73 -2.20166 3.62475 0
M  V30 12412 N 1188.12 -1.68602 4.76872 0
M  V30 12413 C 1186.42 -2.50666 3.68894 0
M  V30 12414 C 1187.12 -1.61785 5.58749 0
M  V30 12415 N 1186.1 -2.07595 5.02399 0
M  V30 12416 H 1189.9 -0.695297 2.85557 0
M  V30 12417 H 1187.42 -0.285694 1.59867 0
M  V30 12418 H 1189.41 -3.15629 2.72367 0
M  V30 12419 H 1188.07 -2.8291 1.59348 0
M  V30 12420 H 1189.08 -1.37561 4.99297 0
M  V30 12421 H 1185.76 -2.95348 2.95087 0
M  V30 12422 H 1187.15 -1.22828 6.60578 0
M  V30 12423 N 1189.87 -1.5367 -0.349747 0
M  V30 12424 C 1191.28 -1.62135 -0.925704 0
M  V30 12425 C 1191.63 -0.498725 -1.89756 0
M  V30 12426 O 1190.76 0.372481 -2.1317 0
M  V30 12427 C 1191.35 -2.93885 -1.68573 0
M  V30 12428 C 1189.91 -3.04632 -2.2108 0
M  V30 12429 C 1189.06 -2.57541 -1.02801 0
M  V30 12430 H 1192.01 -1.58182 -0.128065 0
M  V30 12431 H 1192.03 -2.82577 -2.54815 0
M  V30 12432 H 1191.54 -3.75571 -0.978153 0
M  V30 12433 H 1189.64 -2.27567 -2.95032 0
M  V30 12434 H 1189.76 -4.09993 -2.47876 0
M  V30 12435 H 1188.12 -2.12798 -1.39962 0
M  V30 12436 H 1188.9 -3.4166 -0.335157 0
M  V30 12437 N 1191.35 0.610423 -1.45298 0
M  V30 12438 C 1192.76 1.19234 -1.43667 0
M  V30 12439 C 1193.11 1.95523 -0.162794 0
M  V30 12440 O 1192.24 2.03507 0.735789 0
M  V30 12441 C 1192.83 2.16892 -2.60276 0
M  V30 12442 C 1191.39 2.70465 -2.61774 0
M  V30 12443 C 1190.54 1.45821 -2.35863 0
M  V30 12444 H 1193.49 0.399895 -1.53579 0
M  V30 12445 H 1193.51 2.99875 -2.34212 0
M  V30 12446 H 1193.02 1.61339 -3.52975 0
M  V30 12447 H 1191.12 3.29965 -1.73072 0
M  V30 12448 H 1191.23 3.15092 -3.60907 0
M  V30 12449 H 1189.6 1.74678 -1.85364 0
M  V30 12450 H 1190.38 0.921403 -3.30704 0
M  V30 12451 N 1192.83 1.32541 0.852676 0
M  V30 12452 C 1194.07 1.24532 1.62083 0
M  V30 12453 C 1194.43 -0.189531 1.91062 0
M  V30 12454 O 1195.63 -0.393382 2.65906 0
M  V30 12455 C 1193.9 2.0828 2.90438 0
M  V30 12456 S 1195.46 2.17317 3.81207 0
M  V30 12457 H 1192.28 0.443261 0.555915 0
M  V30 12458 H 1194.88 1.67413 1.00961 0
M  V30 12459 H 1193.59 3.11587 2.67099 0
M  V30 12460 H 1193.12 1.66184 3.56576 0
M  V30 12461 H 1195.13 1.32412 4.78207 0
M  V30 12462 N 1194.3 -1.0692 1.15784 0
M  V30 12463 C 1195.25 -2.12473 0.826994 0
M  V30 12464 C 1196.24 -1.59766 -0.19073 0
M  V30 12465 O 1197.43 -1.76998 0.00917115 0
M  V30 12466 C 1194.56 -3.41779 0.322847 0
M  V30 12467 C 1193.65 -4.01329 1.37098 0
M  V30 12468 N 1194.04 -4.35077 2.57957 0
M  V30 12469 C 1192.33 -4.28854 1.22475 0
M  V30 12470 C 1193.04 -4.82326 3.25171 0
M  V30 12471 N 1192.01 -4.81369 2.52556 0
M  V30 12472 H 1195.81 -2.36404 1.74614 0
M  V30 12473 H 1193.33 -1.244 1.04395 0
M  V30 12474 H 1195.32 -4.16845 0.0674576 0
M  V30 12475 H 1193.98 -3.19289 -0.590311 0
M  V30 12476 H 1195 -4.25626 2.95065 0
M  V30 12477 H 1191.67 -4.15841 0.371839 0
M  V30 12478 H 1193.06 -5.17695 4.28301 0
M  V30 12479 N 1195.78 -0.955326 -1.25345 0
M  V30 12480 C 1196.75 -0.480564 -2.24105 0
M  V30 12481 C 1197.75 0.416123 -1.55322 0
M  V30 12482 O 1198.94 0.213315 -1.72889 0
M  V30 12483 C 1196.07 0.305589 -3.39528 0
M  V30 12484 H 1197.26 -1.35349 -2.6762 0
M  V30 12485 H 1194.81 -0.738673 -1.37744 0
M  V30 12486 H 1195.55 1.19615 -3.01434 0
M  V30 12487 H 1195.33 -0.337719 -3.90643 0
M  V30 12488 H 1196.82 0.627201 -4.12863 0
M  V30 12489 N 1197.26 1.39987 -0.723979 0
M  V30 12490 C 1198.49 2.0556 -0.275634 0
M  V30 12491 C 1198.91 1.54207 1.07711 0
M  V30 12492 O 1198.27 0.681041 1.68022 0
M  V30 12493 C 1198.32 3.59551 -0.27485 0
M  V30 12494 O 1197.42 4.05685 0.741182 0
M  V30 12495 H 1196.76 0.651634 -0.12755 0
M  V30 12496 H 1199.29 1.79229 -0.986814 0
M  V30 12497 H 1199.3 4.07837 -0.115425 0
M  V30 12498 H 1197.98 3.96291 -1.26198 0
M  V30 12499 H 1196.55 3.6884 0.548795 0
M  V30 12500 N 1198.74 0.470782 1.50404 0
M  V30 12501 C 1199.7 -0.312227 2.27063 0
M  V30 12502 C 1200.7 -0.920709 1.31832 0
M  V30 12503 O 1201.89 -0.789937 1.5526 0
M  V30 12504 C 1199.02 -1.44477 3.0877 0
M  V30 12505 H 1200.22 0.36006 2.97731 0
M  V30 12506 H 1197.77 0.224837 1.54674 0
M  V30 12507 H 1198.51 -2.15212 2.42599 0
M  V30 12508 H 1198.29 -1.01426 3.78755 0
M  V30 12509 H 1199.78 -1.99713 3.66749 0
M  V30 12510 N 1200.22 -1.56282 0.203376 0
M  V30 12511 C 1201.63 -1.58871 -0.152335 0
M  V30 12512 C 1201.83 -1.21978 -1.60386 0
M  V30 12513 O 1200.89 -0.946422 -2.34092 0
M  V30 12514 C 1202.2 -3.00287 0.157515 0
M  V30 12515 C 1203.75 -3.12846 0.098287 0
M  V30 12516 C 1204.23 -4.56408 0.38156 0
M  V30 12517 N 1205.72 -4.6202 0.330475 0
M  V30 12518 C 1206.45 -5.71006 0.523397 0
M  V30 12519 N 1205.95 -6.88428 0.777115 0
M  V30 12520 N 1207.74 -5.60238 0.457082 0
M  V30 12521 H 1199.89 -1.78543 1.15048 0
M  V30 12522 H 1202.15 -0.829019 0.459816 0
M  V30 12523 H 1201.86 -3.3187 1.16427 0
M  V30 12524 H 1201.73 -3.73372 -0.536041 0
M  V30 12525 H 1204.12 -2.8107 -0.899085 0
M  V30 12526 H 1204.2 -2.42129 0.825045 0
M  V30 12527 H 1203.85 -4.88897 1.37629 0
M  V30 12528 H 1203.78 -5.25325 -0.366182 0
M  V30 12529 H 1206.27 -3.77636 0.141327 0
M  V30 12530 H 1206.58 -7.67389 0.912911 0
M  V30 12531 H 1204.93 -6.90215 0.814104 0
M  V30 12532 H 1208.12 -4.67382 0.259226 0
M  V30 12533 H 1208.29 -6.45114 0.610848 0
M  V30 12534 N 1201.7 0.070167 -1.57444 0
M  V30 12535 C 1202.94 0.774338 -1.89165 0
M  V30 12536 C 1203.3 1.7466 -0.797353 0
M  V30 12537 O 1204.5 2.49599 -0.997682 0
M  V30 12538 C 1202.77 1.46235 -3.26114 0
M  V30 12539 S 1204.33 2.20136 -3.79586 0
M  V30 12540 H 1201.15 0.257464 -0.662747 0
M  V30 12541 H 1203.75 0.0303734 -1.95476 0
M  V30 12542 H 1202.45 0.740942 -4.03656 0
M  V30 12543 H 1201.99 2.24571 -3.23004 0
M  V30 12544 H 1204 3.4668 -3.55003 0
M  V30 12545 N 1203.17 1.53854 0.341593 0
M  V30 12546 C 1204.59 1.44161 0.684821 0
M  V30 12547 C 1204.79 0.599929 1.92362 0
M  V30 12548 O 1203.85 0.0916771 2.52334 0
M  V30 12549 C 1205.16 2.87668 0.875637 0
M  V30 12550 C 1206.71 2.97455 0.974131 0
M  V30 12551 C 1207.18 4.42075 1.19725 0
M  V30 12552 N 1208.67 4.45609 1.2644 0
M  V30 12553 C 1209.41 5.54643 1.45459 0
M  V30 12554 N 1208.9 6.7368 1.61637 0
M  V30 12555 N 1210.7 5.4226 1.48022 0
M  V30 12556 H 1202.85 2.07069 -0.472883 0
M  V30 12557 H 1205.11 0.936114 -0.149648 0
M  V30 12558 H 1204.82 3.51681 0.0368595 0
M  V30 12559 H 1204.69 3.32731 1.7768 0
M  V30 12560 H 1207.08 2.33582 1.80343 0
M  V30 12561 H 1207.16 2.55751 0.0498282 0
M  V30 12562 H 1206.8 5.06529 0.372872 0
M  V30 12563 H 1206.73 4.81372 2.13515 0
M  V30 12564 H 1209.22 3.59831 1.15455 0
M  V30 12565 H 1209.54 7.52541 1.7579 0
M  V30 12566 H 1207.88 6.76622 1.5877 0
M  V30 12567 H 1211.07 4.48221 1.34966 0
M  V30 12568 H 1211.25 6.27293 1.62502 0
M  V30 12569 N 1204.65 -0.602709 1.4562 0
M  V30 12570 C 1205.6 -1.73425 1.55005 0
M  V30 12571 C 1206.59 -1.64118 0.419713 0
M  V30 12572 O 1207.8 -1.69853 0.595815 0
M  V30 12573 H 1204.17 -0.573038 0.486962 0
M  V30 12574 H 1206.15 -1.62637 2.50184 0
M  V30 12575 C 1204.89 -3.11808 1.53853 0
M  V30 12576 H 1204.22 -3.19631 2.40158 0
M  V30 12577 H 1205.66 -3.90798 1.64477 0
M  V30 12578 C 1204.12 -3.35866 0.263765 0
M  V30 12579 O 1204.65 -3.96334 -0.654364 0
M  V30 12580 N 1202.85 -2.90171 0.157927 0
M  V30 12581 H 1202.4 -2.41144 0.905944 0
M  V30 12582 H 1202.36 -3.06641 -0.694175 0
M  V30 12583 N 1206.13 -1.32992 -0.845635 0
M  V30 12584 C 1207.36 -1.27087 -1.63268 0
M  V30 12585 C 1207.77 0.159481 -1.88125 0
M  V30 12586 O 1207.13 1.09948 -1.45663 0
M  V30 12587 C 1207.18 -2.03649 -2.98679 0
M  V30 12588 O 1206.9 -3.41104 -2.74918 0
M  V30 12589 C 1208.4 -2.04875 -3.93117 0
M  V30 12590 H 1205.62 -0.438107 -0.508236 0
M  V30 12591 H 1208.17 -1.75257 -1.05381 0
M  V30 12592 H 1206.32 -1.59178 -3.53187 0
M  V30 12593 H 1206.74 -3.80405 -3.61099 0
M  V30 12594 H 1208.21 -2.62911 -4.85368 0
M  V30 12595 H 1208.69 -1.03728 -4.26775 0
M  V30 12596 H 1209.29 -2.49334 -3.44547 0
M  V30 12597 N 1207.61 1.06304 -1.1635 0
M  V30 12598 C 1208.55 2.13776 -0.869965 0
M  V30 12599 C 1209.52 1.65105 0.181541 0
M  V30 12600 O 1210.71 1.90743 0.0467705 0
M  V30 12601 C 1207.85 3.43034 -0.377077 0
M  V30 12602 C 1206.96 4.0544 -1.4914 0
M  V30 12603 C 1206.1 5.22572 -0.953538 0
M  V30 12604 C 1205.14 5.76961 -2.04407 0
M  V30 12605 N 1204.27 6.85409 -1.52181 0
M  V30 12606 H 1209.11 2.38224 -1.79034 0
M  V30 12607 H 1206.65 1.16882 -0.893136 0
M  V30 12608 H 1208.61 4.17136 -0.0729426 0
M  V30 12609 H 1207.24 3.18804 0.506359 0
M  V30 12610 H 1206.29 3.28886 -1.9115 0
M  V30 12611 H 1207.6 4.41859 -2.31434 0
M  V30 12612 H 1206.76 6.037 -0.602579 0
M  V30 12613 H 1205.5 4.87598 -0.099897 0
M  V30 12614 H 1204.5 4.9447 -2.40373 0
M  V30 12615 H 1205.73 6.13987 -2.90167 0
M  V30 12616 H 1203.67 6.52354 -0.690697 0
M  V30 12617 H 1203.59 7.2077 -2.28092 0
M  V30 12618 H 1204.86 7.70217 -1.19942 0
M  V30 12619 N 1209.09 0.96196 1.24836 0
M  V30 12620 C 1210.33 0.619489 1.92371 0
M  V30 12621 C 1210.65 -0.847233 1.75633 0
M  V30 12622 O 1209.92 -1.60419 1.12439 0
M  V30 12623 H 1208.5 0.226129 0.711951 0
M  V30 12624 H 1211.17 1.22179 1.5185 0
M  V30 12625 H 1210.26 0.855128 3.00157 0
M  V30 12626 N 1210.56 -1.39601 0.731392 0
M  V30 12627 C 1211.81 -2.0019 0.277208 0
M  V30 12628 C 1212.13 -1.5832 -1.13841 0
M  V30 12629 O 1211.4 -0.829793 -1.77458 0
M  V30 12630 H 1209.98 -0.740344 0.0995006 0
M  V30 12631 H 1212.64 -1.70704 0.940547 0
M  V30 12632 H 1211.74 -3.10427 0.322749 0
M  V30 12633 N 1212.04 -0.478751 -1.50152 0
M  V30 12634 C 1213.29 0.073585 -2.02366 0
M  V30 12635 C 1213.62 1.3903 -1.36018 0
M  V30 12636 O 1212.87 1.89787 -0.477435 0
M  V30 12637 C 1213.17 0.297535 -3.56159 0
M  V30 12638 C 1212.84 -0.938419 -4.41027 0
M  V30 12639 C 1211.5 -1.27727 -4.63939 0
M  V30 12640 C 1213.85 -1.76098 -4.9055 0
M  V30 12641 C 1211.18 -2.4386 -5.33619 0
M  V30 12642 C 1213.53 -2.91366 -5.61506 0
M  V30 12643 C 1212.2 -3.25657 -5.8267 0
M  V30 12644 H 1211.47 0.0269267 -0.740511 0
M  V30 12645 H 1214.11 -0.63439 -1.80687 0
M  V30 12646 H 1212.42 1.08783 -3.76395 0
M  V30 12647 H 1214.11 0.73899 -3.94132 0
M  V30 12648 H 1210.7 -0.664441 -4.23418 0
M  V30 12649 H 1214.89 -1.51237 -4.72696 0
M  V30 12650 H 1210.14 -2.70692 -5.48211 0
M  V30 12651 H 1214.32 -3.55445 -5.98859 0
M  V30 12652 H 1211.95 -4.15751 -6.36439 0
M  V30 12653 N 1213.52 1.56172 -0.211661 0
M  V30 12654 C 1214.45 2.17107 0.734657 0
M  V30 12655 C 1215.47 1.1374 1.16478 0
M  V30 12656 O 1216.65 1.40763 1.09764 0
M  V30 12657 C 1213.75 2.73182 2.00561 0
M  V30 12658 C 1212.93 4.0162 1.73264 0
M  V30 12659 C 1211.99 4.42357 2.84968 0
M  V30 12660 O 1211.01 5.09453 2.53863 0
M  V30 12661 N 1212.21 4.07223 4.13702 0
M  V30 12662 H 1214.98 2.98939 0.213475 0
M  V30 12663 H 1212.54 1.61872 -0.0302898 0
M  V30 12664 H 1214.53 2.97411 2.74461 0
M  V30 12665 H 1213.1 1.9571 2.43754 0
M  V30 12666 H 1212.32 3.85351 0.830575 0
M  V30 12667 H 1213.61 4.85426 1.52445 0
M  V30 12668 H 1213.01 3.53286 4.4182 0
M  V30 12669 H 1211.57 4.36366 4.84178 0
M  V30 12670 N 1215 -0.0618163 1.57479 0
M  V30 12671 C 1216.24 -0.764296 1.89573 0
M  V30 12672 C 1216.6 -1.74235 0.806605 0
M  V30 12673 O 1217.8 -2.49067 1.0109 0
M  V30 12674 C 1216.07 -1.44503 3.26885 0
M  V30 12675 S 1217.63 -2.1812 3.80748 0
M  V30 12676 H 1214.45 -0.253946 0.664103 0
M  V30 12677 H 1217.05 -0.0200064 1.9549 0
M  V30 12678 H 1215.76 -0.719525 4.04043 0
M  V30 12679 H 1215.29 -2.22855 3.2419 0
M  V30 12680 H 1217.3 -3.44793 3.56837 0
M  V30 12681 N 1216.48 -1.54033 -0.333429 0
M  V30 12682 C 1217.41 -1.85719 -1.4153 0
M  V30 12683 C 1218.39 -0.713144 -1.54429 0
M  V30 12684 O 1219.57 -0.965984 -1.68471 0
M  V30 12685 C 1216.7 -2.07578 -2.78439 0
M  V30 12686 C 1215.66 -3.23411 -2.80338 0
M  V30 12687 C 1214.98 -3.30622 -4.2023 0
M  V30 12688 C 1216.28 -4.6129 -2.44968 0
M  V30 12689 H 1217.98 -2.76325 -1.15261 0
M  V30 12690 H 1215.52 -1.32957 -0.55303 0
M  V30 12691 H 1217.48 -2.28329 -3.5418 0
M  V30 12692 H 1216.2 -1.13713 -3.06165 0
M  V30 12693 H 1214.86 -3.02531 -2.07052 0
M  V30 12694 H 1214.51 -2.34333 -4.45081 0
M  V30 12695 H 1214.21 -4.08466 -4.22409 0
M  V30 12696 H 1215.73 -3.53596 -4.97798 0
M  V30 12697 H 1217.14 -4.81987 -3.10421 0
M  V30 12698 H 1215.54 -5.41611 -2.58414 0
M  V30 12699 H 1216.61 -4.6421 -1.40134 0
M  V30 12700 N 1217.95 0.594978 -1.45938 0
M  V30 12701 C 1219.19 1.36479 -1.52161 0
M  V30 12702 C 1219.56 1.91296 -0.164295 0
M  V30 12703 O 1220.76 2.68609 -0.101247 0
M  V30 12704 C 1219.03 2.47286 -2.5804 0
M  V30 12705 S 1220.59 3.34855 -2.8358 0
M  V30 12706 H 1217.41 0.465134 -0.537746 0
M  V30 12707 H 1220.01 0.685257 -1.83097 0
M  V30 12708 H 1218.71 2.05386 -3.5531 0
M  V30 12709 H 1218.24 3.20025 -2.28795 0
M  V30 12710 H 1220.26 4.45788 -2.17916 0
M  V30 12711 N 1219.43 1.33438 0.838571 0
M  V30 12712 C 1220.4 1.23632 1.92997 0
M  V30 12713 C 1221.4 0.155302 1.60048 0
M  V30 12714 O 1222.59 0.406852 1.69382 0
M  V30 12715 C 1219.72 0.90512 3.28665 0
M  V30 12716 H 1220.91 2.20643 2.03117 0
M  V30 12717 H 1218.46 1.17501 1.03069 0
M  V30 12718 H 1219.2 -0.0624833 3.2424 0
M  V30 12719 H 1218.98 1.68688 3.53959 0
M  V30 12720 H 1220.47 0.861262 4.08622 0
M  V30 12721 N 1220.91 -1.05686 1.16912 0
M  V30 12722 C 1222.19 -1.7546 0.864483 0
M  V30 12723 C 1222.57 -2.0128 -0.636359 0
M  V30 12724 O 1221.92 -1.64485 -1.58609 0
M  V30 12725 C 1222.13 -3.05134 1.69395 0
M  V30 12726 C 1223.47 -3.79176 1.91079 0
M  V30 12727 O 1224.5 -3.1499 1.66312 0
M  V30 12728 O 1223.36 -4.94496 2.32671 0
M  V30 12729 H 1220.45 -0.762748 0.319601 0
M  V30 12730 H 1223 -1.11899 1.27581 0
M  V30 12731 H 1221.77 -2.82063 2.71212 0
M  V30 12732 H 1221.39 -3.76431 1.28007 0
M  V30 12733 N 1222.39 -0.968567 -1.24324 0
M  V30 12734 C 1223.8 -0.66964 -1.74278 0
M  V30 12735 C 1224.15 0.81461 -1.7849 0
M  V30 12736 O 1223.28 1.63736 -1.4149 0
M  V30 12737 C 1223.87 -1.20885 -3.165 0
M  V30 12738 C 1222.43 -0.959808 -3.63957 0
M  V30 12739 C 1221.58 -1.34365 -2.42573 0
M  V30 12740 H 1224.53 -1.14379 -1.10015 0
M  V30 12741 H 1224.55 -0.57555 -3.76122 0
M  V30 12742 H 1224.06 -2.28912 -3.13402 0
M  V30 12743 H 1222.16 0.104894 -3.72452 0
M  V30 12744 H 1222.27 -1.60606 -4.51378 0
M  V30 12745 H 1220.64 -0.762039 -2.43033 0
M  V30 12746 H 1221.42 -2.43343 -2.42155 0
M  V30 12747 N 1223.87 1.39211 -0.738786 0
M  V30 12748 C 1225.1 2.04435 -0.298318 0
M  V30 12749 C 1225.5 1.55822 1.07314 0
M  V30 12750 O 1224.85 0.719922 1.69005 0
M  V30 12751 C 1224.91 3.58789 -0.225979 0
M  V30 12752 C 1224.57 4.30395 -1.53653 0
M  V30 12753 C 1225.57 4.56777 -2.48295 0
M  V30 12754 C 1223.26 4.68869 -1.80187 0
M  V30 12755 C 1225.25 5.20648 -3.67702 0
M  V30 12756 C 1222.94 5.32467 -2.99871 0
M  V30 12757 C 1223.93 5.58289 -3.93449 0
M  V30 12758 O 1223.62 6.20567 -5.1103 0
M  V30 12759 H 1223.35 0.663848 -0.127603 0
M  V30 12760 H 1225.91 1.79171 -1.00433 0
M  V30 12761 H 1224.14 3.82965 0.536164 0
M  V30 12762 H 1225.83 4.05487 0.182996 0
M  V30 12763 H 1226.59 4.27497 -2.29066 0
M  V30 12764 H 1222.47 4.48124 -1.08193 0
M  V30 12765 H 1226.02 5.4072 -4.40759 0
M  V30 12766 H 1221.91 5.61169 -3.18998 0
M  V30 12767 H 1222.68 6.39059 -5.11415 0
M  V30 12768 N 1225.34 0.486708 1.49896 0
M  V30 12769 C 1226.25 -0.304222 2.32619 0
M  V30 12770 C 1227.27 -0.981103 1.43702 0
M  V30 12771 O 1228.45 -0.965639 1.76741 0
M  V30 12772 C 1225.51 -1.36301 3.18783 0
M  V30 12773 C 1224.57 -0.701082 4.23537 0
M  V30 12774 C 1223.81 -1.70943 5.05583 0
M  V30 12775 O 1224.03 -2.93773 4.88931 0
M  V30 12776 O 1222.96 -1.27263 5.88292 0
M  V30 12777 H 1226.79 0.37248 3.01407 0
M  V30 12778 H 1224.37 0.248277 1.47323 0
M  V30 12779 H 1226.26 -1.97594 3.72202 0
M  V30 12780 H 1224.93 -2.0229 2.52706 0
M  V30 12781 H 1223.84 -0.0487926 3.74068 0
M  V30 12782 H 1225.17 -0.0838817 4.92129 0
M  V30 12783 N 1226.82 -1.56058 0.219941 0
M  V30 12784 C 1227.75 -2.2321 -0.685547 0
M  V30 12785 C 1228.73 -1.20328 -1.20229 0
M  V30 12786 O 1229.92 -1.48909 -1.24659 0
M  V30 12787 C 1227.05 -2.91076 -1.89452 0
M  V30 12788 C 1226 -4.00415 -1.51169 0
M  V30 12789 C 1225.33 -4.55569 -2.79931 0
M  V30 12790 C 1226.63 -5.17549 -0.702896 0
M  V30 12791 H 1228.32 -2.99136 -0.125671 0
M  V30 12792 H 1225.87 -1.43879 -0.0590043 0
M  V30 12793 H 1227.82 -3.36744 -2.53341 0
M  V30 12794 H 1226.55 -2.12594 -2.47934 0
M  V30 12795 H 1225.21 -3.55475 -0.896275 0
M  V30 12796 H 1224.85 -3.73819 -3.36553 0
M  V30 12797 H 1224.55 -5.29361 -2.55049 0
M  V30 12798 H 1226.08 -5.03955 -3.44764 0
M  V30 12799 H 1227.49 -5.59608 -1.24544 0
M  V30 12800 H 1225.89 -5.97563 -0.551234 0
M  V30 12801 H 1226.96 -4.84027 0.29083 0
M  V30 12802 N 1228.3 0.053464 -1.57509 0
M  V30 12803 C 1229.55 0.747622 -1.87763 0
M  V30 12804 C 1229.87 1.77178 -0.814433 0
M  V30 12805 O 1229.14 1.95287 0.154862 0
M  V30 12806 H 1227.72 0.279109 -0.692898 0
M  V30 12807 H 1230.38 0.0252006 -1.94884 0
M  V30 12808 H 1229.48 1.25244 -2.85868 0
M  V30 12809 N 1229.78 1.54207 0.325255 0
M  V30 12810 C 1231.06 1.6298 1.08153 0
M  V30 12811 C 1231.44 0.462583 2.05969 0
M  V30 12812 O 1230.78 -0.543323 2.21947 0
M  V30 12813 C 1230.99 2.999 1.78497 0
M  V30 12814 C 1232.34 3.55888 2.3158 0
M  V30 12815 O 1233.37 3.02194 1.88566 0
M  V30 12816 O 1232.23 4.49847 3.10322 0
M  V30 12817 H 1229.32 0.659923 0.498429 0
M  V30 12818 H 1231.87 1.66553 0.325282 0
M  V30 12819 H 1230.64 3.7629 1.07338 0
M  V30 12820 H 1230.26 2.99997 2.60936 0
M  V30 12821 N 1231.26 -0.58723 1.46251 0
M  V30 12822 C 1232.53 -1.34727 1.41802 0
M  V30 12823 C 1232.91 -2.10867 0.0991354 0
M  V30 12824 O 1232.26 -2.09194 -0.919242 0
M  V30 12825 C 1232.47 -2.27706 2.64482 0
M  V30 12826 C 1233.82 -2.89678 3.10438 0
M  V30 12827 O 1234.84 -2.38021 2.64999 0
M  V30 12828 O 1233.7 -3.83493 3.89352 0
M  V30 12829 H 1230.8 -0.605119 0.563702 0
M  V30 12830 H 1233.34 -0.608623 1.5841 0
M  V30 12831 H 1232.12 -1.70842 3.52035 0
M  V30 12832 H 1231.74 -3.08918 2.50311 0
M  V30 12833 N 1232.74 -1.33881 -0.831482 0
M  V30 12834 C 1233.98 -1.25507 -1.58406 0
M  V30 12835 C 1234.3 0.177137 -1.94194 0
M  V30 12836 O 1233.57 1.10769 -1.61576 0
M  V30 12837 H 1232.15 -0.461551 -0.587349 0
M  V30 12838 H 1234.82 -1.6769 -0.99328 0
M  V30 12839 H 1233.91 -1.85391 -2.51071 0
M  V30 12840 N 1234.21 1.05064 -1.1747 0
M  V30 12841 C 1235.63 1.30256 -0.922248 0
M  V30 12842 C 1235.83 1.97119 0.417896 0
M  V30 12843 O 1234.89 2.24557 1.15457 0
M  V30 12844 C 1236.2 2.17109 -2.08049 0
M  V30 12845 C 1237.75 2.30487 -2.11766 0
M  V30 12846 C 1238.22 3.20701 -3.26979 0
M  V30 12847 N 1239.71 3.28287 -3.26775 0
M  V30 12848 C 1240.45 3.98218 -4.12565 0
M  V30 12849 N 1239.94 4.70567 -5.08467 0
M  V30 12850 N 1241.74 3.94395 -4.00511 0
M  V30 12851 H 1233.89 0.600653 -2.0373 0
M  V30 12852 H 1236.15 0.327475 -0.889643 0
M  V30 12853 H 1235.86 1.75273 -3.04914 0
M  V30 12854 H 1235.73 3.1775 -2.03261 0
M  V30 12855 H 1238.12 2.71564 -1.15486 0
M  V30 12856 H 1238.2 1.29471 -2.20615 0
M  V30 12857 H 1237.84 2.80337 -4.23525 0
M  V30 12858 H 1237.77 4.21725 -3.15366 0
M  V30 12859 H 1240.26 2.76739 -2.5734 0
M  V30 12860 H 1240.58 5.21492 -5.70321 0
M  V30 12861 H 1238.92 4.69505 -5.12436 0
M  V30 12862 H 1242.11 3.37 -3.24882 0
M  V30 12863 H 1242.29 4.48626 -4.67588 0
M  V30 12864 N 1235.69 0.975146 1.23809 0
M  V30 12865 C 1236.92 0.658978 1.96125 0
M  V30 12866 C 1237.33 -0.773044 1.72248 0
M  V30 12867 O 1236.69 -1.51956 1.01072 0
M  V30 12868 C 1236.74 0.933355 3.49243 0
M  V30 12869 O 1236.46 2.30909 3.72307 0
M  V30 12870 C 1237.96 0.632408 4.38766 0
M  V30 12871 H 1235.18 0.245237 0.62458 0
M  V30 12872 H 1237.73 1.3051 1.5744 0
M  V30 12873 H 1235.88 0.333323 3.85963 0
M  V30 12874 H 1236.3 2.39476 4.66638 0
M  V30 12875 H 1237.77 0.874791 5.45024 0
M  V30 12876 H 1238.25 -0.433453 4.37056 0
M  V30 12877 H 1238.85 1.21268 4.07645 0
M  V30 12878 N 1237.17 -1.38817 0.746158 0
M  V30 12879 C 1238.41 -2.02129 0.303843 0
M  V30 12880 C 1238.77 -1.57943 -1.0917 0
M  V30 12881 O 1239.97 -2.13532 -1.63272 0
M  V30 12882 C 1238.25 -3.5499 0.414379 0
M  V30 12883 S 1239.8 -4.38767 0.0535495 0
M  V30 12884 H 1236.62 -0.701084 0.118329 0
M  V30 12885 H 1239.22 -1.69444 0.975137 0
M  V30 12886 H 1237.93 -3.84638 1.43114 0
M  V30 12887 H 1237.46 -3.92442 -0.274355 0
M  V30 12888 H 1239.47 -4.82469 -1.15921 0
M  V30 12889 N 1238.65 -0.49465 -1.49636 0
M  V30 12890 C 1239.89 0.0521945 -2.02733 0
M  V30 12891 C 1240.23 1.3723 -1.37411 0
M  V30 12892 O 1239.5 1.87758 -0.507642 0
M  V30 12893 C 1239.78 0.2114 -3.59479 0
M  V30 12894 C 1239.64 -1.13138 -4.35339 0
M  V30 12895 C 1240.96 0.955015 -4.29613 0
M  V30 12896 H 1238.08 0.0174946 -0.736792 0
M  V30 12897 H 1240.72 -0.644827 -1.78723 0
M  V30 12898 H 1238.87 0.805078 -3.80067 0
M  V30 12899 H 1240.54 -1.76345 -4.26263 0
M  V30 12900 H 1238.78 -1.72224 -3.98147 0
M  V30 12901 H 1239.45 -0.97336 -5.4335 0
M  V30 12902 H 1241.93 0.451575 -4.13642 0
M  V30 12903 H 1240.81 1.03524 -5.39049 0
M  V30 12904 H 1241.07 1.99724 -3.94414 0
M  V30 12905 N 1240.13 1.55939 -0.228214 0
M  V30 12906 C 1241.4 1.90329 0.451033 0
M  V30 12907 C 1241.78 1.14646 1.77255 0
M  V30 12908 O 1241.13 0.257912 2.2704 0
M  V30 12909 C 1241.34 3.43129 0.637456 0
M  V30 12910 C 1242.69 4.14022 0.94186 0
M  V30 12911 O 1243.71 3.48764 0.724002 0
M  V30 12912 O 1242.57 5.29418 1.35568 0
M  V30 12913 H 1239.67 0.791591 0.2394 0
M  V30 12914 H 1242.21 1.67524 -0.270893 0
M  V30 12915 H 1240.98 3.90191 -0.294435 0
M  V30 12916 H 1240.61 3.71735 1.41062 0
M  V30 12917 N 1241.6 -0.0451101 1.57535 0
M  V30 12918 C 1242.83 -0.755068 1.93167 0
M  V30 12919 C 1243.25 -1.68949 0.826915 0
M  V30 12920 O 1242.61 -1.79978 -0.218534 0
M  V30 12921 C 1242.66 -1.50201 3.27829 0
M  V30 12922 O 1241.76 -2.61434 3.18945 0
M  V30 12923 H 1241.11 -0.204219 0.631815 0
M  V30 12924 H 1243.64 -0.00537504 2.04599 0
M  V30 12925 H 1243.65 -1.87547 3.6234 0
M  V30 12926 H 1242.32 -0.816591 4.07805 0
M  V30 12927 H 1240.9 -2.26749 2.96039 0
M  V30 12928 N 1243.08 -1.54377 -0.317073 0
M  V30 12929 C 1244.33 -1.72551 -1.05216 0
M  V30 12930 C 1244.65 -0.5055 -1.88334 0
M  V30 12931 O 1243.92 0.480439 -1.89917 0
M  V30 12932 H 1242.5 -0.636222 -0.391447 0
M  V30 12933 H 1245.16 -1.91696 -0.35194 0
M  V30 12934 H 1244.26 -2.60791 -1.71448 0
M  V30 12935 N 1244.56 0.579466 -1.4656 0
M  V30 12936 C 1245.98 0.903163 -1.31587 0
M  V30 12937 C 1246.18 1.99406 -0.28972 0
M  V30 12938 O 1245.23 2.50632 0.30658 0
M  V30 12939 C 1246.55 1.31745 -2.70303 0
M  V30 12940 C 1248.09 1.43012 -2.78418 0
M  V30 12941 C 1248.57 1.87805 -4.17724 0
M  V30 12942 N 1250.06 1.94993 -4.20157 0
M  V30 12943 C 1250.79 2.30934 -5.2484 0
M  V30 12944 N 1250.29 2.65645 -6.39847 0
M  V30 12945 N 1252.08 2.31517 -5.12207 0
M  V30 12946 H 1244.23 -0.141111 -2.11931 0
M  V30 12947 H 1246.5 -0.000460304 -0.948 0
M  V30 12948 H 1246.2 0.589864 -3.46718 0
M  V30 12949 H 1246.08 2.2783 -3.00622 0
M  V30 12950 H 1248.46 2.14856 -2.02289 0
M  V30 12951 H 1248.55 0.451701 -2.5178 0
M  V30 12952 H 1248.19 1.16539 -4.94349 0
M  V30 12953 H 1248.12 2.86611 -4.41771 0
M  V30 12954 H 1250.61 1.70645 -3.37178 0
M  V30 12955 H 1250.92 2.92032 -7.15498 0
M  V30 12956 H 1249.27 2.63276 -6.43204 0
M  V30 12957 H 1252.46 2.03824 -4.21394 0
M  V30 12958 H 1252.63 2.59199 -5.93902 0
M  V30 12959 N 1246.04 1.3432 0.824371 0
M  V30 12960 C 1246.97 1.2842 1.95014 0
M  V30 12961 C 1247.95 0.161925 1.69328 0
M  V30 12962 O 1249.13 0.354052 1.90945 0
M  V30 12963 C 1246.26 1.03741 3.31444 0
M  V30 12964 C 1245.22 2.12419 3.71567 0
M  V30 12965 C 1244.54 1.72931 5.05963 0
M  V30 12966 C 1245.84 3.54235 3.83817 0
M  V30 12967 H 1247.54 2.22614 2.00209 0
M  V30 12968 H 1245.08 1.07165 0.961856 0
M  V30 12969 H 1247.04 0.982586 4.09784 0
M  V30 12970 H 1245.76 0.0598892 3.26545 0
M  V30 12971 H 1244.42 2.16968 2.955 0
M  V30 12972 H 1244.07 0.738433 4.9755 0
M  V30 12973 H 1243.77 2.45668 5.3378 0
M  V30 12974 H 1245.29 1.68941 5.86763 0
M  V30 12975 H 1246.71 3.52106 4.52432 0
M  V30 12976 H 1245.1 4.25581 4.23085 0
M  V30 12977 H 1246.17 3.91682 2.85856 0
M  V30 12978 N 1247.52 -1.0444 1.18026 0
M  V30 12979 C 1248.93 -1.5903 0.978076 0
M  V30 12980 C 1249.28 -1.90407 -0.473241 0
M  V30 12981 O 1248.4 -1.69133 -1.34992 0
M  V30 12982 C 1249 -2.88942 1.76912 0
M  V30 12983 C 1247.56 -3.40164 1.61139 0
M  V30 12984 C 1246.7 -2.13797 1.76596 0
M  V30 12985 H 1249.66 -0.871574 1.32625 0
M  V30 12986 H 1249.68 -3.59173 1.25598 0
M  V30 12987 H 1249.19 -2.66074 2.82535 0
M  V30 12988 H 1247.29 -3.68053 0.580353 0
M  V30 12989 H 1247.4 -4.14241 2.40709 0
M  V30 12990 H 1245.77 -2.24922 1.19507 0
M  V30 12991 H 1246.55 -1.93389 2.83647 0
M  V30 12992 N 1248.99 -0.981699 -1.2329 0
M  V30 12993 C 1250.41 -0.690539 -1.43888 0
M  V30 12994 C 1250.61 0.742816 -1.87309 0
M  V30 12995 O 1249.67 1.5151 -2.01993 0
M  V30 12996 C 1250.98 -1.68657 -2.48948 0
M  V30 12997 C 1252.53 -1.70076 -2.62761 0
M  V30 12998 C 1253 -2.68513 -3.71032 0
M  V30 12999 N 1254.49 -2.67039 -3.78476 0
M  V30 13000 C 1255.23 -3.39874 -4.61815 0
M  V30 13001 N 1254.72 -4.22273 -5.49233 0
M  V30 13002 N 1256.52 -3.28633 -4.56023 0
M  V30 13003 H 1248.67 -1.90758 -0.934077 0
M  V30 13004 H 1250.93 -0.822058 -0.472149 0
M  V30 13005 H 1250.64 -2.7117 -2.23964 0
M  V30 13006 H 1250.51 -1.47045 -3.47358 0
M  V30 13007 H 1252.9 -0.682673 -2.87095 0
M  V30 13008 H 1252.98 -1.95754 -1.64663 0
M  V30 13009 H 1252.62 -3.70464 -3.47446 0
M  V30 13010 H 1252.55 -2.40109 -4.68674 0
M  V30 13011 H 1255.04 -2.07241 -3.16006 0
M  V30 13012 H 1255.36 -4.74702 -6.09818 0
M  V30 13013 H 1253.7 -4.26364 -5.48852 0
M  V30 13014 H 1256.89 -2.6371 -3.86749 0
M  V30 13015 H 1257.07 -3.85656 -5.20743 0
M  V30 13016 N 1250.47 1.3842 -0.753509 0
M  V30 13017 C 1251.72 2.00415 -0.310091 0
M  V30 13018 C 1252.05 1.59675 1.10532 0
M  V30 13019 O 1251.33 0.834261 1.757 0
M  V30 13020 C 1251.61 3.57488 -0.432897 0
M  V30 13021 C 1251.46 4.08193 -1.88941 0
M  V30 13022 C 1252.78 4.39757 0.173763 0
M  V30 13023 H 1249.9 0.728107 -0.114147 0
M  V30 13024 H 1252.54 1.64363 -0.953138 0
M  V30 13025 H 1250.69 3.88331 0.114563 0
M  V30 13026 H 1252.36 3.87993 -2.49517 0
M  V30 13027 H 1250.61 3.61063 -2.4045 0
M  V30 13028 H 1251.28 5.17291 -1.9265 0
M  V30 13029 H 1253.75 4.15066 -0.293137 0
M  V30 13030 H 1252.63 5.4887 0.057594 0
M  V30 13031 H 1252.89 4.23704 1.26205 0
M  V30 13032 N 1251.95 0.502579 1.49372 0
M  V30 13033 C 1253.18 -0.0381429 2.06865 0
M  V30 13034 C 1253.59 -1.30674 1.36271 0
M  V30 13035 O 1252.95 -1.77078 0.441532 0
M  V30 13036 C 1253 -0.294068 3.60302 0
M  V30 13037 O 1252.72 0.924244 4.2824 0
M  V30 13038 C 1254.22 -0.878253 4.34513 0
M  V30 13039 H 1251.44 0.0211756 0.670666 0
M  V30 13040 H 1253.99 0.700387 1.92132 0
M  V30 13041 H 1252.14 -0.982583 3.74732 0
M  V30 13042 H 1252.56 0.688062 5.19967 0
M  V30 13043 H 1254.03 -1.0069 5.42739 0
M  V30 13044 H 1254.51 -1.87643 3.97098 0
M  V30 13045 H 1255.11 -0.227157 4.24693 0
M  V30 13046 N 1253.43 -1.55816 0.23648 0
M  V30 13047 C 1254.67 -1.99725 -0.384898 0
M  V30 13048 C 1255.03 -1.12169 -1.5632 0
M  V30 13049 O 1254.32 -0.17491 -1.908 0
M  V30 13050 C 1254.52 -3.47039 -0.85434 0
M  V30 13051 C 1254.35 -4.48847 0.276929 0
M  V30 13052 C 1253.12 -4.9973 0.748215 0
M  V30 13053 C 1255.31 -5.02391 1.10036 0
M  V30 13054 N 1253.3 -5.85267 1.85298 0
M  V30 13055 C 1254.67 -5.84998 2.0537 0
M  V30 13056 C 1256.72 -4.84718 1.1381 0
M  V30 13057 C 1255.42 -6.5182 3.04177 0
M  V30 13058 C 1257.45 -5.5231 2.11442 0
M  V30 13059 C 1256.81 -6.34697 3.05514 0
M  V30 13060 H 1252.91 -0.774632 -0.107094 0
M  V30 13061 H 1255.5 -1.91498 0.351673 0
M  V30 13062 H 1253.67 -3.55684 -1.56023 0
M  V30 13063 H 1255.4 -3.7784 -1.44979 0
M  V30 13064 H 1252.15 -4.7242 0.334178 0
M  V30 13065 H 1252.58 -6.32735 2.40782 0
M  V30 13066 H 1257.22 -4.20662 0.424703 0
M  V30 13067 H 1254.94 -7.15049 3.76471 0
M  V30 13068 H 1258.52 -5.40594 2.15056 0
M  V30 13069 H 1257.4 -6.86077 3.79827 0
M  V30 13070 N 1254.91 0.036755 -1.57557 0
M  V30 13071 C 1256.16 0.728107 -1.881 0
M  V30 13072 C 1256.47 1.7693 -0.833974 0
M  V30 13073 O 1257.67 2.5127 -1.02837 0
M  V30 13074 C 1256.13 1.34604 -3.33781 0
M  V30 13075 C 1255.74 0.341599 -4.46696 0
M  V30 13076 C 1257.48 2.01772 -3.73481 0
M  V30 13077 C 1255.39 0.967444 -5.83433 0
M  V30 13078 H 1254.32 0.275695 -0.701789 0
M  V30 13079 H 1256.97 -0.0177555 -1.83491 0
M  V30 13080 H 1255.35 2.14135 -3.3311 0
M  V30 13081 H 1256.53 -0.426441 -4.58823 0
M  V30 13082 H 1254.84 -0.227558 -4.15778 0
M  V30 13083 H 1257.44 2.49435 -4.72955 0
M  V30 13084 H 1257.78 2.83255 -3.05077 0
M  V30 13085 H 1258.31 1.29026 -3.76294 0
M  V30 13086 H 1255.05 0.19219 -6.55218 0
M  V30 13087 H 1254.57 1.70551 -5.75041 0
M  V30 13088 H 1256.25 1.47705 -6.29914 0
M  V30 13089 N 1256.39 1.54543 0.308881 0
M  V30 13090 C 1257.61 1.77753 1.06857 0
M  V30 13091 C 1258.04 0.531616 1.80431 0
M  V30 13092 O 1257.39 -0.517513 1.73757 0
M  V30 13093 C 1257.44 2.97968 2.03094 0
M  V30 13094 O 1256.55 2.70541 3.11257 0
M  V30 13095 H 1255.89 0.588576 0.307368 0
M  V30 13096 H 1258.42 2.01607 0.348703 0
M  V30 13097 H 1258.43 3.25722 2.45702 0
M  V30 13098 H 1257.1 3.88314 1.48948 0
M  V30 13099 H 1255.68 2.53781 2.7322 0
M  V30 13100 N 1257.86 -0.571685 1.46866 0
M  V30 13101 C 1258.8 -1.69502 1.52788 0
M  V30 13102 C 1259.77 -1.58071 0.381109 0
M  V30 13103 O 1260.96 -1.79132 0.586844 0
M  V30 13104 C 1258.09 -3.07642 1.41682 0
M  V30 13105 C 1257.13 -3.37562 2.6068 0
M  V30 13106 S 1257.96 -3.28413 4.22971 0
M  V30 13107 C 1259.12 -4.69073 4.14393 0
M  V30 13108 H 1259.35 -1.64221 2.47828 0
M  V30 13109 H 1256.89 -0.751334 1.34886 0
M  V30 13110 H 1258.84 -3.8733 1.35962 0
M  V30 13111 H 1257.51 -3.10403 0.480517 0
M  V30 13112 H 1256.7 -4.38233 2.48933 0
M  V30 13113 H 1256.3 -2.65464 2.63448 0
M  V30 13114 H 1258.59 -5.59706 3.81754 0
M  V30 13115 H 1259.54 -4.85877 5.15101 0
M  V30 13116 H 1259.94 -4.4644 3.45473 0
M  V30 13117 N 1259.34 -1.34755 -0.817236 0
M  V30 13118 C 1260.57 -1.30676 -1.61054 0
M  V30 13119 C 1260.99 0.115343 -1.87746 0
M  V30 13120 O 1260.35 1.07887 -1.45705 0
M  V30 13121 C 1260.4 -2.10881 -2.92509 0
M  V30 13122 O 1259.5 -1.48223 -3.84842 0
M  V30 13123 H 1258.84 -0.448531 -0.489608 0
M  V30 13124 H 1261.37 -1.77642 -1.01512 0
M  V30 13125 H 1261.38 -2.22446 -3.42026 0
M  V30 13126 H 1260.06 -3.14274 -2.72406 0
M  V30 13127 H 1258.63 -1.45434 -3.4337 0
M  V30 13128 N 1260.82 1.03812 -1.18578 0
M  V30 13129 C 1261.75 2.13802 -0.938665 0
M  V30 13130 C 1262.73 1.69643 0.124575 0
M  V30 13131 O 1263.92 1.94179 -0.0285421 0
M  V30 13132 C 1261.05 3.44154 -0.466392 0
M  V30 13133 C 1260 4.01949 -1.47041 0
M  V30 13134 C 1259.33 5.27811 -0.855558 0
M  V30 13135 C 1260.63 4.37827 -2.84789 0
M  V30 13136 H 1262.32 2.34732 -1.85852 0
M  V30 13137 H 1259.87 1.12808 -0.895007 0
M  V30 13138 H 1261.82 4.20463 -0.280856 0
M  V30 13139 H 1260.54 3.22918 0.489041 0
M  V30 13140 H 1259.2 3.27725 -1.64293 0
M  V30 13141 H 1258.85 5.02886 0.107142 0
M  V30 13142 H 1258.55 5.67441 -1.52592 0
M  V30 13143 H 1260.07 6.06795 -0.680609 0
M  V30 13144 H 1261.49 5.05112 -2.71173 0
M  V30 13145 H 1259.88 4.88514 -3.48532 0
M  V30 13146 H 1260.95 3.47541 -3.38147 0
M  V30 13147 N 1262.3 0.988223 1.22768 0
M  V30 13148 C 1263.26 0.539813 2.22752 0
M  V30 13149 C 1264.26 -0.374796 1.56371 0
M  V30 13150 O 1265.45 -0.167402 1.73394 0
M  V30 13151 C 1262.58 -0.215461 3.40218 0
M  V30 13152 H 1263.78 1.42397 2.63938 0
M  V30 13153 H 1261.33 0.774933 1.35737 0
M  V30 13154 H 1262.06 -1.11581 3.045 0
M  V30 13155 H 1261.85 0.441173 3.8961 0
M  V30 13156 H 1263.34 -0.517517 4.14381 0
M  V30 13157 N 1263.78 -1.38018 0.760839 0
M  V30 13158 C 1264.74 -2.28734 0.146154 0
M  V30 13159 C 1265.74 -1.47525 -0.639768 0
M  V30 13160 O 1266.93 -1.6788 -0.464964 0
M  V30 13161 C 1264.06 -3.31356 -0.801019 0
M  V30 13162 H 1265.25 -2.84599 0.945692 0
M  V30 13163 H 1262.81 -1.471 0.528323 0
M  V30 13164 H 1263.54 -2.80594 -1.62597 0
M  V30 13165 H 1263.33 -3.91366 -0.239775 0
M  V30 13166 H 1264.82 -3.99171 -1.22687 0
M  V30 13167 N 1265.25 -0.510493 -1.49103 0
M  V30 13168 C 1266.18 0.251999 -2.32136 0
M  V30 13169 C 1267.16 0.953613 -1.40855 0
M  V30 13170 O 1268.35 0.943178 -1.69758 0
M  V30 13171 C 1265.48 1.31118 -3.21598 0
M  V30 13172 C 1264.43 0.72888 -4.21748 0
M  V30 13173 C 1263.76 1.88928 -5.0021 0
M  V30 13174 C 1265.06 -0.286425 -5.21514 0
M  V30 13175 H 1266.75 -0.441102 -2.96133 0
M  V30 13176 H 1264.3 -0.213577 -1.42407 0
M  V30 13177 H 1266.25 1.8524 -3.78503 0
M  V30 13178 H 1264.98 2.0336 -2.55563 0
M  V30 13179 H 1263.64 0.209336 -3.66002 0
M  V30 13180 H 1263.28 2.59961 -4.30615 0
M  V30 13181 H 1262.98 1.50568 -5.67981 0
M  V30 13182 H 1264.51 2.43465 -5.59962 0
M  V30 13183 H 1265.92 0.166997 -5.73057 0
M  V30 13184 H 1264.32 -0.586361 -5.97228 0
M  V30 13185 H 1265.39 -1.19904 -4.69842 0
M  V30 13186 N 1266.73 1.55688 -0.24474 0
M  V30 13187 C 1267.66 2.24272 0.64995 0
M  V30 13188 C 1268.64 1.22226 1.183 0
M  V30 13189 O 1269.83 1.50873 1.22274 0
M  V30 13190 C 1266.96 2.94053 1.84798 0
M  V30 13191 C 1265.91 4.02769 1.44779 0
M  V30 13192 C 1265.24 4.59965 2.72647 0
M  V30 13193 C 1266.54 5.18601 0.62047 0
M  V30 13194 H 1268.23 2.99298 0.0780654 0
M  V30 13195 H 1265.78 1.43955 0.0361069 0
M  V30 13196 H 1267.73 3.40732 2.47951 0
M  V30 13197 H 1266.45 2.16511 2.44521 0
M  V30 13198 H 1265.11 3.56856 0.839609 0
M  V30 13199 H 1264.76 3.79126 3.30564 0
M  V30 13200 H 1264.46 5.33352 2.46596 0
M  V30 13201 H 1265.99 5.09376 3.36703 0
M  V30 13202 H 1267.4 5.61519 1.15625 0
M  V30 13203 H 1265.8 5.98364 0.456097 0
M  V30 13204 H 1266.87 4.83503 -0.367798 0
M  V30 13205 N 1268.21 -0.0283989 1.57574 0
M  V30 13206 C 1269.46 -0.718121 1.88483 0
M  V30 13207 C 1269.77 -1.76485 0.843345 0
M  V30 13208 O 1270.98 -2.50721 1.04169 0
M  V30 13209 C 1269.43 -1.32832 3.3449 0
M  V30 13210 C 1269.04 -0.317905 4.46871 0
M  V30 13211 C 1270.79 -1.99788 3.74546 0
M  V30 13212 C 1268.69 -0.936489 5.83938 0
M  V30 13213 H 1267.62 -0.271969 0.703242 0
M  V30 13214 H 1270.27 0.0274862 1.83479 0
M  V30 13215 H 1268.66 -2.12366 3.34241 0
M  V30 13216 H 1269.83 0.450767 4.5859 0
M  V30 13217 H 1268.14 0.249605 4.15651 0
M  V30 13218 H 1270.74 -2.46923 4.74271 0
M  V30 13219 H 1271.08 -2.81633 3.06575 0
M  V30 13220 H 1271.62 -1.27029 3.76973 0
M  V30 13221 H 1268.36 -0.15744 6.55311 0
M  V30 13222 H 1267.88 -1.67499 5.75938 0
M  V30 13223 H 1269.56 -1.44363 6.30689 0
M  V30 13224 N 1269.69 -1.54705 -0.300681 0
M  V30 13225 C 1270.94 -1.73658 -1.0338 0
M  V30 13226 C 1271.26 -0.525447 -1.87787 0
M  V30 13227 O 1270.53 0.460269 -1.90416 0
M  V30 13228 H 1269.11 -0.640338 -0.384677 0
M  V30 13229 H 1271.77 -1.92059 -0.331588 0
M  V30 13230 H 1270.86 -2.62595 -1.68672 0
M  V30 13231 N 1271.17 0.563888 -1.47167 0
M  V30 13232 C 1272.41 1.31875 -1.53145 0
M  V30 13233 C 1272.74 1.94047 -0.192518 0
M  V30 13234 O 1272.01 1.79577 0.782872 0
M  V30 13235 H 1270.59 0.489694 -0.5641 0
M  V30 13236 H 1273.25 0.658976 -1.83422 0
M  V30 13237 H 1272.34 2.11574 -2.2944 0
M  V30 13238 N 1272.64 1.35187 0.810078 0
M  V30 13239 C 1273.89 1.28264 1.56699 0
M  V30 13240 C 1274.22 -0.143906 1.93967 0
M  V30 13241 O 1273.47 -1.10832 1.61291 0
M  V30 13242 C 1273.77 2.13135 2.86894 0
M  V30 13243 C 1273.44 3.61974 2.6886 0
M  V30 13244 C 1272.1 4.02545 2.63649 0
M  V30 13245 C 1274.45 4.5643 2.51636 0
M  V30 13246 C 1271.78 5.35745 2.39154 0
M  V30 13247 C 1274.13 5.89824 2.2867 0
M  V30 13248 C 1272.8 6.29544 2.2188 0
M  V30 13249 H 1272.07 0.469353 0.573401 0
M  V30 13250 H 1274.71 1.67051 0.936282 0
M  V30 13251 H 1273.02 1.67218 3.54324 0
M  V30 13252 H 1274.72 2.05117 3.44569 0
M  V30 13253 H 1271.31 3.29777 2.73761 0
M  V30 13254 H 1275.49 4.25974 2.54677 0
M  V30 13255 H 1270.75 5.65524 2.32363 0
M  V30 13256 H 1274.92 6.62597 2.14333 0
M  V30 13257 H 1272.55 7.32689 2.0266 0
M  V30 13258 N 1274.12 -1.03182 1.19127 0
M  V30 13259 C 1275.09 -2.09559 0.928307 0
M  V30 13260 C 1276.09 -1.60548 -0.0899992 0
M  V30 13261 O 1277.28 -1.736 0.144422 0
M  V30 13262 C 1274.41 -3.38609 0.394561 0
M  V30 13263 H 1275.6 -2.34321 1.87173 0
M  V30 13264 H 1273.15 -1.19746 1.00452 0
M  V30 13265 H 1273.89 -3.19515 -0.555046 0
M  V30 13266 H 1273.67 -3.75502 1.12873 0
M  V30 13267 H 1275.16 -4.16969 0.229569 0
M  V30 13268 N 1275.6 -0.99472 -1.22242 0
M  V30 13269 C 1276.85 -0.670275 -1.90661 0
M  V30 13270 C 1277.17 0.800369 -1.77818 0
M  V30 13271 O 1276.44 1.57381 -1.16653 0
M  V30 13272 H 1275.02 -0.244925 -0.705706 0
M  V30 13273 H 1277.68 -1.26162 -1.48557 0
M  V30 13274 H 1276.78 -0.934408 -2.97784 0
M  V30 13275 N 1277.08 1.37613 -0.768148 0
M  V30 13276 C 1278.01 2.3291 -0.165911 0
M  V30 13277 C 1278.99 1.556 0.687205 0
M  V30 13278 O 1280.17 1.83854 0.625407 0
M  V30 13279 C 1277.3 3.39822 0.7168 0
M  V30 13280 C 1276.26 4.27986 -0.0347264 0
M  V30 13281 C 1275.58 5.2588 0.967192 0
M  V30 13282 C 1276.88 5.08052 -1.21164 0
M  V30 13283 H 1278.58 2.83524 -0.962006 0
M  V30 13284 H 1276.12 1.36318 -0.464051 0
M  V30 13285 H 1278.08 4.05464 1.14789 0
M  V30 13286 H 1276.8 2.87725 1.54538 0
M  V30 13287 H 1275.46 3.6387 -0.446557 0
M  V30 13288 H 1275.11 4.70064 1.79022 0
M  V30 13289 H 1274.81 5.85726 0.468913 0
M  V30 13290 H 1276.33 5.94397 1.3973 0
M  V30 13291 H 1277.75 5.66853 -0.857373 0
M  V30 13292 H 1276.14 5.77206 -1.64176 0
M  V30 13293 H 1277.21 4.40936 -2.0175 0
M  V30 13294 N 1278.56 0.518393 1.4883 0
M  V30 13295 C 1279.78 -0.0162 2.06894 0
M  V30 13296 C 1280.2 -1.29222 1.37649 0
M  V30 13297 O 1279.56 -1.766 0.460288 0
M  V30 13298 C 1279.61 -0.255836 3.60594 0
M  V30 13299 O 1279.33 0.969612 4.27235 0
M  V30 13300 C 1280.83 -0.832117 4.3542 0
M  V30 13301 H 1278.05 0.0282877 0.670403 0
M  V30 13302 H 1280.59 0.720726 1.91379 0
M  V30 13303 H 1278.75 -0.942782 3.75753 0
M  V30 13304 H 1279.16 0.743172 5.19208 0
M  V30 13305 H 1280.64 -0.949279 5.43776 0
M  V30 13306 H 1281.11 -1.83421 3.99066 0
M  V30 13307 H 1281.72 -0.1821 4.2491 0
M  V30 13308 N 1280.03 -1.55556 0.252993 0
M  V30 13309 C 1281.26 -2.03945 -0.376965 0
M  V30 13310 C 1281.68 -1.13089 -1.50308 0
M  V30 13311 O 1281.04 -0.125039 -1.80868 0
M  V30 13312 C 1281.09 -3.50284 -0.856363 0
M  V30 13313 O 1280.19 -3.62551 -1.96546 0
M  V30 13314 H 1279.54 -0.659002 -0.081317 0
M  V30 13315 H 1282.07 -2.01024 0.380831 0
M  V30 13316 H 1282.08 -3.91222 -1.15798 0
M  V30 13317 H 1280.75 -4.15887 -0.0323302 0
M  V30 13318 H 1279.33 -3.33511 -1.66808 0
M  V30 13319 N 1281.51 0.0200419 -1.57587 0
M  V30 13320 C 1282.74 0.720556 -1.93947 0
M  V30 13321 C 1283.16 1.68407 -0.853499 0
M  V30 13322 O 1282.51 1.81713 0.169337 0
M  V30 13323 C 1282.56 1.46982 -3.3027 0
M  V30 13324 O 1282.28 0.544971 -4.34697 0
M  V30 13325 C 1283.79 2.26667 -3.80968 0
M  V30 13326 H 1281.01 0.201956 -0.639887 0
M  V30 13327 H 1283.55 -0.0251175 -2.04485 0
M  V30 13328 H 1281.7 2.16729 -3.21103 0
M  V30 13329 H 1282.12 1.07139 -5.13441 0
M  V30 13330 H 1283.59 2.74621 -4.78839 0
M  V30 13331 H 1284.07 3.0848 -3.12629 0
M  V30 13332 H 1284.68 1.61976 -3.93248 0
M  V30 13333 N 1282.99 1.54862 0.292472 0
M  V30 13334 C 1284.24 1.74807 1.02813 0
M  V30 13335 C 1284.57 0.536935 1.8663 0
M  V30 13336 O 1283.84 -0.465854 1.88839 0
M  V30 13337 C 1284.13 3.04202 1.927 0
M  V30 13338 C 1283.98 4.35631 1.12006 0
M  V30 13339 C 1285.3 3.29514 2.91734 0
M  V30 13340 H 1282.42 0.636015 0.372362 0
M  V30 13341 H 1285.06 1.87583 0.302069 0
M  V30 13342 H 1283.21 2.9344 2.54608 0
M  V30 13343 H 1284.88 4.58323 0.52319 0
M  V30 13344 H 1283.13 4.31733 0.42298 0
M  V30 13345 H 1283.8 5.22454 1.78172 0
M  V30 13346 H 1286.27 3.39941 2.39957 0
M  V30 13347 H 1285.15 4.21352 3.51786 0
M  V30 13348 H 1285.41 2.48216 3.65843 0
M  V30 13349 N 1284.47 -0.556076 1.47464 0
M  V30 13350 C 1285.72 -1.30955 1.53407 0
M  V30 13351 C 1286.03 -1.94559 0.201485 0
M  V30 13352 O 1287.24 -2.71144 0.138925 0
M  V30 13353 C 1285.69 -2.37476 2.70431 0
M  V30 13354 C 1285.3 -1.80057 4.10224 0
M  V30 13355 C 1287.04 -3.13997 2.85668 0
M  V30 13356 C 1284.95 -2.84365 5.18547 0
M  V30 13357 H 1283.88 -0.4924 0.571015 0
M  V30 13358 H 1286.53 -0.590459 1.73741 0
M  V30 13359 H 1284.91 -3.12304 2.43479 0
M  V30 13360 H 1286.09 -1.11593 4.47083 0
M  V30 13361 H 1284.4 -1.16116 3.99882 0
M  V30 13362 H 1287 -3.91892 3.63764 0
M  V30 13363 H 1287.34 -3.68253 1.94153 0
M  V30 13364 H 1287.88 -2.46281 3.12395 0
M  V30 13365 H 1284.62 -2.34963 6.11942 0
M  V30 13366 H 1284.14 -3.51235 4.86203 0
M  V30 13367 H 1285.81 -3.47836 5.45545 0
M  V30 13368 N 1285.95 -1.35615 -0.802897 0
M  V30 13369 C 1287.19 -1.30462 -1.5735 0
M  V30 13370 C 1287.55 0.118488 -1.91634 0
M  V30 13371 O 1288.75 0.294421 -2.67183 0
M  V30 13372 C 1287.02 -2.18916 -2.82508 0
M  V30 13373 S 1288.58 -2.31315 -3.72879 0
M  V30 13374 H 1285.4 -0.463588 -0.53908 0
M  V30 13375 H 1288 -1.71045 -0.946782 0
M  V30 13376 H 1286.71 -3.21285 -2.5535 0
M  V30 13377 H 1286.24 -1.79304 -3.50162 0
M  V30 13378 H 1288.25 -1.50069 -4.72963 0
M  V30 13379 N 1287.43 1.02549 -1.19673 0
M  V30 13380 C 1288.84 1.28271 -0.94967 0
M  V30 13381 C 1289.04 1.97961 0.37599 0
M  V30 13382 O 1288.1 2.26955 1.10668 0
M  V30 13383 C 1289.41 2.12647 -2.12607 0
M  V30 13384 C 1290.96 2.25943 -2.16607 0
M  V30 13385 C 1291.43 3.13693 -3.33708 0
M  V30 13386 N 1292.92 3.21281 -3.33665 0
M  V30 13387 C 1293.66 3.89377 -4.20919 0
M  V30 13388 N 1293.16 4.59675 -5.18334 0
M  V30 13389 N 1294.95 3.85811 -4.08786 0
M  V30 13390 H 1287.1 0.557304 -2.04958 0
M  V30 13391 H 1289.36 0.308531 -0.896389 0
M  V30 13392 H 1289.07 1.68766 -3.08563 0
M  V30 13393 H 1288.94 3.13367 -2.09955 0
M  V30 13394 H 1291.33 2.69053 -1.2122 0
M  V30 13395 H 1291.41 1.24762 -2.23311 0
M  V30 13396 H 1291.05 2.7129 -4.29376 0
M  V30 13397 H 1290.98 4.14941 -3.2424 0
M  V30 13398 H 1293.48 2.71218 -2.63152 0
M  V30 13399 H 1293.79 5.09277 -5.81254 0
M  V30 13400 H 1292.13 4.58529 -5.22279 0
M  V30 13401 H 1295.32 3.30033 -3.31957 0
M  V30 13402 H 1295.5 4.38607 -4.76999 0
M  V30 13403 N 1288.9 1.00119 1.21713 0
M  V30 13404 C 1290.15 0.692409 1.91252 0
M  V30 13405 C 1290.5 -0.768052 1.76405 0
M  V30 13406 O 1289.8 -1.54913 1.1275 0
M  V30 13407 C 1289.99 1.04376 3.41819 0
M  V30 13408 C 1289.82 2.53682 3.71316 0
M  V30 13409 C 1288.59 3.20222 3.90879 0
M  V30 13410 C 1290.79 3.51829 3.75127 0
M  V30 13411 N 1288.77 4.58919 4.07758 0
M  V30 13412 C 1290.14 4.7602 3.97246 0
M  V30 13413 C 1292.2 3.46019 3.58015 0
M  V30 13414 C 1290.9 5.95108 4.04029 0
M  V30 13415 C 1292.93 4.64492 3.66061 0
M  V30 13416 C 1292.29 5.87486 3.88638 0
M  V30 13417 H 1288.39 0.304785 0.72016 0
M  V30 13418 H 1290.97 1.28289 1.46459 0
M  V30 13419 H 1289.14 0.481773 3.854 0
M  V30 13420 H 1290.87 0.690108 3.98773 0
M  V30 13421 H 1287.63 2.70673 3.8863 0
M  V30 13422 H 1288.05 5.30884 4.20108 0
M  V30 13423 H 1292.69 2.51938 3.3954 0
M  V30 13424 H 1290.41 6.89585 4.21305 0
M  V30 13425 H 1294 4.61595 3.54148 0
M  V30 13426 H 1292.88 6.77628 3.94703 0
M  V30 13427 N 1290.38 -1.37203 0.775435 0
M  V30 13428 C 1291.61 -2.03868 0.352927 0
M  V30 13429 C 1292.02 -1.58482 -1.0261 0
M  V30 13430 O 1291.38 -0.767772 -1.65564 0
M  V30 13431 C 1291.43 -3.59378 0.39116 0
M  V30 13432 O 1291.15 -4.03103 1.71579 0
M  V30 13433 C 1292.65 -4.4328 -0.0424808 0
M  V30 13434 H 1289.87 -0.654619 0.14736 0
M  V30 13435 H 1292.42 -1.75463 1.05039 0
M  V30 13436 H 1290.57 -3.86542 -0.257752 0
M  V30 13437 H 1290.99 -4.9764 1.65695 0
M  V30 13438 H 1292.46 -5.51989 0.0354215 0
M  V30 13439 H 1292.94 -4.25374 -1.09333 0
M  V30 13440 H 1293.54 -4.21349 0.578384 0
M  V30 13441 N 1291.86 -0.526279 -1.48553 0
M  V30 13442 C 1293.28 -0.183886 -1.58537 0
M  V30 13443 C 1293.48 1.31272 -1.52872 0
M  V30 13444 O 1292.53 2.09069 -1.41585 0
M  V30 13445 C 1293.84 -0.78313 -2.90323 0
M  V30 13446 C 1295.39 -0.751527 -3.03844 0
M  V30 13447 C 1295.87 -1.32928 -4.38285 0
M  V30 13448 N 1297.36 -1.29109 -4.44843 0
M  V30 13449 C 1298.09 -1.70806 -5.47369 0
M  V30 13450 N 1297.59 -2.20215 -6.56869 0
M  V30 13451 N 1299.38 -1.62065 -5.3823 0
M  V30 13452 H 1291.53 -1.499 -1.50478 0
M  V30 13453 H 1293.8 -0.623294 -0.714289 0
M  V30 13454 H 1293.5 -1.83371 -3.00113 0
M  V30 13455 H 1293.38 -0.25808 -3.76316 0
M  V30 13456 H 1295.76 0.290282 -2.93669 0
M  V30 13457 H 1295.84 -1.314 -2.19471 0
M  V30 13458 H 1295.49 -2.37 -4.49214 0
M  V30 13459 H 1295.42 -0.742516 -5.21339 0
M  V30 13460 H 1297.91 -0.929348 -3.66294 0
M  V30 13461 H 1298.22 -2.50035 -7.31233 0
M  V30 13462 H 1296.57 -2.24206 -6.57842 0
M  V30 13463 H 1299.76 -1.23265 -4.51579 0
M  V30 13464 H 1299.93 -1.94883 -6.18001 0
M  V30 13465 N 1293.34 1.5542 -0.261239 0
M  V30 13466 C 1294.57 2.03687 0.363225 0
M  V30 13467 C 1294.98 1.14007 1.50492 0
M  V30 13468 O 1294.34 0.157349 1.8182 0
M  V30 13469 C 1294.39 3.51184 0.857435 0
M  V30 13470 O 1294.11 4.37449 -0.238776 0
M  V30 13471 C 1295.61 4.15277 1.55113 0
M  V30 13472 H 1292.83 0.665641 0.0846356 0
M  V30 13473 H 1295.37 2.00761 -0.389288 0
M  V30 13474 H 1293.53 3.54599 1.56008 0
M  V30 13475 H 1293.94 5.24316 0.138821 0
M  V30 13476 H 1295.42 5.20129 1.8485 0
M  V30 13477 H 1295.89 3.62619 2.47799 0
M  V30 13478 H 1296.5 4.15826 0.892695 0
M  V30 13479 N 1294.82 -0.0116844 1.57596 0
M  V30 13480 C 1296.06 -0.697577 1.89679 0
M  V30 13481 C 1296.38 -1.74956 0.861122 0
M  V30 13482 O 1295.65 -1.95629 -0.103031 0
M  V30 13483 H 1294.23 -0.26064 0.700054 0
M  V30 13484 H 1296.9 0.0264782 1.94882 0
M  V30 13485 H 1295.99 -1.17621 2.89088 0
M  V30 13486 N 1296.29 -1.55015 -0.284256 0
M  V30 13487 C 1297.52 -1.79102 -1.03586 0
M  V30 13488 C 1297.94 -0.558733 -1.80343 0
M  V30 13489 O 1297.29 0.471925 -1.76293 0
M  V30 13490 C 1297.34 -3.00915 -2.0033 0
M  V30 13491 O 1297.07 -4.19384 -1.26685 0
M  V30 13492 C 1298.57 -3.3752 -2.87394 0
M  V30 13493 H 1295.79 -0.596912 -0.306491 0
M  V30 13494 H 1298.33 -2.02005 -0.31845 0
M  V30 13495 H 1296.49 -2.80171 -2.67549 0
M  V30 13496 H 1296.9 -4.88175 -1.91796 0
M  V30 13497 H 1298.37 -4.25953 -3.51095 0
M  V30 13498 H 1298.85 -2.56418 -3.56576 0
M  V30 13499 H 1299.46 -3.60483 -2.25682 0
M  V30 13500 N 1297.77 0.548248 -1.47757 0
M  V30 13501 C 1298.72 1.65453 -1.60916 0
M  V30 13502 C 1299.69 1.59836 -0.451831 0
M  V30 13503 O 1300.87 1.78536 -0.673023 0
M  V30 13504 C 1298.01 3.0376 -1.6378 0
M  V30 13505 C 1297.13 3.19747 -2.90492 0
M  V30 13506 C 1296.26 4.48505 -2.84635 0
M  V30 13507 C 1295.3 4.57956 -4.06132 0
M  V30 13508 N 1294.44 5.78079 -3.98458 0
M  V30 13509 H 1299.28 1.53545 -2.55398 0
M  V30 13510 H 1296.81 0.747826 -1.26673 0
M  V30 13511 H 1298.77 3.8386 -1.63424 0
M  V30 13512 H 1297.4 3.14483 -0.728036 0
M  V30 13513 H 1296.45 2.3302 -3.00676 0
M  V30 13514 H 1297.77 3.22594 -3.8044 0
M  V30 13515 H 1296.92 5.36875 -2.82577 0
M  V30 13516 H 1295.66 4.48151 -1.92385 0
M  V30 13517 H 1294.66 3.67995 -4.08484 0
M  V30 13518 H 1295.89 4.60062 -4.9952 0
M  V30 13519 H 1293.84 5.78657 -3.09017 0
M  V30 13520 H 1293.75 5.82342 -4.82093 0
M  V30 13521 H 1295.02 6.68786 -4.00431 0
M  V30 13522 N 1299.25 1.36039 0.795694 0
M  V30 13523 C 1300.47 1.33222 1.58955 0
M  V30 13524 C 1300.9 -0.0854596 1.87906 0
M  V30 13525 O 1300.26 -1.05555 1.47403 0
M  V30 13526 C 1300.31 2.15508 2.89117 0
M  V30 13527 O 1299.41 1.54327 3.82436 0
M  V30 13528 H 1298.75 0.456264 0.48241 0
M  V30 13529 H 1301.28 1.79234 0.986726 0
M  V30 13530 H 1301.29 2.2786 3.38444 0
M  V30 13531 H 1299.97 3.18568 2.67371 0
M  V30 13532 H 1298.54 1.50879 3.41013 0
M  V30 13533 N 1300.73 -1.01913 1.20215 0
M  V30 13534 C 1301.96 -1.79076 1.03631 0
M  V30 13535 C 1302.37 -1.84192 -0.414583 0
M  V30 13536 O 1301.73 -1.29306 -1.28788 0
M  V30 13537 C 1301.78 -3.23665 1.61008 0
M  V30 13538 O 1301.5 -3.18873 3.00419 0
M  V30 13539 C 1303 -4.17387 1.49342 0
M  V30 13540 H 1300.22 -0.563241 0.364692 0
M  V30 13541 H 1302.77 -1.283 1.59246 0
M  V30 13542 H 1300.92 -3.71597 1.09518 0
M  V30 13543 H 1301.33 -4.09609 3.27598 0
M  V30 13544 H 1302.81 -5.16691 1.94253 0
M  V30 13545 H 1303.29 -4.36935 0.445493 0
M  V30 13546 H 1303.89 -3.75335 2.0001 0
M  V30 13547 N 1302.21 -1.00763 -1.2118 0
M  V30 13548 C 1303.14 -0.590493 -2.2591 0
M  V30 13549 C 1304.12 0.390002 -1.65569 0
M  V30 13550 O 1305.3 0.277406 -1.92208 0
M  V30 13551 C 1302.43 0.0810388 -3.47205 0
M  V30 13552 C 1301.39 -0.81951 -4.20081 0
M  V30 13553 C 1300.71 -0.014244 -5.34698 0
M  V30 13554 C 1302.01 -2.12336 -4.7719 0
M  V30 13555 H 1303.71 -1.46595 -2.61056 0
M  V30 13556 H 1301.25 -0.706321 -1.25487 0
M  V30 13557 H 1303.21 0.384355 -4.19644 0
M  V30 13558 H 1301.93 0.991145 -3.11197 0
M  V30 13559 H 1300.59 -1.10669 -3.49497 0
M  V30 13560 H 1300.24 0.897233 -4.94933 0
M  V30 13561 H 1299.94 -0.613883 -5.84384 0
M  V30 13562 H 1301.46 0.282827 -6.09945 0
M  V30 13563 H 1302.87 -1.88301 -5.41494 0
M  V30 13564 H 1301.27 -2.67308 -5.37277 0
M  V30 13565 H 1302.34 -2.79238 -3.96427 0
M  V30 13566 N 1303.68 1.3679 -0.7827 0
M  V30 13567 C 1305.1 1.82006 -0.41603 0
M  V30 13568 C 1305.45 1.65151 1.05922 0
M  V30 13569 O 1304.57 1.1687 1.82127 0
M  V30 13570 C 1305.17 3.30432 -0.748353 0
M  V30 13571 C 1303.73 3.73883 -0.4346 0
M  V30 13572 C 1302.87 2.59159 -0.986505 0
M  V30 13573 H 1305.82 1.25107 -0.976423 0
M  V30 13574 H 1305.84 3.80482 -0.036985 0
M  V30 13575 H 1305.36 3.42667 -1.82212 0
M  V30 13576 H 1303.46 3.67211 0.631401 0
M  V30 13577 H 1303.57 4.69577 -0.950511 0
M  V30 13578 H 1301.93 2.51377 -0.410108 0
M  V30 13579 H 1302.72 2.74182 -2.06589 0
M  V30 13580 N 1305.16 0.53415 1.48272 0
M  V30 13581 C 1306.41 -0.000450626 2.017 0
M  V30 13582 C 1306.72 -1.34926 1.41613 0
M  V30 13583 O 1307.93 -1.97246 1.86564 0
M  V30 13584 C 1306.39 -0.0511883 3.59864 0
M  V30 13585 C 1305.99 1.29298 4.28936 0
M  V30 13586 C 1307.74 -0.534397 4.21123 0
M  V30 13587 C 1305.65 1.2026 5.79044 0
M  V30 13588 H 1304.58 -0.00393844 0.75399 0
M  V30 13589 H 1307.23 0.678554 1.70493 0
M  V30 13590 H 1305.61 -0.795358 3.8793 0
M  V30 13591 H 1306.78 2.05305 4.12537 0
M  V30 13592 H 1305.1 1.71226 3.79566 0
M  V30 13593 H 1307.69 -0.620048 5.31093 0
M  V30 13594 H 1308.04 -1.54114 3.86723 0
M  V30 13595 H 1308.57 0.154215 3.97501 0
M  V30 13596 H 1305.31 2.18463 6.18025 0
M  V30 13597 H 1304.83 0.483971 5.97844 0
M  V30 13598 H 1306.51 0.895005 6.4078 0
M  V30 13599 N 1306.64 -1.55279 0.269478 0
M  V30 13600 C 1307.87 -2.04334 -0.355313 0
M  V30 13601 C 1308.29 -1.14677 -1.491 0
M  V30 13602 O 1307.65 -0.144215 -1.80726 0
M  V30 13603 C 1307.7 -3.51172 -0.819162 0
M  V30 13604 O 1306.8 -3.64615 -1.9269 0
M  V30 13605 H 1306.14 -0.659827 -0.0743229 0
M  V30 13606 H 1308.67 -2.00609 0.402131 0
M  V30 13607 H 1308.68 -3.92428 -1.11642 0
M  V30 13608 H 1307.36 -4.15898 0.0117821 0
M  V30 13609 H 1305.93 -3.35261 -1.63261 0
M  V30 13610 N 1308.12 0.00332656 -1.576 0
M  V30 13611 C 1309.03 1.01221 -2.1164 0
M  V30 13612 C 1310.04 1.37918 -1.06088 0
M  V30 13613 O 1311.22 1.46717 -1.37971 0
M  V30 13614 C 1308.29 2.28638 -2.60626 0
M  V30 13615 C 1307.35 1.98284 -3.80765 0
M  V30 13616 C 1306.58 3.19626 -4.27405 0
M  V30 13617 O 1306.8 4.31196 -3.73398 0
M  V30 13618 O 1305.74 3.03819 -5.19594 0
M  V30 13619 H 1309.56 0.582839 -2.98055 0
M  V30 13620 H 1307.15 0.221947 -1.47742 0
M  V30 13621 H 1309.03 3.03498 -2.92347 0
M  V30 13622 H 1307.7 2.70819 -1.7731 0
M  V30 13623 H 1306.61 1.2091 -3.54022 0
M  V30 13624 H 1307.94 1.60942 -4.65144 0
M  V30 13625 N 1309.6 1.55164 0.276031 0
M  V30 13626 C 1310.82 1.79649 1.02635 0
M  V30 13627 C 1311.24 0.568289 1.80044 0
M  V30 13628 O 1310.6 -0.462569 1.7654 0
M  V30 13629 C 1310.65 3.01974 1.98731 0
M  V30 13630 O 1310.37 4.2005 1.24459 0
M  V30 13631 C 1311.87 3.39039 2.856 0
M  V30 13632 H 1309.09 0.598529 0.303321 0
M  V30 13633 H 1311.63 2.02171 0.307733 0
M  V30 13634 H 1309.79 2.81586 2.6606 0
M  V30 13635 H 1310.2 4.89185 1.89205 0
M  V30 13636 H 1311.68 4.27809 3.48831 0
M  V30 13637 H 1312.15 2.58306 3.55211 0
M  V30 13638 H 1312.76 3.61674 2.23767 0
M  V30 13639 N 1311.07 -0.540404 1.48045 0
M  V30 13640 C 1312.32 -1.29422 1.55224 0
M  V30 13641 C 1312.64 -1.93716 0.223365 0
M  V30 13642 O 1311.91 -1.808 -0.754204 0
M  V30 13643 H 1310.49 -0.480658 0.571819 0
M  V30 13644 H 1313.16 -0.629712 1.84447 0
M  V30 13645 H 1312.25 -2.07897 2.32777 0
M  V30 13646 N 1312.55 -1.36459 -0.788468 0
M  V30 13647 C 1313.8 -1.30483 -1.54333 0
M  V30 13648 C 1314.12 0.115266 -1.94659 0
M  V30 13649 O 1313.39 1.05573 -1.65019 0
M  V30 13650 H 1311.97 -0.480004 -0.572368 0
M  V30 13651 H 1314.63 -1.70765 -0.939428 0
M  V30 13652 H 1313.73 -1.93284 -2.45046 0
M  V30 13653 N 1314.03 1.01274 -1.20754 0
M  V30 13654 C 1315.28 1.74586 -1.01804 0
M  V30 13655 C 1315.6 1.89727 0.450419 0
M  V30 13656 O 1314.87 1.44257 1.32539 0
M  V30 13657 H 1313.45 0.646804 -0.373702 0
M  V30 13658 H 1316.11 1.22079 -1.5193 0
M  V30 13659 H 1315.21 2.748 -1.47958 0
M  V30 13660 N 1315.51 1.01404 1.20644 0
M  V30 13661 C 1316.74 0.72104 1.93929 0
M  V30 13662 C 1317.15 -0.717853 1.7462 0
M  V30 13663 O 1316.51 -1.48664 1.05855 0
M  V30 13664 C 1316.56 1.04399 3.46097 0
M  V30 13665 O 1316.28 2.42637 3.64773 0
M  V30 13666 C 1317.78 0.771678 4.36532 0
M  V30 13667 H 1315 0.264983 0.616462 0
M  V30 13668 H 1317.55 1.35453 1.53208 0
M  V30 13669 H 1315.7 0.455946 3.84708 0
M  V30 13670 H 1316.12 2.54201 4.58783 0
M  V30 13671 H 1317.59 1.04774 5.41965 0
M  V30 13672 H 1318.07 -0.294188 4.38214 0
M  V30 13673 H 1318.67 1.34176 4.0358 0
M  V30 13674 N 1316.99 -1.36373 0.789944 0
M  V30 13675 C 1318.4 -1.81783 0.425677 0
M  V30 13676 C 1318.75 -1.65711 -1.05045 0
M  V30 13677 O 1317.87 -1.17835 -1.81505 0
M  V30 13678 C 1318.47 -3.3003 0.765866 0
M  V30 13679 C 1317.03 -3.73647 0.454421 0
M  V30 13680 C 1316.18 -2.58632 1.00023 0
M  V30 13681 H 1319.13 -1.24587 0.983044 0
M  V30 13682 H 1319.15 -3.80457 0.0571624 0
M  V30 13683 H 1318.66 -3.41696 1.84026 0
M  V30 13684 H 1316.76 -3.67541 -0.611918 0
M  V30 13685 H 1316.87 -4.69066 0.975401 0
M  V30 13686 H 1315.24 -2.51156 0.423434 0
M  V30 13687 H 1316.02 -2.73083 2.0804 0
M  V30 13688 N 1318.47 -0.542005 -1.47987 0
M  V30 13689 C 1319.38 0.217677 -2.33588 0
M  V30 13690 C 1320.39 0.927093 -1.47245 0
M  V30 13691 O 1321.57 0.899378 -1.80203 0
M  V30 13692 C 1318.63 1.24376 -3.23622 0
M  V30 13693 C 1317.69 0.543407 -4.25847 0
M  V30 13694 C 1316.93 1.5206 -5.11579 0
M  V30 13695 O 1317.15 2.75425 -4.99497 0
M  V30 13696 O 1316.08 1.05341 -5.9261 0
M  V30 13697 H 1319.91 -0.484089 -2.99817 0
M  V30 13698 H 1317.49 -0.302783 -1.463 0
M  V30 13699 H 1319.38 1.83644 -3.7928 0
M  V30 13700 H 1318.05 1.92772 -2.6004 0
M  V30 13701 H 1316.96 -0.090074 -3.73992 0
M  V30 13702 H 1318.29 -0.0988264 -4.92101 0
M  V30 13703 N 1319.94 1.55134 -0.277709 0
M  V30 13704 C 1320.87 2.256 0.602232 0
M  V30 13705 C 1321.85 1.24708 1.15681 0
M  V30 13706 O 1323.04 1.53433 1.19046 0
M  V30 13707 C 1320.17 2.97907 1.78519 0
M  V30 13708 C 1319.12 4.0575 1.36203 0
M  V30 13709 C 1318.45 4.65644 2.62829 0
M  V30 13710 C 1319.75 5.19801 0.510327 0
M  V30 13711 H 1321.44 2.99396 0.0145622 0
M  V30 13712 H 1318.99 1.43999 0.00556389 0
M  V30 13713 H 1320.94 3.45915 2.40668 0
M  V30 13714 H 1319.67 2.21649 2.39873 0
M  V30 13715 H 1318.33 3.58557 0.763726 0
M  V30 13716 H 1317.97 3.86053 3.22447 0
M  V30 13717 H 1317.67 5.38463 2.35227 0
M  V30 13718 H 1319.2 5.16403 3.25823 0
M  V30 13719 H 1320.61 5.63845 1.03689 0
M  V30 13720 H 1319.01 5.99197 0.329073 0
M  V30 13721 H 1320.08 4.82614 -0.470273 0
M  V30 13722 N 1321.42 0.00503138 1.57599 0
M  V30 13723 C 1322.84 -0.351109 1.5569 0
M  V30 13724 C 1323.04 -1.74465 1.00818 0
M  V30 13725 O 1322.09 -2.44144 0.64422 0
M  V30 13726 C 1323.41 -0.221738 2.99881 0
M  V30 13727 C 1324.95 -0.296303 3.11594 0
M  V30 13728 C 1325.43 -0.195998 4.5758 0
M  V30 13729 N 1326.92 -0.253741 4.62504 0
M  V30 13730 C 1327.66 -0.199546 5.73053 0
M  V30 13731 N 1327.15 -0.0956553 6.92734 0
M  V30 13732 N 1328.94 -0.251779 5.61536 0
M  V30 13733 H 1321.1 0.916578 1.91605 0
M  V30 13734 H 1323.36 0.351802 0.880306 0
M  V30 13735 H 1323.06 0.737255 3.43886 0
M  V30 13736 H 1322.94 -1.00178 3.63654 0
M  V30 13737 H 1325.33 -1.24574 2.67517 0
M  V30 13738 H 1325.41 0.513692 2.50589 0
M  V30 13739 H 1325.05 0.749918 5.02333 0
M  V30 13740 H 1324.98 -1.02455 5.16537 0
M  V30 13741 H 1327.47 -0.335163 3.76411 0
M  V30 13742 H 1327.78 -0.0603357 7.72776 0
M  V30 13743 H 1326.13 -0.0612113 6.94973 0
M  V30 13744 H 1329.32 -0.331173 4.66927 0
M  V30 13745 H 1329.49 -0.206078 6.47672 0
M  V30 13746 N 1322.9 -1.55308 -0.267798 0
M  V30 13747 C 1324.14 -1.77913 -1.0063 0
M  V30 13748 C 1324.5 -0.571149 -1.83308 0
M  V30 13749 O 1325.7 -0.675552 -2.60173 0
M  V30 13750 C 1323.98 -3.05112 -1.86123 0
M  V30 13751 S 1325.53 -3.48856 -2.66167 0
M  V30 13752 H 1322.35 -0.625065 -0.338843 0
M  V30 13753 H 1324.95 -1.93539 -0.276196 0
M  V30 13754 H 1323.66 -3.91118 -1.24317 0
M  V30 13755 H 1323.19 -2.92165 -2.63444 0
M  V30 13756 H 1325.2 -3.0854 -3.8861 0
M  V30 13757 N 1324.38 0.532545 -1.4833 0
M  V30 13758 C 1325.63 1.28597 -1.55908 0
M  V30 13759 C 1325.95 1.93595 -0.233635 0
M  V30 13760 O 1325.22 1.81197 0.744605 0
M  V30 13761 H 1323.8 0.477619 -0.57436 0
M  V30 13762 H 1326.46 0.619922 -1.84778 0
M  V30 13763 H 1325.55 2.0666 -2.33877 0
M  V30 13764 N 1325.86 1.36875 0.78122 0
M  V30 13765 C 1326.8 1.31869 1.89418 0
M  V30 13766 C 1327.77 0.185904 1.65056 0
M  V30 13767 O 1328.96 0.373745 1.87104 0
M  V30 13768 C 1326.1 1.12205 3.2635 0
M  V30 13769 C 1325.21 2.34631 3.62729 0
M  V30 13770 C 1324.35 2.07914 4.8882 0
M  V30 13771 C 1323.38 3.26257 5.17902 0
M  V30 13772 N 1322.52 2.99152 6.35179 0
M  V30 13773 H 1327.36 2.2703 1.93032 0
M  V30 13774 H 1324.9 1.12826 0.943857 0
M  V30 13775 H 1326.86 0.988282 4.05326 0
M  V30 13776 H 1325.49 0.206959 3.22136 0
M  V30 13777 H 1324.54 2.58782 2.78812 0
M  V30 13778 H 1325.85 3.22919 3.80164 0
M  V30 13779 H 1325 1.91514 5.7568 0
M  V30 13780 H 1323.74 1.1695 4.7347 0
M  V30 13781 H 1322.75 3.43207 4.29522 0
M  V30 13782 H 1323.97 4.1806 5.35166 0
M  V30 13783 H 1321.92 2.10807 6.21205 0
M  V30 13784 H 1321.84 3.80981 6.52985 0
M  V30 13785 H 1323.1 2.86349 7.25 0
M  V30 13786 N 1327.33 -1.00632 1.21289 0
M  V30 13787 C 1328.28 -2.07791 0.938459 0
M  V30 13788 C 1329.27 -1.60552 -0.105773 0
M  V30 13789 O 1330.46 -1.767 0.102981 0
M  V30 13790 C 1327.59 -3.39587 0.503563 0
M  V30 13791 C 1326.67 -3.93497 1.58179 0
M  V30 13792 N 1327.07 -4.20792 2.80656 0
M  V30 13793 C 1325.36 -4.21759 1.45035 0
M  V30 13794 C 1326.06 -4.64411 3.50281 0
M  V30 13795 N 1325.04 -4.67305 2.77717 0
M  V30 13796 H 1328.84 -2.26816 1.869 0
M  V30 13797 H 1326.36 -1.18692 1.10842 0
M  V30 13798 H 1328.35 -4.15902 0.288323 0
M  V30 13799 H 1327.01 -3.21969 -0.420233 0
M  V30 13800 H 1328.02 -4.09386 3.17212 0
M  V30 13801 H 1324.7 -4.13285 0.591745 0
M  V30 13802 H 1326.09 -4.94263 4.55141 0
M  V30 13803 N 1328.81 -1.02043 -1.20104 0
M  V30 13804 C 1329.74 -0.552093 -2.22451 0
M  V30 13805 C 1330.76 0.367547 -1.58597 0
M  V30 13806 O 1331.95 0.165285 -1.77733 0
M  V30 13807 C 1329.05 0.215833 -3.38212 0
M  V30 13808 C 1328.22 -0.70666 -4.31654 0
M  V30 13809 C 1327.28 0.0143628 -5.26198 0
M  V30 13810 O 1326.3 -0.609413 -5.65928 0
M  V30 13811 N 1327.51 1.28794 -5.66032 0
M  V30 13812 H 1330.27 -1.43229 -2.6326 0
M  V30 13813 H 1327.83 -0.89842 -1.34685 0
M  V30 13814 H 1329.82 0.707523 -3.98467 0
M  V30 13815 H 1328.39 0.997358 -2.96263 0
M  V30 13816 H 1327.61 -1.37859 -3.69308 0
M  V30 13817 H 1328.9 -1.33392 -4.91003 0
M  V30 13818 H 1328.3 1.8156 -5.35773 0
M  V30 13819 H 1326.86 1.72429 -6.28579 0
M  V30 13820 N 1330.29 1.35952 -0.797165 0
M  V30 13821 C 1331.25 2.28266 -0.206748 0
M  V30 13822 C 1332.25 1.49169 0.60043 0
M  V30 13823 O 1333.44 1.69054 0.42029 0
M  V30 13824 C 1330.58 3.33363 0.712884 0
M  V30 13825 H 1331.77 2.81992 -1.02082 0
M  V30 13826 H 1329.32 1.45648 -0.567138 0
M  V30 13827 H 1330.06 2.84806 1.551 0
M  V30 13828 H 1329.84 3.91864 0.135926 0
M  V30 13829 H 1331.33 4.02284 1.1206 0
M  V30 13830 N 1331.77 0.549846 1.47697 0
M  V30 13831 C 1333.01 0.0230845 2.02787 0
M  V30 13832 C 1333.35 -1.32035 1.42409 0
M  V30 13833 O 1332.62 -1.85745 0.576978 0
M  V30 13834 C 1332.91 -0.0778363 3.60016 0
M  V30 13835 C 1332.76 1.29217 4.3084 0
M  V30 13836 C 1334.08 -0.794909 4.32862 0
M  V30 13837 H 1331.2 0.00986307 0.736934 0
M  V30 13838 H 1333.84 0.710714 1.76207 0
M  V30 13839 H 1331.99 -0.663464 3.82793 0
M  V30 13840 H 1333.66 1.92044 4.19424 0
M  V30 13841 H 1331.9 1.86883 3.91481 0
M  V30 13842 H 1332.57 1.17435 5.39364 0
M  V30 13843 H 1335.05 -0.297743 4.15033 0
M  V30 13844 H 1333.93 -0.834466 5.4252 0
M  V30 13845 H 1334.19 -1.84948 4.01555 0
M  V30 13846 N 1333.25 -1.54984 0.285932 0
M  V30 13847 C 1334.49 -1.99436 -0.32709 0
M  V30 13848 C 1334.82 -1.17582 -1.55562 0
M  V30 13849 O 1334.09 -0.268002 -1.94058 0
M  V30 13850 H 1332.67 -0.736662 -0.123846 0
M  V30 13851 H 1335.33 -1.90881 0.393774 0
M  V30 13852 H 1334.42 -3.0609 -0.609523 0
M  V30 13853 N 1334.72 -0.0133892 -1.57594 0
M  V30 13854 C 1335.95 0.679255 -1.95432 0
M  V30 13855 C 1336.37 1.66558 -0.889028 0
M  V30 13856 O 1335.72 1.82031 0.130755 0
M  V30 13857 C 1335.78 1.39943 -3.33314 0
M  V30 13858 O 1335.5 0.452643 -4.35755 0
M  V30 13859 C 1337 2.18535 -3.85691 0
M  V30 13860 H 1334.22 0.188337 -0.644026 0
M  V30 13861 H 1336.76 -0.0684861 -2.04385 0
M  V30 13862 H 1334.92 2.0987 -3.25628 0
M  V30 13863 H 1335.33 0.962243 -5.15598 0
M  V30 13864 H 1336.8 2.64403 -4.84557 0
M  V30 13865 H 1337.28 3.01779 -3.19102 0
M  V30 13866 H 1337.89 1.53598 -3.96595 0
M  V30 13867 N 1336.2 1.55448 0.259558 0
M  V30 13868 C 1337.43 1.81063 1.01148 0
M  V30 13869 C 1337.85 0.58875 1.78649 0
M  V30 13870 O 1337.21 -0.461971 1.75315 0
M  V30 13871 C 1337.26 3.04279 1.93512 0
M  V30 13872 O 1336.36 2.80307 3.02493 0
M  V30 13873 H 1335.7 0.598056 0.288487 0
M  V30 13874 H 1338.23 2.02614 0.284387 0
M  V30 13875 H 1338.24 3.33373 2.35215 0
M  V30 13876 H 1336.92 3.92856 1.36518 0
M  V30 13877 H 1335.5 2.62345 2.65008 0
M  V30 13878 N 1337.68 -0.524672 1.4861 0
M  V30 13879 C 1339.09 -1.10655 1.50374 0
M  V30 13880 C 1339.44 -1.94242 0.276512 0
M  V30 13881 O 1338.57 -2.07451 -0.615887 0
M  V30 13882 C 1339.16 -2.01348 2.72478 0
M  V30 13883 C 1337.72 -2.54743 2.77097 0
M  V30 13884 C 1336.87 -1.31822 2.43964 0
M  V30 13885 H 1339.82 -0.309674 1.55649 0
M  V30 13886 H 1339.84 -2.85709 2.51297 0
M  V30 13887 H 1339.35 -1.40485 3.61781 0
M  V30 13888 H 1337.45 -3.19313 1.92016 0
M  V30 13889 H 1337.57 -2.93514 3.78664 0
M  V30 13890 H 1335.93 -1.63574 1.95233 0
M  V30 13891 H 1336.71 -0.727026 3.35513 0
M  V30 13892 N 1339.16 -1.37287 -0.77395 0
M  V30 13893 C 1340.09 -1.28746 -1.89624 0
M  V30 13894 C 1341.1 -0.203715 -1.6152 0
M  V30 13895 O 1342.29 -0.459684 -1.72479 0
M  V30 13896 C 1339.39 -0.967342 -3.24801 0
M  V30 13897 C 1338.57 -2.1561 -3.80567 0
M  V30 13898 C 1337.62 -1.80661 -4.94215 0
M  V30 13899 O 1336.65 -2.5293 -5.09917 0
M  V30 13900 N 1337.85 -0.749424 -5.75642 0
M  V30 13901 H 1340.62 -2.25447 -1.97468 0
M  V30 13902 H 1338.18 -1.30883 -0.952956 0
M  V30 13903 H 1340.17 -0.714421 -3.98344 0
M  V30 13904 H 1338.74 -0.0889573 -3.12473 0
M  V30 13905 H 1337.96 -2.57091 -2.98828 0
M  V30 13906 H 1339.25 -2.94993 -4.14556 0
M  V30 13907 H 1338.65 -0.149673 -5.65502 0
M  V30 13908 H 1337.2 -0.556358 -6.49421 0
M  V30 13909 N 1340.64 0.999871 -1.21821 0
M  V30 13910 C 1342.05 1.26228 -0.976664 0
M  V30 13911 C 1342.25 1.98714 0.333915 0
M  V30 13912 O 1341.31 2.29252 1.05829 0
M  V30 13913 C 1342.62 2.08089 -2.1707 0
M  V30 13914 C 1344.17 2.21298 -2.21351 0
M  V30 13915 C 1344.64 3.06544 -3.40287 0
M  V30 13916 N 1346.14 3.14131 -3.40405 0
M  V30 13917 C 1346.87 3.80362 -4.29083 0
M  V30 13918 N 1346.37 4.48577 -5.27968 0
M  V30 13919 N 1348.16 3.77053 -4.16878 0
M  V30 13920 H 1340.31 0.513704 -2.06094 0
M  V30 13921 H 1342.57 0.289447 -0.902732 0
M  V30 13922 H 1342.28 1.62183 -3.12073 0
M  V30 13923 H 1342.15 3.08843 -2.16554 0
M  V30 13924 H 1344.54 2.66422 -1.269 0
M  V30 13925 H 1344.62 1.19997 -2.25908 0
M  V30 13926 H 1344.27 2.62122 -4.35034 0
M  V30 13927 H 1344.2 4.0797 -3.32969 0
M  V30 13928 H 1346.69 2.65576 -2.68846 0
M  V30 13929 H 1347 4.96833 -5.91926 0
M  V30 13930 H 1345.34 4.47348 -5.31888 0
M  V30 13931 H 1348.54 3.22918 -3.38883 0
M  V30 13932 H 1348.71 4.2839 -4.86195 0
M  V30 13933 N 1342.11 1.02678 1.19562 0
M  V30 13934 C 1343.08 0.610407 2.20922 0
M  V30 13935 C 1344.08 -0.324858 1.57484 0
M  V30 13936 O 1345.27 -0.112153 1.73839 0
M  V30 13937 C 1342.4 -0.107115 3.40732 0
M  V30 13938 H 1343.59 1.50722 2.59274 0
M  V30 13939 H 1341.15 0.817725 1.33203 0
M  V30 13940 H 1341.88 -1.01837 3.07896 0
M  V30 13941 H 1341.67 0.564901 3.88009 0
M  V30 13942 H 1343.16 -0.385423 4.15818 0
M  V30 13943 N 1343.59 -1.35528 0.804364 0
M  V30 13944 C 1344.56 -2.28153 0.21885 0
M  V30 13945 C 1345.56 -1.49486 -0.592511 0
M  V30 13946 O 1346.75 -1.69274 -0.411319 0
M  V30 13947 C 1343.88 -3.33736 -0.695195 0
M  V30 13948 H 1345.07 -2.81446 1.03576 0
M  V30 13949 H 1342.62 -1.45345 0.574854 0
M  V30 13950 H 1343.36 -2.85625 -1.53587 0
M  V30 13951 H 1343.14 -3.91931 -0.115143 0
M  V30 13952 H 1344.63 -4.02872 -1.09925 0
M  V30 13953 N 1345.07 -0.557671 -1.47404 0
M  V30 13954 C 1346.03 0.179311 -2.28498 0
M  V30 13955 C 1347.03 0.842281 -1.36975 0
M  V30 13956 O 1348.22 0.698072 -1.59601 0
M  V30 13957 C 1345.36 1.26229 -3.16668 0
M  V30 13958 H 1346.55 -0.533033 -2.95125 0
M  V30 13959 H 1344.1 -0.314634 -1.531 0
M  V30 13960 H 1344.84 2.00702 -2.54733 0
M  V30 13961 H 1344.62 0.791712 -3.84024 0
M  V30 13962 H 1346.11 1.77991 -3.77768 0
M  V30 13963 N 1346.55 1.54831 -0.294147 0
M  V30 13964 C 1347.48 2.20696 0.61854 0
M  V30 13965 C 1348.49 1.19754 1.10285 0
M  V30 13966 O 1349.68 1.46383 1.02148 0
M  V30 13967 C 1346.78 2.83429 1.85798 0
M  V30 13968 C 1345.96 4.10239 1.51731 0
M  V30 13969 C 1345.02 4.56841 2.61119 0
M  V30 13970 O 1344.04 5.22194 2.26501 0
M  V30 13971 N 1345.24 4.2858 3.91534 0
M  V30 13972 H 1348.01 2.9965 0.054714 0
M  V30 13973 H 1345.57 1.61484 -0.116052 0
M  V30 13974 H 1347.56 3.11541 2.5831 0
M  V30 13975 H 1346.13 2.08356 2.33038 0
M  V30 13976 H 1345.35 3.89212 0.625142 0
M  V30 13977 H 1346.64 4.92824 1.26499 0
M  V30 13978 H 1346.04 3.7621 4.22472 0
M  V30 13979 H 1344.59 4.61418 4.60366 0
M  V30 13980 N 1348.03 0.0217466 1.57585 0
M  V30 13981 C 1349.3 -0.696733 1.8277 0
M  V30 13982 C 1349.68 -1.90759 0.904112 0
M  V30 13983 O 1349.03 -2.28461 -0.0420522 0
M  V30 13984 C 1349.24 -1.08193 3.31806 0
M  V30 13985 C 1350.59 -1.47667 3.98095 0
M  V30 13986 O 1351.61 -1.17511 3.36258 0
M  V30 13987 O 1350.47 -2.03825 5.07068 0
M  V30 13988 H 1347.57 -0.341141 0.75336 0
M  V30 13989 H 1350.11 0.0488652 1.6963 0
M  V30 13990 H 1348.89 -0.219799 3.90682 0
M  V30 13991 H 1348.51 -1.88593 3.50026 0
M  V30 13992 N 1349.51 -1.55583 -0.251311 0
M  V30 13993 C 1350.73 -1.81597 -1.00186 0
M  V30 13994 C 1351.16 -0.598216 -1.78334 0
M  V30 13995 O 1350.51 0.452667 -1.75558 0
M  V30 13996 C 1350.56 -3.05301 -1.91895 0
M  V30 13997 O 1349.67 -2.81907 -3.01002 0
M  V30 13998 H 1349.01 -0.599578 -0.285311 0
M  V30 13999 H 1351.54 -2.02762 -0.273638 0
M  V30 14000 H 1351.55 -3.34616 -2.33444 0
M  V30 14001 H 1350.22 -3.93574 -1.34433 0
M  V30 14002 H 1348.8 -2.63747 -2.63613 0
M  V30 14003 N 1350.98 0.516783 -1.48886 0
M  V30 14004 C 1351.89 1.6467 -1.67095 0
M  V30 14005 C 1352.91 1.64963 -0.553466 0
M  V30 14006 O 1354.09 1.83673 -0.826206 0
M  V30 14007 C 1351.15 3.01095 -1.71879 0
M  V30 14008 C 1350.21 3.11554 -2.95352 0
M  V30 14009 C 1349.44 4.41471 -2.99898 0
M  V30 14010 O 1349.67 5.29348 -2.12477 0
M  V30 14011 O 1348.6 4.56573 -3.92205 0
M  V30 14012 H 1352.43 1.52242 -2.62785 0
M  V30 14013 H 1350.01 0.69134 -1.32442 0
M  V30 14014 H 1351.89 3.82207 -1.77471 0
M  V30 14015 H 1350.57 3.1382 -0.793656 0
M  V30 14016 H 1349.48 2.29689 -2.95286 0
M  V30 14017 H 1350.81 3.03751 -3.87294 0
M  V30 14018 N 1352.46 1.37696 0.766659 0
M  V30 14019 C 1353.39 1.2975 1.88938 0
M  V30 14020 C 1354.41 0.212278 1.6141 0
M  V30 14021 O 1355.6 0.468825 1.72233 0
M  V30 14022 C 1352.7 0.984553 3.24283 0
M  V30 14023 C 1351.87 2.17625 3.79418 0
M  V30 14024 C 1350.93 1.83279 4.9325 0
M  V30 14025 O 1349.95 2.55631 5.08568 0
M  V30 14026 N 1351.16 0.779941 5.75237 0
M  V30 14027 H 1353.92 2.26492 1.96269 0
M  V30 14028 H 1351.48 1.31387 0.946001 0
M  V30 14029 H 1353.47 0.735536 3.9796 0
M  V30 14030 H 1352.04 0.105527 3.12422 0
M  V30 14031 H 1351.26 2.58672 2.9746 0
M  V30 14032 H 1352.55 2.97187 4.12986 0
M  V30 14033 H 1351.95 0.179661 5.65415 0
M  V30 14034 H 1350.51 0.59079 6.49117 0
M  V30 14035 N 1353.94 -0.993397 1.22349 0
M  V30 14036 C 1354.85 -2.11771 1.00947 0
M  V30 14037 C 1355.87 -1.73949 -0.0420679 0
M  V30 14038 O 1357.04 -2.00837 0.150548 0
M  V30 14039 C 1354.11 -3.41654 0.589359 0
M  V30 14040 C 1353.17 -3.93579 1.71446 0
M  V30 14041 C 1352.4 -5.17264 1.3143 0
M  V30 14042 O 1352.62 -5.70074 0.192876 0
M  V30 14043 O 1351.56 -5.62929 2.13059 0
M  V30 14044 H 1355.38 -2.32708 1.95142 0
M  V30 14045 H 1352.97 -1.10144 1.00939 0
M  V30 14046 H 1354.85 -4.19813 0.365403 0
M  V30 14047 H 1353.53 -3.22077 -0.323738 0
M  V30 14048 H 1352.43 -3.16596 1.99294 0
M  V30 14049 H 1353.77 -4.17588 2.6054 0
M  V30 14050 N 1355.42 -1.03311 -1.19015 0
M  V30 14051 C 1356.64 -0.751686 -1.93299 0
M  V30 14052 C 1357.07 0.68392 -1.75226 0
M  V30 14053 O 1356.43 1.47274 -1.05736 0
M  V30 14054 C 1356.47 -1.11335 -3.42982 0
M  V30 14055 O 1355.58 -0.234434 -4.11733 0
M  V30 14056 H 1354.92 -0.277331 -0.60331 0
M  V30 14057 H 1357.45 -1.38092 -1.5097 0
M  V30 14058 H 1357.46 -1.07204 -3.93664 0
M  V30 14059 H 1356.13 -2.15922 -3.55458 0
M  V30 14060 H 1354.71 -0.3347 -3.71395 0
M  V30 14061 N 1356.9 1.35099 -0.81154 0
M  V30 14062 C 1357.86 2.28033 -0.230947 0
M  V30 14063 C 1358.86 1.49798 0.584575 0
M  V30 14064 O 1360.05 1.6949 0.402336 0
M  V30 14065 C 1357.18 3.341 0.677486 0
M  V30 14066 H 1358.37 2.80893 -1.05067 0
M  V30 14067 H 1355.93 1.45038 -0.582554 0
M  V30 14068 H 1356.66 2.86435 1.5207 0
M  V30 14069 H 1356.45 3.91986 0.0943563 0
M  V30 14070 H 1357.94 4.0345 1.07787 0
M  V30 14071 N 1358.37 0.56548 1.47106 0
M  V30 14072 C 1359.62 0.0444375 2.02051 0
M  V30 14073 C 1359.94 -1.31344 1.44131 0
M  V30 14074 O 1359.21 -1.85845 0.619556 0
M  V30 14075 H 1357.79 0.0134375 0.746879 0
M  V30 14076 H 1360.45 0.737362 1.80413 0
M  V30 14077 H 1359.55 -0.0374834 3.12077 0
M  V30 14078 N 1359.85 -1.54672 0.302354 0
M  V30 14079 C 1360.79 -2.19752 -0.615175 0
M  V30 14080 C 1361.76 -1.16737 -1.13186 0
M  V30 14081 O 1362.95 -1.45385 -1.19981 0
M  V30 14082 C 1360.07 -2.84243 -1.84184 0
M  V30 14083 C 1359.12 -4.00795 -1.45827 0
M  V30 14084 S 1359.95 -5.33037 -0.513046 0
M  V30 14085 C 1361.11 -6.01011 -1.74747 0
M  V30 14086 H 1361.34 -2.97235 -0.0622917 0
M  V30 14087 H 1358.88 -1.54158 0.0864897 0
M  V30 14088 H 1360.83 -3.22025 -2.54578 0
M  V30 14089 H 1359.49 -2.06603 -2.36589 0
M  V30 14090 H 1358.69 -4.44707 -2.37175 0
M  V30 14091 H 1358.29 -3.64577 -0.83425 0
M  V30 14092 H 1360.58 -6.21901 -2.68786 0
M  V30 14093 H 1361.52 -6.95095 -1.35089 0
M  V30 14094 H 1361.93 -5.30671 -1.9248 0
M  V30 14095 N 1361.33 -0.0301034 -1.57571 0
M  V30 14096 C 1362.24 0.967086 -2.1374 0
M  V30 14097 C 1363.26 1.35636 -1.0899 0
M  V30 14098 O 1364.43 1.43758 -1.41052 0
M  V30 14099 C 1361.5 2.23058 -2.65417 0
M  V30 14100 C 1360.56 1.90163 -3.84885 0
M  V30 14101 C 1359.79 3.10488 -4.34088 0
M  V30 14102 O 1360.01 4.23179 -3.8246 0
M  V30 14103 O 1358.95 2.92729 -5.25921 0
M  V30 14104 H 1362.77 0.519486 -2.99224 0
M  V30 14105 H 1360.36 0.190559 -1.4818 0
M  V30 14106 H 1362.24 2.97229 -2.98719 0
M  V30 14107 H 1360.92 2.66997 -1.83015 0
M  V30 14108 H 1359.82 1.13373 -3.56507 0
M  V30 14109 H 1361.16 1.51039 -4.68453 0
M  V30 14110 N 1362.81 1.55714 0.243056 0
M  V30 14111 C 1364.06 1.77375 0.968638 0
M  V30 14112 C 1364.38 0.594781 1.85708 0
M  V30 14113 O 1363.65 -0.38928 1.91993 0
M  V30 14114 H 1362.23 0.654174 0.360646 0
M  V30 14115 H 1364.89 1.93157 0.260079 0
M  V30 14116 H 1363.99 2.68674 1.5881 0
M  V30 14117 N 1364.29 -0.50888 1.49158 0
M  V30 14118 C 1365.7 -0.839353 1.35746 0
M  V30 14119 C 1365.9 -1.97797 0.38453 0
M  V30 14120 O 1364.96 -2.51809 -0.186651 0
M  V30 14121 C 1366.27 -1.18698 2.76281 0
M  V30 14122 C 1367.82 -1.29565 2.84924 0
M  V30 14123 C 1368.29 -1.67661 4.26209 0
M  V30 14124 N 1369.79 -1.74725 4.28982 0
M  V30 14125 C 1370.52 -2.05631 5.3526 0
M  V30 14126 N 1370.02 -2.34814 6.51793 0
M  V30 14127 N 1371.81 -2.06815 5.2267 0
M  V30 14128 H 1363.96 0.242065 2.11016 0
M  V30 14129 H 1366.22 0.0456901 0.946898 0
M  V30 14130 H 1365.93 -0.423769 3.49138 0
M  V30 14131 H 1365.8 -2.13227 3.11149 0
M  V30 14132 H 1368.19 -2.0496 2.1231 0
M  V30 14133 H 1368.27 -0.331059 2.53649 0
M  V30 14134 H 1367.92 -0.928198 4.99346 0
M  V30 14135 H 1367.85 -2.65207 4.54943 0
M  V30 14136 H 1370.34 -1.54364 3.44935 0
M  V30 14137 H 1370.65 -2.57562 7.28616 0
M  V30 14138 H 1368.99 -2.32288 6.55032 0
M  V30 14139 H 1372.19 -1.83487 4.30639 0
M  V30 14140 H 1372.36 -2.30568 6.05593 0
M  V30 14141 N 1365.76 -1.381 -0.759346 0
M  V30 14142 C 1367.04 -1.24517 -1.50847 0
M  V30 14143 C 1367.42 0.155929 -2.10523 0
M  V30 14144 O 1366.77 1.16485 -1.96579 0
M  V30 14145 C 1366.98 -2.35086 -2.57945 0
M  V30 14146 C 1368.33 -2.73232 -3.25007 0
M  V30 14147 O 1369.35 -2.34355 -2.68247 0
M  V30 14148 O 1368.21 -3.40254 -4.27656 0
M  V30 14149 H 1365.3 -0.486599 -0.668693 0
M  V30 14150 H 1367.85 -1.49913 -0.795249 0
M  V30 14151 H 1366.62 -3.28858 -2.12056 0
M  V30 14152 H 1366.25 -2.11222 -3.36854 0
M  V30 14153 N 1367.24 0.986894 -1.22875 0
M  V30 14154 C 1368.47 1.76266 -1.08342 0
M  V30 14155 C 1368.89 1.85226 0.365602 0
M  V30 14156 O 1368.24 1.32675 1.25314 0
M  V30 14157 C 1368.29 3.19282 -1.69533 0
M  V30 14158 O 1368.01 3.10796 -3.08768 0
M  V30 14159 C 1369.52 4.13281 -1.60355 0
M  V30 14160 H 1366.74 0.553374 -0.379497 0
M  V30 14161 H 1369.28 1.24033 -1.62592 0
M  V30 14162 H 1367.43 3.68563 -1.19332 0
M  V30 14163 H 1367.85 4.0078 -3.38343 0
M  V30 14164 H 1369.32 5.11359 -2.07884 0
M  V30 14165 H 1369.8 4.356 -0.561182 0
M  V30 14166 H 1370.41 3.699 -2.09891 0
M  V30 14167 N 1368.72 1.0394 1.18466 0
M  V30 14168 C 1369.67 0.59975 2.1997 0
M  V30 14169 C 1370.65 -0.357127 1.56887 0
M  V30 14170 O 1371.85 -0.176388 1.76119 0
M  V30 14171 C 1368.98 -0.0371434 3.4328 0
M  V30 14172 C 1368.06 0.942805 4.13488 0
M  V30 14173 N 1368.45 2.10936 4.59717 0
M  V30 14174 C 1366.75 0.768529 4.39329 0
M  V30 14175 C 1367.45 2.72829 5.1375 0
M  V30 14176 N 1366.43 2.00713 5.05188 0
M  V30 14177 H 1370.23 1.48875 2.53403 0
M  V30 14178 H 1367.74 0.907817 1.34657 0
M  V30 14179 H 1369.74 -0.369803 4.15257 0
M  V30 14180 H 1368.4 -0.921701 3.11343 0
M  V30 14181 H 1369.41 2.48831 4.54207 0
M  V30 14182 H 1366.09 -0.0660446 4.17448 0
M  V30 14183 H 1367.48 3.71684 5.59733 0
M  V30 14184 N 1370.2 -1.34667 0.818693 0
M  V30 14185 C 1371.61 -1.51436 0.503921 0
M  V30 14186 C 1371.81 -1.76468 -0.972691 0
M  V30 14187 O 1370.87 -1.81314 -1.75731 0
M  V30 14188 C 1372.18 -2.68198 1.35978 0
M  V30 14189 C 1373.73 -2.8208 1.35647 0
M  V30 14190 C 1374.21 -4.01881 2.19672 0
M  V30 14191 N 1375.7 -4.0908 2.17273 0
M  V30 14192 C 1376.43 -5.00925 2.79038 0
M  V30 14193 N 1375.93 -5.9802 3.49777 0
M  V30 14194 N 1377.72 -4.93764 2.68615 0
M  V30 14195 H 1369.87 -1.16677 1.77483 0
M  V30 14196 H 1372.14 -0.571873 0.756085 0
M  V30 14197 H 1371.84 -2.56317 2.4082 0
M  V30 14198 H 1371.72 -3.63105 1.0215 0
M  V30 14199 H 1374.1 -2.93405 0.315849 0
M  V30 14200 H 1374.18 -1.87994 1.7347 0
M  V30 14201 H 1373.83 -3.91316 3.23781 0
M  V30 14202 H 1373.76 -4.95171 1.79202 0
M  V30 14203 H 1376.25 -3.3958 1.65814 0
M  V30 14204 H 1376.56 -6.64722 3.94162 0
M  V30 14205 H 1374.91 -5.98157 3.53883 0
M  V30 14206 H 1378.1 -4.16868 2.12929 0
M  V30 14207 H 1378.27 -5.65147 3.17038 0
M  V30 14208 N 1371.68 -0.573274 -1.46804 0
M  V30 14209 C 1372.61 0.153316 -2.32996 0
M  V30 14210 C 1373.59 0.893013 -1.44773 0
M  V30 14211 O 1374.77 0.870329 -1.73606 0
M  V30 14212 C 1371.9 1.1736 -3.2687 0
M  V30 14213 C 1370.86 0.549347 -4.2446 0
M  V30 14214 C 1370.18 1.67542 -5.07773 0
M  V30 14215 C 1371.48 -0.50736 -5.1983 0
M  V30 14216 H 1373.18 -0.566305 -2.93995 0
M  V30 14217 H 1370.72 -0.273785 -1.41373 0
M  V30 14218 H 1372.68 1.6902 -3.86019 0
M  V30 14219 H 1371.4 1.92337 -2.63958 0
M  V30 14220 H 1370.06 0.0539142 -3.6656 0
M  V30 14221 H 1369.71 2.41463 -4.41253 0
M  V30 14222 H 1369.41 1.26343 -5.73856 0
M  V30 14223 H 1370.93 2.19496 -5.69784 0
M  V30 14224 H 1372.34 -0.0762061 -5.73249 0
M  V30 14225 H 1370.74 -0.839139 -5.94204 0
M  V30 14226 H 1371.81 -1.39723 -4.64333 0
M  V30 14227 N 1373.15 1.5451 -0.310553 0
M  V30 14228 C 1374.57 1.85829 0.180166 0
M  V30 14229 C 1374.92 1.23239 1.52665 0
M  V30 14230 O 1374.04 0.53359 2.09718 0
M  V30 14231 C 1374.64 3.37153 0.333687 0
M  V30 14232 C 1373.2 3.68469 0.768625 0
M  V30 14233 C 1372.34 2.77051 -0.117399 0
M  V30 14234 H 1375.29 1.49544 -0.531262 0
M  V30 14235 H 1375.31 3.62171 1.16673 0
M  V30 14236 H 1374.83 3.82678 -0.646455 0
M  V30 14237 H 1372.93 3.28467 1.75898 0
M  V30 14238 H 1373.04 4.75559 0.581392 0
M  V30 14239 H 1371.4 2.51461 0.404905 0
M  V30 14240 H 1372.19 3.254 -1.09407 0
M  V30 14241 N 1374.63 0.0384594 1.57553 0
M  V30 14242 C 1376.05 -0.318006 1.564 0
M  V30 14243 C 1376.25 -1.72287 1.04496 0
M  V30 14244 O 1375.31 -2.42722 0.695861 0
M  V30 14245 C 1376.62 -0.158079 3.00284 0
M  V30 14246 C 1378.17 -0.230143 3.12153 0
M  V30 14247 C 1378.64 -0.0988948 4.57893 0
M  V30 14248 N 1380.13 -0.15558 4.62939 0
M  V30 14249 C 1380.87 -0.077948 5.73347 0
M  V30 14250 N 1380.36 0.0513054 6.92781 0
M  V30 14251 N 1382.16 -0.132612 5.61944 0
M  V30 14252 H 1374.31 0.957014 1.89618 0
M  V30 14253 H 1376.57 0.370396 0.872646 0
M  V30 14254 H 1376.28 0.810032 3.42245 0
M  V30 14255 H 1376.15 -0.924413 3.65697 0
M  V30 14256 H 1378.54 -1.18872 2.70099 0
M  V30 14257 H 1378.62 0.56673 2.49443 0
M  V30 14258 H 1378.26 0.856301 5.00629 0
M  V30 14259 H 1378.19 -0.91475 5.18594 0
M  V30 14260 H 1380.68 -0.255245 3.77037 0
M  V30 14261 H 1381 0.103595 7.72731 0
M  V30 14262 H 1379.34 0.0862166 6.94947 0
M  V30 14263 H 1382.53 -0.232056 4.67524 0
M  V30 14264 H 1382.71 -0.0686506 6.47964 0
M  V30 14265 N 1376.11 -1.55841 -0.234795 0
M  V30 14266 C 1377.07 -1.9051 -1.2743 0
M  V30 14267 C 1378.07 -0.782543 -1.40474 0
M  V30 14268 O 1379.26 -1.05043 -1.38966 0
M  V30 14269 C 1376.4 -2.14424 -2.65019 0
M  V30 14270 H 1377.59 -2.83471 -0.979003 0
M  V30 14271 H 1375.14 -1.48919 -0.47463 0
M  V30 14272 H 1375.88 -1.23972 -2.99669 0
M  V30 14273 H 1375.66 -2.96191 -2.56931 0
M  V30 14274 H 1377.15 -2.42388 -3.40056 0
M  V30 14275 N 1377.59 0.500963 -1.49426 0
M  V30 14276 C 1378.52 1.61114 -1.69011 0
M  V30 14277 C 1379.5 1.61341 -0.538813 0
M  V30 14278 O 1380.69 1.78081 -0.77466 0
M  V30 14279 C 1377.82 2.99598 -1.75666 0
M  V30 14280 C 1376.77 3.14236 -2.90585 0
M  V30 14281 C 1376.1 4.54071 -2.82354 0
M  V30 14282 C 1377.4 2.94258 -4.3152 0
M  V30 14283 H 1379.09 1.44978 -2.61957 0
M  V30 14284 H 1376.64 0.69603 -1.26061 0
M  V30 14285 H 1378.59 3.77163 -1.87953 0
M  V30 14286 H 1377.31 3.16822 -0.793186 0
M  V30 14287 H 1375.97 2.39096 -2.779 0
M  V30 14288 H 1375.62 4.68172 -1.83914 0
M  V30 14289 H 1375.32 4.64806 -3.59485 0
M  V30 14290 H 1376.84 5.33696 -2.96649 0
M  V30 14291 H 1378.26 3.61592 -4.44886 0
M  V30 14292 H 1376.65 3.16464 -5.09873 0
M  V30 14293 H 1377.72 1.90383 -4.45962 0
M  V30 14294 O 1379.11 1.48006 0.64625 0
M  V30 14295 H 1379.8 1.43604 1.29991 0
M  V30 END ATOM
M  V30 BEGIN BOND
M  V30 END BOND
M  V30 END CTAB
M  END
$$$$
