drugbank_target|P31013 Tyrosine phenol-lyase (DB03897)
 OpenBabel12092120473D

  0  0  0     0  0            999 V3000
M  V30 BEGIN CTAB
M  V30 COUNTS 7178 7250 0 0 0
M  V30 BEGIN ATOM
M  V30 1 H -0.908 1.98254 -0.117106 0
M  V30 2 N 0 1.576 0 0
M  V30 3 C 0.933 2.03868 1.02534 0
M  V30 4 C 1.911 0.928543 1.3348 0
M  V30 5 O 3.095 1.19667 1.45644 0
M  V30 6 C 0.222 2.43627 2.35294 0
M  V30 7 C -0.732 3.65373 2.2001 0
M  V30 8 S 0.101 5.13292 1.52614 0
M  V30 9 C 1.257 5.56322 2.86805 0
M  V30 10 H 1.49 2.90518 0.631377 0
M  V30 11 H -0.977 1.52953 0.210867 0
M  V30 12 H 0.981 2.67203 3.11629 0
M  V30 13 H -0.358 1.57376 2.7183 0
M  V30 14 H -1.165 3.90944 3.18086 0
M  V30 15 H -1.563 3.418 1.51819 0
M  V30 16 H 0.729 5.58782 3.83104 0
M  V30 17 H 1.672 6.56266 2.65933 0
M  V30 18 H 2.08 4.83886 2.90714 0
M  V30 19 N 1.4781 -0.272755 1.55222 0
M  V30 20 C 2.4261 -1.35705 1.88909 0
M  V30 21 C 3.4201 -1.5112 0.765456 0
M  V30 22 O 4.6261 -1.52901 0.949802 0
M  V30 23 H 1.0011 -0.453868 0.59959 0
M  V30 24 H 2.9721 -1.04544 2.79487 0
M  V30 25 C 1.7211 -2.71049 2.17779 0
M  V30 26 H 1.0441 -2.59979 3.03728 0
M  V30 27 H 2.4841 -3.45858 2.45272 0
M  V30 28 C 0.9431 -3.22165 0.985473 0
M  V30 29 O 1.4731 -4.01096 0.220233 0
M  V30 30 N -0.3209 -2.7985 0.783108 0
M  V30 31 H -0.7739 -2.15775 1.40708 0
M  V30 32 H -0.8159 -3.14397 -0.0130392 0
M  V30 33 N 2.9562 -1.48159 -0.537278 0
M  V30 34 C 4.1862 -1.59223 -1.3165 0
M  V30 35 C 4.5942 -0.248849 -1.87556 0
M  V30 36 O 3.9372 0.770949 -1.6674 0
M  V30 37 C 3.9992 -2.57365 -2.51005 0
M  V30 38 C 3.6632 -4.02603 -2.16239 0
M  V30 39 C 4.6602 -4.90503 -1.72344 0
M  V30 40 C 2.3452 -4.48088 -2.26986 0
M  V30 41 C 4.3392 -6.21913 -1.39651 0
M  V30 42 C 2.0262 -5.7952 -1.93906 0
M  V30 43 C 3.0242 -6.66255 -1.50309 0
M  V30 44 O 2.7122 -7.95243 -1.17659 0
M  V30 45 H 2.4442 -0.539831 -0.406889 0
M  V30 46 H 4.9982 -1.94655 -0.655641 0
M  V30 47 H 3.2282 -2.1704 -3.20048 0
M  V30 48 H 4.9172 -2.58342 -3.13072 0
M  V30 49 H 5.6832 -4.56604 -1.63517 0
M  V30 50 H 1.5622 -3.80769 -2.59877 0
M  V30 51 H 5.1062 -6.89569 -1.0555 0
M  V30 52 H 1.0032 -6.12957 -2.02371 0
M  V30 53 H 1.7712 -8.0793 -1.31119 0
M  V30 54 N 4.4343 0.785586 -1.36625 0
M  V30 55 C 5.8453 1.36101 -1.27803 0
M  V30 56 C 6.1963 1.96035 0.0804875 0
M  V30 57 O 5.3213 1.92834 0.982042 0
M  V30 58 C 5.9163 2.47442 -2.31426 0
M  V30 59 C 4.4753 3.00789 -2.26281 0
M  V30 60 C 3.6223 1.73896 -2.15999 0
M  V30 61 H 6.5733 0.586928 -1.47448 0
M  V30 62 H 6.5943 3.2656 -1.95291 0
M  V30 63 H 6.1063 2.03791 -3.30289 0
M  V30 64 H 4.2073 3.48851 -1.30896 0
M  V30 65 H 4.3203 3.57343 -3.19128 0
M  V30 66 H 2.6843 1.9628 -1.62316 0
M  V30 67 H 3.4673 1.32368 -3.16755 0
M  V30 68 N 5.9124 1.20967 1.01018 0
M  V30 69 C 6.8754 0.965918 2.07853 0
M  V30 70 C 7.8754 -0.0610545 1.60684 0
M  V30 71 O 9.0654 0.175681 1.73312 0
M  V30 72 C 6.1974 0.455513 3.37843 0
M  V30 73 H 7.3904 1.91365 2.3091 0
M  V30 74 H 4.9434 1.02594 1.17916 0
M  V30 75 H 5.6784 -0.497381 3.20463 0
M  V30 76 H 5.4634 1.19622 3.73407 0
M  V30 77 H 6.9534 0.304667 4.16487 0
M  V30 78 N 7.3905 -1.2043 1.01659 0
M  V30 79 C 8.3005 -2.2689 0.596484 0
M  V30 80 C 9.3165 -1.70107 -0.36599 0
M  V30 81 O 10.4925 -2.00117 -0.226942 0
M  V30 82 C 7.5575 -3.4665 -0.0586659 0
M  V30 83 C 6.6185 -4.18662 0.949751 0
M  V30 84 C 5.8515 -5.32705 0.32577 0
M  V30 85 O 6.0745 -5.63656 -0.874509 0
M  V30 86 O 5.0085 -5.92803 1.04249 0
M  V30 87 H 8.8345 -2.65041 1.4828 0
M  V30 88 H 6.4195 -1.27048 0.786082 0
M  V30 89 H 8.3015 -4.19256 -0.424564 0
M  V30 90 H 6.9765 -3.10375 -0.91918 0
M  V30 91 H 5.8835 -3.48229 1.36702 0
M  V30 92 H 7.2165 -4.58878 1.78023 0
M  V30 93 N 8.8686 -0.792821 -1.36206 0
M  V30 94 C 10.2796 -0.429513 -1.81692 0
M  V30 95 C 10.6306 1.04695 -1.65932 0
M  V30 96 O 9.7556 1.81256 -1.18218 0
M  V30 97 C 10.3506 -0.772831 -3.29868 0
M  V30 98 C 8.9096 -0.462307 -3.7355 0
M  V30 99 C 8.0566 -1.00569 -2.5842 0
M  V30 100 H 11.0076 -0.985672 -1.24379 0
M  V30 101 H 11.0286 -0.0651928 -3.80444 0
M  V30 102 H 10.5406 -1.84747 -3.41307 0
M  V30 103 H 8.6416 0.604158 -3.67669 0
M  V30 104 H 8.7546 -0.985299 -4.68859 0
M  V30 105 H 7.1186 -0.428734 -2.51066 0
M  V30 106 H 7.9016 -2.08616 -2.72643 0
M  V30 107 N 10.3467 1.47872 -0.545128 0
M  V30 108 C 11.5937 2.02493 -0.0165858 0
M  V30 109 C 11.9217 1.42073 1.32836 0
M  V30 110 O 11.1767 0.561459 1.87473 0
M  V30 111 C 11.4757 3.57131 0.13867 0
M  V30 112 C 11.1417 4.36411 -1.13384 0
M  V30 113 C 9.8037 4.57792 -1.48256 0
M  V30 114 C 12.1557 4.82223 -1.97764 0
M  V30 115 C 9.4837 5.22233 -2.67376 0
M  V30 116 C 11.8357 5.47977 -3.16076 0
M  V30 117 C 10.4997 5.67593 -3.51275 0
M  V30 118 H 9.7697 0.740975 -0.00606918 0
M  V30 119 H 12.4167 1.77683 -0.714207 0
M  V30 120 H 10.7217 3.80865 0.919172 0
M  V30 121 H 12.4187 3.97031 0.562782 0
M  V30 122 H 9.0087 4.2004 -0.852297 0
M  V30 123 H 13.1927 4.65493 -1.72132 0
M  V30 124 H 8.4487 5.35616 -2.94831 0
M  V30 125 H 12.6227 5.8244 -3.81755 0
M  V30 126 H 10.2497 6.17298 -4.43675 0
M  V30 127 N 11.8248 0.280983 1.55075 0
M  V30 128 C 13.2408 -0.0729964 1.59433 0
M  V30 129 C 13.4408 -1.5411 1.29817 0
M  V30 130 O 12.4968 -2.29086 1.06187 0
M  V30 131 C 13.8098 0.306921 2.9913 0
M  V30 132 C 15.3578 0.254023 3.11968 0
M  V30 133 C 15.8328 0.608467 4.5394 0
M  V30 134 N 17.3238 0.560241 4.59799 0
M  V30 135 C 18.0588 0.80722 5.6769 0
M  V30 136 N 17.5548 1.11912 6.83701 0
M  V30 137 N 19.3478 0.735623 5.57266 0
M  V30 138 H 11.4988 1.238 1.7259 0
M  V30 139 H 13.7618 0.500547 0.805082 0
M  V30 140 H 13.4678 1.32816 3.25657 0
M  V30 141 H 13.3418 -0.349363 3.75579 0
M  V30 142 H 15.7288 -0.75794 2.852 0
M  V30 143 H 15.8098 0.944649 2.37718 0
M  V30 144 H 15.4538 1.61814 4.81434 0
M  V30 145 H 15.3838 -0.104013 5.26497 0
M  V30 146 H 17.8748 0.329288 3.76463 0
M  V30 147 H 18.1878 1.29409 7.61888 0
M  V30 148 H 16.5328 1.15695 6.85303 0
M  V30 149 H 19.7238 0.491752 4.6551 0
M  V30 150 H 19.8968 0.931482 6.4127 0
M  V30 151 N 13.3029 -1.57598 0.00835791 0
M  V30 152 C 14.5519 -1.90107 -0.673968 0
M  V30 153 C 14.8649 -0.884275 -1.7447 0
M  V30 154 O 16.0709 -1.09987 -2.48224 0
M  V30 155 C 14.5269 -3.37497 -1.24995 0
M  V30 156 C 14.1349 -4.47491 -0.2136 0
M  V30 157 C 15.8789 -3.79104 -1.90999 0
M  V30 158 C 13.7859 -5.85963 -0.80005 0
M  V30 159 H 12.7159 -0.709393 -0.255495 0
M  V30 160 H 15.3669 -1.83365 0.0702693 0
M  V30 161 H 13.7489 -3.39102 -2.04513 0
M  V30 162 H 14.9229 -4.57414 0.557596 0
M  V30 163 H 13.2379 -4.14956 0.346474 0
M  V30 164 H 15.8349 -4.79901 -2.35795 0
M  V30 165 H 16.1779 -3.1306 -2.74407 0
M  V30 166 H 16.7109 -3.79833 -1.18203 0
M  V30 167 H 13.4499 -6.555 -0.00456708 0
M  V30 168 H 12.9699 -5.79687 -1.54021 0
M  V30 169 H 14.6489 -6.33884 -1.29615 0
M  V30 170 N 14.781 0.264519 -1.55364 0
M  V30 171 C 15.728 1.32717 -1.88825 0
M  V30 172 C 16.698 1.48675 -0.740605 0
M  V30 173 O 17.883 1.62945 -0.992657 0
M  V30 174 C 15.023 2.68089 -2.17307 0
M  V30 175 C 14.136 2.60284 -3.44785 0
M  V30 176 C 13.271 3.87892 -3.62924 0
M  V30 177 C 12.31 3.74631 -4.84064 0
M  V30 178 N 11.447 4.94092 -4.98816 0
M  V30 179 H 16.287 1.03481 -2.79456 0
M  V30 180 H 13.824 0.499757 -1.3835 0
M  V30 181 H 15.782 3.46864 -2.31821 0
M  V30 182 H 14.412 2.95509 -1.299 0
M  V30 183 H 13.464 1.73173 -3.38697 0
M  V30 184 H 14.776 2.46388 -4.33698 0
M  V30 185 H 13.93 4.75109 -3.77302 0
M  V30 186 H 12.669 4.04664 -2.7221 0
M  V30 187 H 11.674 2.85797 -4.69681 0
M  V30 188 H 12.899 3.5937 -5.76221 0
M  V30 189 H 10.845 5.11259 -4.11036 0
M  V30 190 H 10.762 4.8276 -5.81789 0
M  V30 191 H 12.03 5.82857 -5.17588 0
M  V30 192 N 16.2591 1.48442 0.529413 0
M  V30 193 C 17.4841 1.60406 1.31471 0
M  V30 194 C 17.9091 0.264738 1.86228 0
M  V30 195 O 17.2671 -0.763668 1.64432 0
M  V30 196 C 17.3151 2.65419 2.44101 0
M  V30 197 O 16.4191 2.22618 3.47153 0
M  V30 198 H 15.7601 0.537863 0.389357 0
M  V30 199 H 18.2901 1.94432 0.636965 0
M  V30 200 H 18.3001 2.86709 2.90279 0
M  V30 201 H 16.9751 3.62652 2.03608 0
M  V30 202 H 15.5521 2.11543 3.0709 0
M  V30 203 N 17.7372 -0.778329 1.37039 0
M  V30 204 C 18.9832 -1.53892 1.32079 0
M  V30 205 C 19.3162 -1.9396 -0.0965386 0
M  V30 206 O 18.5912 -1.63568 -1.05242 0
M  V30 207 C 18.8742 -2.80847 2.25382 0
M  V30 208 C 18.7272 -2.47076 3.75864 0
M  V30 209 C 20.0462 -3.82741 2.1725 0
M  V30 210 H 17.1652 -0.558303 0.48111 0
M  V30 211 H 19.8072 -0.893397 1.67685 0
M  V30 212 H 17.9572 -3.35931 1.95148 0
M  V30 213 H 19.6292 -1.97957 4.16666 0
M  V30 214 H 17.8722 -1.79863 3.94755 0
M  V30 215 H 18.5432 -3.37798 4.36574 0
M  V30 216 H 21.0192 -3.37133 2.43887 0
M  V30 217 H 19.8952 -4.69303 2.84686 0
M  V30 218 H 20.1562 -4.2652 1.16331 0
M  V30 219 N 19.2153 -1.21501 -1.00376 0
M  V30 220 C 20.1253 -0.991447 -2.12621 0
M  V30 221 C 21.1413 0.0568446 -1.73907 0
M  V30 222 O 22.3173 -0.13348 -2.00957 0
M  V30 223 C 19.3823 -0.560312 -3.42142 0
M  V30 224 C 18.4433 -1.68096 -3.95022 0
M  V30 225 C 17.6763 -1.2703 -5.18362 0
M  V30 226 O 17.8993 -0.144438 -5.70217 0
M  V30 227 O 16.8333 -2.08269 -5.64719 0
M  V30 228 H 20.6593 -1.93158 -2.34358 0
M  V30 229 H 18.2443 -0.999999 -1.10997 0
M  V30 230 H 20.1263 -0.329724 -4.20108 0
M  V30 231 H 18.8013 0.351089 -3.2179 0
M  V30 232 H 17.7083 -1.96597 -3.18278 0
M  V30 233 H 19.0413 -2.56983 -4.19786 0
M  V30 234 N 20.6934 1.19889 -1.02296 0
M  V30 235 C 21.9214 1.9339 -0.735399 0
M  V30 236 C 22.3364 1.75148 0.704887 0
M  V30 237 O 21.6934 1.06954 1.47875 0
M  V30 238 C 21.7444 3.45313 -1.06962 0
M  V30 239 O 21.4654 3.62964 -2.45334 0
M  V30 240 C 22.9664 4.35948 -0.804021 0
M  V30 241 H 20.1864 0.61448 -0.269546 0
M  V30 242 H 22.7304 1.522 -1.36585 0
M  V30 243 H 20.8854 3.84359 -0.484455 0
M  V30 244 H 21.2994 4.56886 -2.57595 0
M  V30 245 H 22.7734 5.41174 -1.0879 0
M  V30 246 H 23.2504 4.3842 0.261691 0
M  V30 247 H 23.8564 4.02574 -1.37164 0
M  V30 248 N 22.1715 0.800033 1.35784 0
M  V30 249 C 23.4175 0.377901 1.99248 0
M  V30 250 C 23.7505 -1.05052 1.63333 0
M  V30 251 O 23.0255 -1.72768 0.893385 0
M  V30 252 C 23.3085 0.553922 3.55814 0
M  V30 253 C 23.1615 2.0268 4.01548 0
M  V30 254 C 24.4805 -0.0244802 4.40093 0
M  V30 255 H 21.5995 0.138782 0.723815 0
M  V30 256 H 24.2415 1.00835 1.61035 0
M  V30 257 H 22.3915 0.0172398 3.88496 0
M  V30 258 H 24.0635 2.62536 3.79305 0
M  V30 259 H 22.3065 2.5256 3.52698 0
M  V30 260 H 22.9775 2.10087 5.10458 0
M  V30 261 H 25.4535 0.433775 4.13833 0
M  V30 262 H 24.3295 0.128637 5.48749 0
M  V30 263 H 24.5905 -1.11758 4.27741 0
M  V30 264 N 23.6496 -1.47581 0.552962 0
M  V30 265 C 24.8746 -2.07378 0.0300593 0
M  V30 266 C 25.2996 -1.40355 -1.25229 0
M  V30 267 O 24.6576 -0.477099 -1.7491 0
M  V30 268 C 24.7056 -3.60274 -0.153231 0
M  V30 269 O 23.8096 -3.94041 -1.21678 0
M  V30 270 H 23.1506 -0.662158 0.0494182 0
M  V30 271 H 25.6806 -1.89662 0.767434 0
M  V30 272 H 25.6906 -4.0633 -0.368761 0
M  V30 273 H 24.3656 -4.08455 0.783397 0
M  V30 274 H 22.9426 -3.59735 -0.982079 0
M  V30 275 N 25.1277 -0.289203 -1.54924 0
M  V30 276 C 26.0607 0.633823 -2.19221 0
M  V30 277 C 27.0387 1.14174 -1.15772 0
M  V30 278 O 28.2227 1.21211 -1.44361 0
M  V30 279 C 25.3497 1.86592 -2.82668 0
M  V30 280 C 24.3957 1.49227 -3.99542 0
M  V30 281 S 25.2287 0.558312 -5.32582 0
M  V30 282 C 26.3847 1.79847 -5.99505 0
M  V30 283 H 26.6177 0.0875416 -2.97171 0
M  V30 284 H 24.1507 -0.0733899 -1.54225 0
M  V30 285 H 26.1087 2.57305 -3.19851 0
M  V30 286 H 24.7697 2.38335 -2.04585 0
M  V30 287 H 23.9627 2.40945 -4.42676 0
M  V30 288 H 23.5647 0.865193 -3.63855 0
M  V30 289 H 25.8567 2.7406 -6.19595 0
M  V30 290 H 26.7997 1.4099 -6.93922 0
M  V30 291 H 27.2077 1.96982 -5.29016 0
M  V30 292 N 26.6058 1.57591 -0.0167156 0
M  V30 293 C 27.8548 1.90461 0.663877 0
M  V30 294 C 28.1678 0.893515 1.73999 0
M  V30 295 O 29.3738 1.11302 2.47637 0
M  V30 296 C 27.8298 3.38155 1.23204 0
M  V30 297 C 27.4378 4.47597 0.189866 0
M  V30 298 C 29.1818 3.80111 1.88986 0
M  V30 299 C 27.0888 5.86379 0.768964 0
M  V30 300 H 26.0188 0.710738 0.251729 0
M  V30 301 H 28.6698 1.83326 -0.0799926 0
M  V30 302 H 27.0518 3.40182 2.02712 0
M  V30 303 H 28.2258 4.57112 -0.581846 0
M  V30 304 H 26.5408 4.14766 -0.368475 0
M  V30 305 H 29.1378 4.81145 2.33247 0
M  V30 306 H 29.4808 3.14511 2.72743 0
M  V30 307 H 30.0138 3.80454 1.16187 0
M  V30 308 H 26.7528 6.55493 -0.0301957 0
M  V30 309 H 26.2728 5.80496 1.50945 0
M  V30 310 H 27.9518 6.34563 1.26251 0
M  V30 311 N 28.0839 -0.256276 1.55502 0
M  V30 312 C 29.4949 -0.826068 1.67431 0
M  V30 313 C 29.8459 -1.86396 0.612446 0
M  V30 314 O 28.9709 -2.15031 -0.243025 0
M  V30 315 C 29.5659 -1.50512 3.03532 0
M  V30 316 C 28.1249 -2.02273 3.17431 0
M  V30 317 C 27.2719 -0.870548 2.63281 0
M  V30 318 H 30.2229 -0.0322728 1.58667 0
M  V30 319 H 30.2439 -2.37279 2.97454 0
M  V30 320 H 29.7559 -0.749484 3.80794 0
M  V30 321 H 27.8569 -2.80746 2.44974 0
M  V30 322 H 27.9699 -2.22655 4.24219 0
M  V30 323 H 26.3339 -1.26851 2.20864 0
M  V30 324 H 27.1169 -0.128149 3.43061 0
M  V30 325 N 29.562 -1.4872 -0.521534 0
M  V30 326 C 30.978 -1.35028 -0.850855 0
M  V30 327 C 31.178 -0.367712 -1.98116 0
M  V30 328 O 30.234 0.208037 -2.51642 0
M  V30 329 C 31.547 -2.75263 -1.21041 0
M  V30 330 C 33.095 -2.83813 -1.31981 0
M  V30 331 C 33.57 -4.24769 -1.71276 0
M  V30 332 N 35.061 -4.27482 -1.78363 0
M  V30 333 C 35.796 -5.33494 -2.1017 0
M  V30 334 N 35.292 -6.49775 -2.40343 0
M  V30 335 N 37.085 -5.20894 -2.11248 0
M  V30 336 H 29.236 -2.11214 0.22413 0
M  V30 337 H 31.499 -0.947252 0.0376439 0
M  V30 338 H 31.205 -3.48765 -0.453415 0
M  V30 339 H 31.079 -3.09327 -2.15863 0
M  V30 340 H 33.466 -2.10561 -2.06756 0
M  V30 341 H 33.547 -2.53358 -0.352596 0
M  V30 342 H 33.191 -4.9854 -0.970588 0
M  V30 343 H 33.121 -4.52673 -2.69062 0
M  V30 344 H 35.612 -3.43611 -1.57288 0
M  V30 345 H 35.925 -7.26402 -2.63743 0
M  V30 346 H 34.27 -6.53035 -2.37844 0
M  V30 347 H 37.461 -4.29065 -1.87139 0
M  V30 348 H 37.634 -6.03612 -2.35704 0
M  V30 349 N 31.0401 0.771051 -1.3745 0
M  V30 350 C 32.3171 1.519 -1.23231 0
M  V30 351 C 32.6971 2.10383 0.173809 0
M  V30 352 O 32.0451 1.95583 1.18151 0
M  V30 353 C 32.2551 2.59933 -2.32886 0
M  V30 354 C 33.6031 3.27316 -2.70461 0
M  V30 355 O 34.6271 2.70228 -2.32068 0
M  V30 356 O 33.4861 4.30531 -3.36608 0
M  V30 357 H 30.5801 0.672803 -0.480901 0
M  V30 358 H 33.1261 0.807957 -1.49232 0
M  V30 359 H 31.8981 2.14842 -3.27045 0
M  V30 360 H 31.5211 3.38637 -2.08353 0
M  V30 361 N 32.5182 1.22032 0.997298 0
M  V30 362 C 33.4282 1.00271 2.12092 0
M  V30 363 C 34.4442 -0.047621 1.73935 0
M  V30 364 O 35.6202 0.144136 2.00884 0
M  V30 365 C 32.6852 0.578449 3.4184 0
M  V30 366 C 31.7462 1.70189 3.94125 0
M  V30 367 C 30.9792 1.29778 5.17681 0
M  V30 368 O 31.2022 0.174676 5.70132 0
M  V30 369 O 30.1362 2.11261 5.63607 0
M  V30 370 H 33.9622 1.94398 2.3333 0
M  V30 371 H 31.5472 1.00587 1.10465 0
M  V30 372 H 33.4292 0.351998 4.19927 0
M  V30 373 H 32.1042 -0.334019 3.21972 0
M  V30 374 H 31.0112 1.98282 3.1723 0
M  V30 375 H 32.3442 2.59206 4.18417 0
M  V30 376 N 33.9963 -1.19345 1.0293 0
M  V30 377 C 35.4123 -1.41069 0.746446 0
M  V30 378 C 35.6123 -1.90078 -0.668776 0
M  V30 379 O 34.6683 -2.0778 -1.4347 0
M  V30 380 C 35.9813 -2.42141 1.78292 0
M  V30 381 C 37.5293 -2.55887 1.80252 0
M  V30 382 C 38.0043 -3.60214 2.8286 0
M  V30 383 N 39.4953 -3.67711 2.81679 0
M  V30 384 C 40.2303 -4.48128 3.57727 0
M  V30 385 N 39.7263 -5.32248 4.43491 0
M  V30 386 N 41.5193 -4.42782 3.46267 0
M  V30 387 H 33.6703 -0.858536 1.94275 0
M  V30 388 H 35.9333 -0.439541 0.839945 0
M  V30 389 H 35.6393 -2.13155 2.79746 0
M  V30 390 H 35.5133 -3.41323 1.60557 0
M  V30 391 H 37.9003 -2.84196 0.794757 0
M  V30 392 H 37.9813 -1.56858 2.02062 0
M  V30 393 H 37.6253 -3.32647 3.83807 0
M  V30 394 H 37.5553 -4.58895 2.58307 0
M  V30 395 H 40.0463 -3.07634 2.19476 0
M  V30 396 H 40.3593 -5.90729 4.98256 0
M  V30 397 H 38.7043 -5.31707 4.47564 0
M  V30 398 H 41.8953 -3.76107 2.78677 0
M  V30 399 H 42.0683 -5.05215 4.05785 0
M  V30 400 N 35.4744 -0.807222 -1.35358 0
M  V30 401 C 36.4044 -0.232509 -2.3234 0
M  V30 402 C 37.3854 0.642386 -1.57504 0
M  V30 403 O 38.5704 0.572526 -1.85569 0
M  V30 404 C 35.7004 0.619238 -3.41735 0
M  V30 405 C 34.6544 -0.157215 -4.27711 0
M  V30 406 C 33.9804 0.816273 -5.28433 0
M  V30 407 C 35.2804 -1.35656 -5.04376 0
M  V30 408 H 36.9744 -1.04276 -2.80654 0
M  V30 409 H 34.5204 -0.50288 -1.34934 0
M  V30 410 H 36.4734 1.03137 -4.08584 0
M  V30 411 H 35.1974 1.46239 -2.92031 0
M  V30 412 H 33.8564 -0.550525 -3.62443 0
M  V30 413 H 33.5044 1.65494 -4.74996 0
M  V30 414 H 33.2044 0.301067 -5.86828 0
M  V30 415 H 34.7284 1.22659 -5.98153 0
M  V30 416 H 36.1424 -1.01927 -5.64166 0
M  V30 417 H 34.5394 -1.8063 -5.7227 0
M  V30 418 H 35.6094 -2.14288 -4.34981 0
M  V30 419 N 36.9525 1.47285 -0.560781 0
M  V30 420 C 37.8995 2.30058 0.18491 0
M  V30 421 C 38.8695 1.39281 0.904986 0
M  V30 422 O 40.0545 1.68241 0.899979 0
M  V30 423 C 37.1945 3.23317 1.20666 0
M  V30 424 C 36.3075 4.29186 0.492285 0
M  V30 425 C 35.4425 5.09592 1.49964 0
M  V30 426 C 34.4815 6.07232 0.770439 0
M  V30 427 N 33.6185 6.80584 1.72479 0
M  V30 428 H 38.4585 2.93302 -0.527048 0
M  V30 429 H 35.9955 1.44568 -0.271738 0
M  V30 430 H 37.9535 3.75811 1.81168 0
M  V30 431 H 36.5835 2.61929 1.88661 0
M  V30 432 H 35.6355 3.7972 -0.227333 0
M  V30 433 H 36.9475 4.98738 -0.0787929 0
M  V30 434 H 36.1015 5.66254 2.17809 0
M  V30 435 H 34.8405 4.3995 2.10464 0
M  V30 436 H 33.8455 5.49745 0.0780846 0
M  V30 437 H 35.0705 6.78884 0.171134 0
M  V30 438 H 33.0165 6.1367 2.3183 0
M  V30 439 H 32.9335 7.46319 1.20596 0
M  V30 440 H 34.2015 7.41818 2.39428 0
M  V30 441 N 38.4306 0.297415 1.54768 0
M  V30 442 C 39.3776 -0.580276 2.23386 0
M  V30 443 C 40.3476 -1.13238 1.21517 0
M  V30 444 O 41.5326 -1.17757 1.50126 0
M  V30 445 C 38.6726 -1.74801 2.97555 0
M  V30 446 C 37.7856 -1.22764 4.1419 0
M  V30 447 C 36.9206 -2.35895 4.75949 0
M  V30 448 C 35.9596 -1.80974 5.84735 0
M  V30 449 N 35.0966 -2.87664 6.40464 0
M  V30 450 H 39.9366 0.0114833 2.97998 0
M  V30 451 H 37.4736 0.0174361 1.4709 0
M  V30 452 H 39.4316 -2.43475 3.38786 0
M  V30 453 H 38.0616 -2.31145 2.25326 0
M  V30 454 H 37.1136 -0.433271 3.77924 0
M  V30 455 H 38.4256 -0.785551 4.92575 0
M  V30 456 H 37.5796 -3.12523 5.20014 0
M  V30 457 H 36.3186 -2.83429 3.96887 0
M  V30 458 H 35.3236 -1.02834 5.40097 0
M  V30 459 H 36.5486 -1.34348 6.65678 0
M  V30 460 H 34.4946 -3.34538 5.64287 0
M  V30 461 H 34.4116 -2.4794 7.14186 0
M  V30 462 H 35.6796 -3.642 6.89187 0
M  V30 463 N 39.9087 -1.5758 0.0250728 0
M  V30 464 C 40.8417 -2.05473 -0.992777 0
M  V30 465 C 41.8197 -0.949661 -1.31986 0
M  V30 466 O 43.0037 -1.21969 -1.43722 0
M  V30 467 C 40.1307 -2.4734 -2.31389 0
M  V30 468 C 39.1767 -3.68827 -2.1417 0
M  V30 469 S 40.0097 -5.15655 -1.44429 0
M  V30 470 C 41.1657 -5.60814 -2.77918 0
M  V30 471 H 41.3987 -2.91486 -0.585078 0
M  V30 472 H 38.9317 -1.53269 -0.186507 0
M  V30 473 H 40.8897 -2.72127 -3.07339 0
M  V30 474 H 39.5507 -1.6168 -2.69292 0
M  V30 475 H 38.7437 -3.95955 -3.11826 0
M  V30 476 H 38.3457 -3.44172 -1.46362 0
M  V30 477 H 40.6377 -5.64806 -3.74166 0
M  V30 478 H 41.5807 -6.60414 -2.55459 0
M  V30 479 H 41.9887 -4.8845 -2.82979 0
M  V30 480 N 41.3868 0.248026 -1.55636 0
M  V30 481 C 42.3188 1.32993 -1.8667 0
M  V30 482 C 43.3318 1.44345 -0.752877 0
M  V30 483 O 44.5208 1.45715 -1.03098 0
M  V30 484 C 41.6208 2.70863 -2.03682 0
M  V30 485 C 40.7938 2.81792 -3.34532 0
M  V30 486 C 39.8528 4.005 -3.41301 0
M  V30 487 O 38.8788 3.9008 -4.14519 0
M  V30 488 N 40.0808 5.13618 -2.70512 0
M  V30 489 H 42.8458 1.06707 -2.8006 0
M  V30 490 H 40.4068 0.438129 -1.55859 0
M  V30 491 H 42.3988 3.48612 -2.05553 0
M  V30 492 H 40.9688 2.89862 -1.17041 0
M  V30 493 H 40.1888 1.90729 -3.44987 0
M  V30 494 H 41.4768 2.86043 -4.20781 0
M  V30 495 H 40.8748 5.24975 -2.10755 0
M  V30 496 H 39.4318 5.89505 -2.78077 0
M  V30 497 N 42.8649 1.48995 0.513639 0
M  V30 498 C 43.7749 1.67443 1.64317 0
M  V30 499 C 44.7909 0.556947 1.64846 0
M  V30 500 O 45.9669 0.830082 1.83498 0
M  V30 501 C 43.0319 1.72515 3.00732 0
M  V30 502 C 42.0929 2.96009 3.1093 0
M  V30 503 C 41.3259 3.00829 4.40837 0
M  V30 504 O 41.5489 2.13594 5.28898 0
M  V30 505 O 40.4829 3.93168 4.55744 0
M  V30 506 H 44.3089 2.63106 1.51687 0
M  V30 507 H 41.8939 1.32588 0.688543 0
M  V30 508 H 43.7759 1.78277 3.81831 0
M  V30 509 H 42.4509 0.800278 3.13651 0
M  V30 510 H 41.3579 2.9577 2.29065 0
M  V30 511 H 42.6909 3.87934 3.02933 0
M  V30 512 N 44.343 -0.763751 1.37857 0
M  V30 513 C 45.306 -1.85889 1.34081 0
M  V30 514 C 46.306 -1.58949 0.243277 0
M  V30 515 O 47.496 -1.66882 0.499589 0
M  V30 516 C 44.628 -3.23176 1.08489 0
M  V30 517 H 45.821 -1.90648 2.31502 0
M  V30 518 H 43.374 -0.964367 1.23003 0
M  V30 519 H 44.109 -3.24091 0.116318 0
M  V30 520 H 43.894 -3.44124 1.8794 0
M  V30 521 H 45.384 -4.03254 1.08517 0
M  V30 522 N 45.8211 -1.22559 -0.990812 0
M  V30 523 C 47.0691 -1.04933 -1.72724 0
M  V30 524 C 47.3901 0.416158 -1.90508 0
M  V30 525 O 46.6601 1.29918 -1.46622 0
M  V30 526 H 45.2401 -0.385296 -0.639965 0
M  V30 527 H 47.9021 -1.54105 -1.19322 0
M  V30 528 H 46.9981 -1.52886 -2.72089 0
M  V30 529 N 47.2992 1.18797 -1.03562 0
M  V30 530 C 48.5292 1.92319 -0.754773 0
M  V30 531 C 48.9372 1.7612 0.691248 0
M  V30 532 O 48.2802 1.08491 1.48241 0
M  V30 533 C 48.3422 3.44284 -1.03484 0
M  V30 534 C 48.0062 3.84258 -2.47376 0
M  V30 535 C 49.0032 3.88459 -3.45537 0
M  V30 536 C 46.6882 4.15701 -2.81954 0
M  V30 537 C 48.6822 4.23545 -4.76328 0
M  V30 538 C 46.3692 4.50458 -4.12954 0
M  V30 539 C 47.3672 4.54356 -5.09951 0
M  V30 540 O 47.0552 4.88305 -6.38603 0
M  V30 541 H 46.7872 0.617527 -0.275021 0
M  V30 542 H 49.3412 1.51683 -1.38497 0
M  V30 543 H 47.5712 3.85135 -0.347513 0
M  V30 544 H 49.2602 3.99049 -0.7426 0
M  V30 545 H 50.0262 3.6431 -3.20162 0
M  V30 546 H 45.9052 4.11847 -2.0713 0
M  V30 547 H 49.4492 4.26502 -5.52035 0
M  V30 548 H 45.3462 4.74067 -4.38099 0
M  V30 549 H 46.1142 5.06227 -6.43177 0
M  V30 550 N 48.7773 0.814389 1.34928 0
M  V30 551 C 49.7253 0.218424 2.31572 0
M  V30 552 C 50.7193 -0.636128 1.57002 0
M  V30 553 O 51.9253 -0.52842 1.72069 0
M  V30 554 H 48.3003 0.0518799 0.750208 0
M  V30 555 H 50.2713 1.04852 2.79372 0
M  V30 556 C 49.0203 -0.61207 3.4227 0
M  V30 557 H 48.3433 0.0361578 3.99784 0
M  V30 558 H 49.7833 -0.995317 4.12152 0
M  V30 559 C 48.2423 -1.78087 2.85984 0
M  V30 560 O 48.7723 -2.8787 2.80168 0
M  V30 561 N 46.9783 -1.59488 2.42924 0
M  V30 562 H 46.5253 -0.701874 2.47854 0
M  V30 563 H 46.4833 -2.37846 2.05613 0
M  V30 564 N 50.2554 -1.46986 0.568584 0
M  V30 565 C 51.4834 -2.0683 0.0539956 0
M  V30 566 C 51.8984 -1.41953 -1.24478 0
M  V30 567 O 51.2554 -0.519933 -1.74937 0
M  V30 568 C 51.3064 -3.61254 -0.133362 0
M  V30 569 O 51.0274 -4.237 1.11399 0
M  V30 570 C 52.5284 -4.37992 -0.683927 0
M  V30 571 H 49.7484 -0.669058 0.0510141 0
M  V30 572 H 52.2924 -1.88824 0.785234 0
M  V30 573 H 50.4474 -3.78735 -0.81477 0
M  V30 574 H 50.8614 -5.16388 0.91888 0
M  V30 575 H 52.3354 -5.46684 -0.764263 0
M  V30 576 H 52.8124 -4.05058 -1.69778 0
M  V30 577 H 53.4184 -4.25283 -0.0378494 0
M  V30 578 N 51.7335 -0.305618 -1.54608 0
M  V30 579 C 52.9805 0.302298 -2.00231 0
M  V30 580 C 53.3085 1.5354 -1.19398 0
M  V30 581 O 52.5635 1.93973 -0.259423 0
M  V30 582 C 52.8625 0.698983 -3.50498 0
M  V30 583 C 52.5285 -0.432903 -4.48817 0
M  V30 584 C 51.1905 -0.743622 -4.75419 0
M  V30 585 C 53.5425 -1.19409 -5.07337 0
M  V30 586 C 50.8705 -1.81857 -5.57804 0
M  V30 587 C 53.2225 -2.25899 -5.90891 0
M  V30 588 C 51.8865 -2.57572 -6.15803 0
M  V30 589 H 51.1565 0.110619 -0.732697 0
M  V30 590 H 53.8035 -0.425674 -1.86709 0
M  V30 591 H 52.1085 1.50711 -3.61654 0
M  V30 592 H 53.8055 1.1806 -3.83227 0
M  V30 593 H 50.3955 -0.18063 -4.28219 0
M  V30 594 H 54.5795 -0.967295 -4.86782 0
M  V30 595 H 49.8355 -2.06864 -5.75341 0
M  V30 596 H 54.0095 -2.85335 -6.35261 0
M  V30 597 H 51.6365 -3.40998 -6.7943 0
M  V30 598 N 53.2116 1.57565 -0.0334293 0
M  V30 599 C 54.1416 2.13511 0.945265 0
M  V30 600 C 55.1226 1.05231 1.33643 0
M  V30 601 O 56.3076 1.33084 1.41429 0
M  V30 602 C 53.4376 2.6657 2.22616 0
M  V30 603 C 52.3916 3.79676 1.97561 0
M  V30 604 C 51.7176 4.1918 3.31952 0
M  V30 605 C 53.0176 5.0557 1.31135 0
M  V30 606 H 54.7116 2.95538 0.479325 0
M  V30 607 H 52.2576 1.42166 0.229115 0
M  V30 608 H 54.2106 3.04344 2.91466 0
M  V30 609 H 52.9346 1.8171 2.71384 0
M  V30 610 H 51.5936 3.42347 1.31127 0
M  V30 611 H 51.2416 3.31296 3.78487 0
M  V30 612 H 50.9416 4.95402 3.15992 0
M  V30 613 H 52.4656 4.59541 4.02063 0
M  V30 614 H 53.8796 5.40903 1.89992 0
M  V30 615 H 52.2766 5.86818 1.25559 0
M  V30 616 H 53.3466 4.84062 0.284894 0
M  V30 617 N 54.6897 -0.239769 1.55765 0
M  V30 618 C 55.6197 -1.30052 1.9393 0
M  V30 619 C 56.6007 -1.49839 0.805132 0
M  V30 620 O 57.7857 -1.62328 1.06599 0
M  V30 621 C 54.9157 -2.65391 2.2402 0
M  V30 622 C 53.8697 -2.60289 3.39755 0
M  V30 623 C 53.1957 -3.99489 3.55405 0
M  V30 624 C 54.4957 -2.16654 4.75246 0
M  V30 625 H 56.1897 -0.983573 2.82783 0
M  V30 626 H 53.7357 -0.471701 1.36055 0
M  V30 627 H 55.6887 -3.3974 2.49308 0
M  V30 628 H 54.4127 -2.98736 1.32 0
M  V30 629 H 53.0717 -1.88398 3.14487 0
M  V30 630 H 52.7197 -4.30112 2.60793 0
M  V30 631 H 52.4197 -3.96962 4.33238 0
M  V30 632 H 53.9437 -4.75528 3.83022 0
M  V30 633 H 55.3577 -2.80737 4.99859 0
M  V30 634 H 53.7547 -2.25223 5.56232 0
M  V30 635 H 54.8247 -1.11835 4.71827 0
M  V30 636 N 56.1678 -1.49265 -0.50573 0
M  V30 637 C 57.1158 -1.66065 -1.62866 0
M  V30 638 C 58.1098 -0.526636 -1.61006 0
M  V30 639 O 59.3158 -0.706126 -1.65571 0
M  V30 640 H 55.6908 -0.52356 -0.539805 0
M  V30 641 H 57.6618 -2.60329 -1.45848 0
M  V30 642 C 56.4108 -1.74008 -3.01026 0
M  V30 643 H 55.7338 -2.6064 -3.03161 0
M  V30 644 H 57.1738 -1.89798 -3.79147 0
M  V30 645 C 55.6328 -0.483868 -3.33407 0
M  V30 646 O 56.1628 0.392548 -3.99777 0
M  V30 647 N 54.3688 -0.348236 -2.88506 0
M  V30 648 H 53.9158 -1.06242 -2.34671 0
M  V30 649 H 53.8738 0.491204 -3.10539 0
M  V30 650 N 57.6459 0.756429 -1.3826 0
M  V30 651 C 58.8709 1.55077 -1.37717 0
M  V30 652 C 59.2959 1.88073 0.03164 0
M  V30 653 O 58.6539 1.50364 1.01293 0
M  V30 654 C 58.7019 2.8283 -2.23695 0
M  V30 655 O 57.8059 3.77862 -1.6521 0
M  V30 656 H 57.1469 0.469152 -0.469885 0
M  V30 657 H 59.6769 0.935019 -1.81985 0
M  V30 658 H 59.6869 3.31783 -2.37453 0
M  V30 659 H 58.3619 2.58144 -3.2609 0
M  V30 660 H 56.9389 3.36555 -1.60578 0
M  V30 661 N 59.124 1.23083 0.984299 0
M  V30 662 C 60.071 1.00854 2.07598 0
M  V30 663 C 61.041 -0.0726709 1.65941 0
M  V30 664 O 62.226 0.0786535 1.90638 0
M  V30 665 C 59.366 0.601645 3.39815 0
M  V30 666 C 58.479 1.75456 3.94765 0
M  V30 667 C 57.614 1.29482 5.15177 0
M  V30 668 C 56.653 2.41873 5.62284 0
M  V30 669 N 55.79 1.96885 6.73929 0
M  V30 670 H 60.63 1.943 2.25946 0
M  V30 671 H 58.167 0.968001 1.10762 0
M  V30 672 H 60.125 0.346854 4.15756 0
M  V30 673 H 58.755 -0.295803 3.21442 0
M  V30 674 H 57.807 2.12346 3.15616 0
M  V30 675 H 59.119 2.59965 4.25699 0
M  V30 676 H 58.273 0.997923 5.98437 0
M  V30 677 H 57.012 0.420046 4.85888 0
M  V30 678 H 56.017 2.72342 4.77608 0
M  V30 679 H 57.242 3.29881 5.93595 0
M  V30 680 H 55.188 1.11782 6.46406 0
M  V30 681 H 55.105 2.74956 7.04227 0
M  V30 682 H 56.373 1.70289 7.60672 0
M  V30 683 N 60.6021 -1.18246 1.0419 0
M  V30 684 C 61.8791 -1.84121 0.660208 0
M  V30 685 C 62.2591 -1.92778 -0.860221 0
M  V30 686 O 61.6071 -1.45464 -1.76217 0
M  V30 687 C 61.8171 -3.22355 1.33747 0
M  V30 688 C 63.1651 -3.98376 1.46906 0
M  V30 689 O 64.1891 -3.31799 1.29568 0
M  V30 690 O 63.0481 -5.17665 1.75171 0
M  V30 691 H 60.1421 -0.794036 0.231161 0
M  V30 692 H 62.6881 -1.25628 1.14087 0
M  V30 693 H 61.4601 -3.10964 2.37522 0
M  V30 694 H 61.0831 -3.88506 0.845515 0
M  V30 695 N 62.0802 -0.821533 -1.34494 0
M  V30 696 C 63.3292 -0.405355 -1.97585 0
M  V30 697 C 63.6422 1.03677 -1.65863 0
M  V30 698 O 64.8482 1.55679 -2.22433 0
M  V30 699 C 63.3042 -0.673861 -3.53535 0
M  V30 700 C 62.9122 -2.12951 -3.94152 0
M  V30 701 C 64.6562 -0.32378 -4.23263 0
M  V30 702 C 62.5632 -2.34298 -5.43009 0
M  V30 703 H 61.4932 -0.147836 -0.739365 0
M  V30 704 H 64.1442 -1.00769 -1.53355 0
M  V30 705 H 62.5262 -0.00137554 -3.96 0
M  V30 706 H 63.7002 -2.84104 -3.62797 0
M  V30 707 H 62.0152 -2.44089 -3.37356 0
M  V30 708 H 64.6122 -0.461126 -5.32708 0
M  V30 709 H 64.9552 0.731586 -4.09821 0
M  V30 710 H 65.4882 -0.950786 -3.8627 0
M  V30 711 H 62.2272 -3.38335 -5.61435 0
M  V30 712 H 61.7472 -1.67687 -5.75883 0
M  V30 713 H 63.4262 -2.16588 -6.09671 0
M  V30 714 N 63.5583 1.46682 -0.576371 0
M  V30 715 C 64.7883 2.06498 -0.0648694 0
M  V30 716 C 65.1963 1.42665 1.24271 0
M  V30 717 O 64.5393 0.523886 1.76071 0
M  V30 718 C 64.6013 3.5904 0.181816 0
M  V30 719 C 64.2653 4.45028 -1.0392 0
M  V30 720 C 65.2623 4.81959 -1.94966 0
M  V30 721 C 62.9473 4.86259 -1.25927 0
M  V30 722 C 64.9413 5.58942 -3.06371 0
M  V30 723 C 62.6283 5.63002 -2.37638 0
M  V30 724 C 63.6263 5.99257 -3.2769 0
M  V30 725 O 63.3143 6.7445 -4.37461 0
M  V30 726 H 63.0463 0.674028 -0.0515987 0
M  V30 727 H 65.6003 1.89393 -0.794951 0
M  V30 728 H 63.8303 3.74429 0.966436 0
M  V30 729 H 65.5193 4.00806 0.641047 0
M  V30 730 H 66.2853 4.50689 -1.79177 0
M  V30 731 H 62.1643 4.57494 -0.567448 0
M  V30 732 H 65.7083 5.87158 -3.76684 0
M  V30 733 H 61.6053 5.93686 -2.53392 0
M  V30 734 H 62.3733 6.92867 -4.35749 0
M  V30 735 N 65.0364 0.313813 1.54444 0
M  V30 736 C 66.2854 -0.292519 1.99568 0
M  V30 737 C 66.5984 -1.54011 1.20582 0
M  V30 738 O 67.8044 -2.22183 1.56035 0
M  V30 739 C 66.2604 -0.571752 3.55329 0
M  V30 740 C 65.8684 0.658229 4.43138 0
M  V30 741 C 67.6124 -1.13857 4.08946 0
M  V30 742 C 65.5194 0.351439 5.90355 0
M  V30 743 H 64.4494 -0.113079 0.745472 0
M  V30 744 H 67.1004 0.424518 1.78522 0
M  V30 745 H 65.4824 -1.34872 3.72325 0
M  V30 746 H 66.6564 1.43403 4.37918 0
M  V30 747 H 64.9714 1.14458 4.0036 0
M  V30 748 H 67.5684 -1.38257 5.16516 0
M  V30 749 H 67.9114 -2.08489 3.6033 0
M  V30 750 H 68.4444 -0.423015 3.95544 0
M  V30 751 H 65.1834 1.26667 6.43145 0
M  V30 752 H 64.7034 -0.386842 5.98551 0
M  V30 753 H 66.3824 -0.0423134 6.46986 0
M  V30 754 N 66.5145 -1.57545 0.0417849 0
M  V30 755 C 67.7915 -1.83642 -0.673433 0
M  V30 756 C 68.1715 -0.928298 -1.89594 0
M  V30 757 O 67.5195 0.0129955 -2.28496 0
M  V30 758 C 67.7295 -3.33155 -1.03964 0
M  V30 759 C 69.0775 -3.99941 -1.42592 0
M  V30 760 O 70.1015 -3.37725 -1.13226 0
M  V30 761 O 68.9605 -5.09619 -1.9736 0
M  V30 762 H 66.0545 -0.757638 -0.331533 0
M  V30 763 H 68.6005 -1.69554 0.070433 0
M  V30 764 H 67.3725 -3.9093 -0.170098 0
M  V30 765 H 66.9955 -3.52396 -1.84126 0
M  V30 766 N 67.9926 0.231505 -1.5589 0
M  V30 767 C 68.9226 1.29022 -1.94617 0
M  V30 768 C 69.9036 1.4941 -0.813067 0
M  V30 769 O 71.0886 1.6176 -1.07459 0
M  V30 770 C 68.2186 2.64199 -2.25424 0
M  V30 771 C 67.1726 2.58484 -3.41131 0
M  V30 772 C 66.4986 3.97599 -3.57518 0
M  V30 773 C 67.7986 2.1413 -4.76388 0
M  V30 774 H 69.4926 0.968563 -2.83301 0
M  V30 775 H 67.0386 0.464479 -1.36303 0
M  V30 776 H 68.9916 3.38413 -2.51107 0
M  V30 777 H 67.7156 2.98032 -1.33583 0
M  V30 778 H 66.3746 1.86727 -3.15481 0
M  V30 779 H 66.0226 4.28723 -2.6307 0
M  V30 780 H 65.7226 3.94659 -4.35337 0
M  V30 781 H 67.2466 4.7349 -3.85538 0
M  V30 782 H 68.6606 2.78083 -5.01341 0
M  V30 783 H 67.0576 2.2227 -5.57419 0
M  V30 784 H 68.1276 1.09331 -4.72414 0
M  V30 785 N 69.4707 1.49531 0.497807 0
M  V30 786 C 70.4007 1.6935 1.60757 0
M  V30 787 C 71.3817 0.542218 1.61227 0
M  V30 788 O 72.5667 0.778417 1.77917 0
M  V30 789 C 69.6967 1.76298 2.99226 0
M  V30 790 C 68.6507 2.91248 3.13622 0
M  V30 791 C 67.9767 2.83312 4.53474 0
M  V30 792 C 69.2767 4.3214 2.93346 0
M  V30 793 H 70.9707 2.62263 1.44425 0
M  V30 794 H 68.5167 1.26208 0.693367 0
M  V30 795 H 70.4697 1.88749 3.76765 0
M  V30 796 H 69.1937 0.799871 3.16654 0
M  V30 797 H 67.8527 2.78404 2.38509 0
M  V30 798 H 67.5007 1.84902 4.67782 0
M  V30 799 H 67.2007 3.60465 4.64046 0
M  V30 800 H 68.7247 2.97775 5.33069 0
M  V30 801 H 70.1387 4.45649 3.60652 0
M  V30 802 H 68.5357 5.1054 3.15387 0
M  V30 803 H 69.6057 4.46363 1.89441 0
M  V30 804 N 70.9488 -0.749086 1.3866 0
M  V30 805 C 72.1768 -1.53834 1.38358 0
M  V30 806 C 72.5918 -1.88783 -0.0255219 0
M  V30 807 O 71.9488 -1.53101 -0.993292 0
M  V30 808 C 71.9998 -2.83468 2.2434 0
M  V30 809 O 71.7208 -2.50008 3.5976 0
M  V30 810 C 73.2218 -3.7758 2.32267 0
M  V30 811 H 70.4418 -0.47585 0.473083 0
M  V30 812 H 72.9858 -0.926726 1.82297 0
M  V30 813 H 71.1408 -3.40995 1.83851 0
M  V30 814 H 71.5548 -3.33182 4.05081 0
M  V30 815 H 73.0288 -4.65478 2.96706 0
M  V30 816 H 73.5058 -4.18334 1.33765 0
M  V30 817 H 74.1118 -3.25976 2.73166 0
M  V30 818 N 72.4269 -1.23603 -0.977757 0
M  V30 819 C 73.7039 -0.977897 -1.69401 0
M  V30 820 C 74.0839 0.502738 -2.05026 0
M  V30 821 O 73.4319 1.47459 -1.74551 0
M  V30 822 C 73.6419 -1.89077 -2.93345 0
M  V30 823 C 74.9899 -2.15579 -3.65802 0
M  V30 824 O 76.0139 -1.86648 -3.03383 0
M  V30 825 O 74.8729 -2.64658 -4.78141 0
M  V30 826 H 71.9669 -0.369025 -0.740101 0
M  V30 827 H 74.5129 -1.34657 -1.03274 0
M  V30 828 H 73.2849 -2.89158 -2.63634 0
M  V30 829 H 72.9079 -1.52463 -3.67207 0
M  V30 830 N 73.905 1.17692 -1.04816 0
M  V30 831 C 75.13 1.92327 -0.776207 0
M  V30 832 C 75.555 1.76082 0.661581 0
M  V30 833 O 74.913 1.076 1.45917 0
M  V30 834 C 74.961 3.41539 -1.15687 0
M  V30 835 O 74.065 4.11402 -0.286775 0
M  V30 836 H 73.406 0.599735 -0.284981 0
M  V30 837 H 75.936 1.49201 -1.4 0
M  V30 838 H 75.946 3.92269 -1.12202 0
M  V30 839 H 74.621 3.52684 -2.20425 0
M  V30 840 H 73.198 3.70939 -0.381903 0
M  V30 841 N 75.3831 0.828654 1.34056 0
M  V30 842 C 76.6311 0.41863 1.97717 0
M  V30 843 C 76.9521 -1.02314 1.66002 0
M  V30 844 O 76.2221 -1.71119 0.953683 0
M  V30 845 H 74.8021 0.151809 0.731412 0
M  V30 846 H 77.4641 1.05936 1.63596 0
M  V30 847 H 76.5601 0.542318 3.07352 0
M  V30 848 N 76.8612 -1.46375 0.584142 0
M  V30 849 C 78.0892 -2.06761 0.0759296 0
M  V30 850 C 78.5042 -1.43266 -1.22965 0
M  V30 851 O 77.8612 -0.538458 -1.74376 0
M  V30 852 C 77.9122 -3.61375 -0.0950384 0
M  V30 853 O 77.6332 -4.22495 1.15887 0
M  V30 854 C 79.1342 -4.38693 -0.637434 0
M  V30 855 H 76.3542 -0.668479 0.0581075 0
M  V30 856 H 78.8982 -1.8798 0.805218 0
M  V30 857 H 77.0532 -3.79578 -0.774554 0
M  V30 858 H 77.4672 -5.15385 0.973598 0
M  V30 859 H 78.9412 -5.47464 -0.706237 0
M  V30 860 H 79.4182 -4.06836 -1.65472 0
M  V30 861 H 80.0242 -4.25299 0.00725967 0
M  V30 862 N 78.3393 -0.321999 -1.54275 0
M  V30 863 C 79.2873 0.560206 -2.25753 0
M  V30 864 C 80.2813 1.11984 -1.27106 0
M  V30 865 O 81.4873 1.06806 -1.44888 0
M  V30 866 H 77.8623 0.199304 -0.725108 0
M  V30 867 H 79.8333 -0.0649365 -2.98329 0
M  V30 868 C 78.5823 1.71023 -3.02731 0
M  V30 869 H 77.9053 1.28885 -3.78456 0
M  V30 870 H 79.3453 2.30314 -3.55993 0
M  V30 871 C 77.8043 2.62692 -2.10938 0
M  V30 872 O 78.3343 3.64364 -1.6912 0
M  V30 873 N 76.5403 2.30891 -1.76459 0
M  V30 874 H 76.0873 1.48253 -2.10663 0
M  V30 875 H 76.0453 2.92487 -1.1532 0
M  V30 876 N 79.8174 1.5752 -0.0501392 0
M  V30 877 C 80.7804 2.1037 0.909786 0
M  V30 878 C 81.7804 1.02308 1.24056 0
M  V30 879 O 82.9704 1.28385 1.17741 0
M  V30 880 C 80.1024 2.58708 2.21998 0
M  V30 881 H 81.2954 2.96479 0.451665 0
M  V30 882 H 78.8484 1.55038 0.198248 0
M  V30 883 H 79.5834 1.75989 2.72394 0
M  V30 884 H 79.3684 3.37675 1.99295 0
M  V30 885 H 80.8584 2.99747 2.9076 0
M  V30 886 N 81.2955 -0.223234 1.56011 0
M  V30 887 C 82.2285 -1.30377 1.87289 0
M  V30 888 C 83.2065 -1.45286 0.730112 0
M  V30 889 O 84.3905 -1.61126 0.978302 0
M  V30 890 C 81.5175 -2.67431 2.07843 0
M  V30 891 C 80.5635 -2.69546 3.30526 0
M  V30 892 S 81.3965 -2.23781 4.865 0
M  V30 893 C 82.5525 -3.62714 5.10088 0
M  V30 894 H 82.7855 -1.03652 2.78646 0
M  V30 895 H 80.3185 -0.425393 1.48424 0
M  V30 896 H 82.2765 -3.46336 2.20368 0
M  V30 897 H 80.9375 -2.91381 1.17285 0
M  V30 898 H 80.1305 -3.70255 3.41947 0
M  V30 899 H 79.7325 -1.98703 3.16849 0
M  V30 900 H 82.0245 -4.58391 4.98883 0
M  V30 901 H 82.9675 -3.5621 6.11981 0
M  V30 902 H 83.3755 -3.56323 4.37829 0
M  V30 903 N 82.7736 -1.49793 -0.48987 0
M  V30 904 C 83.9986 -1.63836 -1.27172 0
M  V30 905 C 84.4236 -0.31402 -1.8546 0
M  V30 906 O 83.7816 0.719803 -1.66399 0
M  V30 907 C 83.8296 -2.71797 -2.36978 0
M  V30 908 O 82.9336 -2.31744 -3.41128 0
M  V30 909 H 82.2746 -0.547997 -0.37496 0
M  V30 910 H 84.8046 -1.96053 -0.585191 0
M  V30 911 H 84.8146 -2.94305 -2.82575 0
M  V30 912 H 83.4896 -3.67923 -1.93921 0
M  V30 913 H 82.0666 -2.1961 -3.01373 0
M  V30 914 N 84.2517 0.741722 -1.39055 0
M  V30 915 C 85.5287 1.49252 -1.26425 0
M  V30 916 C 85.9087 2.10705 0.129144 0
M  V30 917 O 85.2567 1.98045 1.13976 0
M  V30 918 C 85.4667 2.54934 -2.38347 0
M  V30 919 C 86.8147 3.21506 -2.77343 0
M  V30 920 O 87.8387 2.65245 -2.37747 0
M  V30 921 O 86.6977 4.23294 -3.45665 0
M  V30 922 H 83.7917 0.662451 -0.495064 0
M  V30 923 H 86.3377 0.776121 -1.50912 0
M  V30 924 H 85.1097 2.07857 -3.31529 0
M  V30 925 H 84.7327 3.34141 -2.15489 0
M  V30 926 N 85.7298 1.2412 0.971189 0
M  V30 927 C 86.6768 1.0305 2.06517 0
M  V30 928 C 87.6468 -0.0550666 1.66009 0
M  V30 929 O 88.8318 0.0988688 1.90544 0
M  V30 930 C 85.9718 0.637653 3.39158 0
M  V30 931 C 85.0848 1.79633 3.92882 0
M  V30 932 C 84.2198 1.34939 5.13775 0
M  V30 933 C 83.2588 2.47823 5.59687 0
M  V30 934 N 82.3958 2.04022 6.71803 0
M  V30 935 H 87.2358 1.96685 2.23873 0
M  V30 936 H 84.7728 0.979694 1.09729 0
M  V30 937 H 86.7308 0.390931 4.15364 0
M  V30 938 H 85.3608 -0.261693 3.21737 0
M  V30 939 H 84.4128 2.15681 3.13346 0
M  V30 940 H 85.7248 2.64466 4.22918 0
M  V30 941 H 84.8788 1.06134 5.97345 0
M  V30 942 H 83.6178 0.471557 4.85415 0
M  V30 943 H 82.6228 2.77392 4.74693 0
M  V30 944 H 83.8478 3.36158 5.90063 0
M  V30 945 H 81.7938 1.18632 6.45184 0
M  V30 946 H 81.7108 2.82409 7.01271 0
M  V30 947 H 82.9788 1.78347 7.58823 0
M  V30 948 N 87.2079 -1.17134 1.05439 0
M  V30 949 C 88.1399 -2.2078 0.615539 0
M  V30 950 C 89.1529 -1.59584 -0.322001 0
M  V30 951 O 90.3419 -1.78133 -0.114344 0
M  V30 952 C 87.4419 -3.38691 -0.118938 0
M  V30 953 C 86.6149 -4.29454 0.829924 0
M  V30 954 C 85.6739 -5.26024 0.136258 0
M  V30 955 O 84.6999 -5.63952 0.77115 0
M  V30 956 N 85.9019 -5.69487 -1.1254 0
M  V30 957 H 88.6669 -2.59052 1.50705 0
M  V30 958 H 86.2279 -1.32058 0.936603 0
M  V30 959 H 88.2199 -4.00329 -0.593179 0
M  V30 960 H 86.7899 -2.98996 -0.91215 0
M  V30 961 H 86.0099 -3.65211 1.48373 0
M  V30 962 H 87.2979 -4.86984 1.47392 0
M  V30 963 H 86.6959 -5.4075 -1.6615 0
M  V30 964 H 85.2529 -6.33257 -1.54366 0
M  V30 965 N 88.686 -0.835752 -1.33615 0
M  V30 966 C 89.932 -0.439817 -1.98588 0
M  V30 967 C 90.287 0.989274 -1.65019 0
M  V30 968 O 89.58 1.68168 -0.918159 0
M  V30 969 C 89.774 -0.593925 -3.52431 0
M  V30 970 C 89.603 -2.03644 -4.00948 0
M  V30 971 C 88.373 -2.67103 -4.28934 0
M  V30 972 C 90.571 -3.00479 -4.17393 0
M  V30 973 N 88.553 -4.02462 -4.6357 0
M  V30 974 C 89.924 -4.20777 -4.55353 0
M  V30 975 C 91.979 -2.96926 -3.99674 0
M  V30 976 C 90.682 -5.37994 -4.77447 0
M  V30 977 C 92.708 -4.1337 -4.22941 0
M  V30 978 C 92.07 -5.32422 -4.61201 0
M  V30 979 H 88.169 -0.209303 -0.75347 0
M  V30 980 H 90.753 -1.08316 -1.61789 0
M  V30 981 H 88.924 0.019599 -3.88395 0
M  V30 982 H 90.656 -0.169738 -4.04344 0
M  V30 983 H 87.411 -2.18259 -4.20309 0
M  V30 984 H 87.835 -4.72232 -4.85104 0
M  V30 985 H 92.477 -2.06015 -3.69212 0
M  V30 986 H 90.195 -6.29451 -5.06771 0
M  V30 987 H 93.781 -4.12034 -4.10754 0
M  V30 988 H 92.661 -6.21027 -4.78848 0
M  V30 989 N 90.1641 1.46063 -0.591896 0
M  V30 990 C 91.1271 2.28854 0.125973 0
M  V30 991 C 92.1271 1.38903 0.810107 0
M  V30 992 O 93.3171 1.61186 0.66066 0
M  V30 993 C 90.4491 3.19526 1.1881 0
M  V30 994 H 91.6421 2.93802 -0.601717 0
M  V30 995 H 89.1951 1.52325 -0.350254 0
M  V30 996 H 89.9301 2.59345 1.94707 0
M  V30 997 H 89.7151 3.85766 0.701936 0
M  V30 998 H 91.2051 3.81817 1.69132 0
M  V30 999 N 91.6422 0.330177 1.54103 0
M  V30 1000 C 92.8902 -0.269871 2.0029 0
M  V30 1001 C 93.2112 -1.52133 1.21986 0
M  V30 1002 O 92.4812 -1.93212 0.323438 0
M  V30 1003 H 91.0612 -0.10271 0.739905 0
M  V30 1004 H 93.7232 0.448249 1.89675 0
M  V30 1005 H 92.8192 -0.52166 3.07709 0
M  V30 1006 N 93.1203 -1.57491 0.0584922 0
M  V30 1007 C 94.0533 -2.07533 -0.948969 0
M  V30 1008 C 95.0313 -0.977444 -1.29942 0
M  V30 1009 O 96.2153 -1.2499 -1.41102 0
M  V30 1010 C 93.3423 -2.52192 -2.2609 0
M  V30 1011 C 92.3883 -3.73287 -2.06298 0
M  V30 1012 S 93.2213 -5.18603 -1.33459 0
M  V30 1013 C 94.3773 -5.66583 -2.65959 0
M  V30 1014 H 94.6103 -2.92662 -0.523118 0
M  V30 1015 H 92.1433 -1.53631 -0.153954 0
M  V30 1016 H 94.1013 -2.78585 -3.01498 0
M  V30 1017 H 92.7623 -1.67356 -2.65802 0
M  V30 1018 H 91.9553 -4.0248 -3.03357 0
M  V30 1019 H 91.5573 -3.47199 -1.39029 0
M  V30 1020 H 93.8493 -5.72616 -3.62101 0
M  V30 1021 H 94.7923 -6.65684 -2.41393 0
M  V30 1022 H 95.2003 -4.94342 -2.72554 0
M  V30 1023 N 94.5984 0.214957 -1.56127 0
M  V30 1024 C 95.5314 1.29382 -1.87977 0
M  V30 1025 C 96.5094 1.44897 -0.737807 0
M  V30 1026 O 97.6934 1.60605 -0.986833 0
M  V30 1027 C 94.8204 2.66325 -2.09258 0
M  V30 1028 C 93.8664 2.67789 -3.31951 0
M  V30 1029 S 94.6994 2.21198 -4.8768 0
M  V30 1030 C 95.8554 3.60003 -5.12004 0
M  V30 1031 H 96.0884 1.02173 -2.79192 0
M  V30 1032 H 93.6214 0.417516 -1.48648 0
M  V30 1033 H 95.5794 3.45162 -2.22201 0
M  V30 1034 H 94.2404 2.90755 -1.18829 0
M  V30 1035 H 93.4334 3.68436 -3.43906 0
M  V30 1036 H 93.0354 1.9702 -3.17898 0
M  V30 1037 H 95.3274 4.55739 -5.01307 0
M  V30 1038 H 96.2704 3.52959 -6.13861 0
M  V30 1039 H 96.6784 3.53996 -4.39712 0
M  V30 1040 N 96.0765 1.50051 0.48192 0
M  V30 1041 C 97.0095 1.62749 1.59963 0
M  V30 1042 C 97.9875 0.475903 1.5548 0
M  V30 1043 O 99.1715 0.693986 1.7526 0
M  V30 1044 C 96.2985 1.60008 2.98522 0
M  V30 1045 C 95.3445 2.80596 3.21198 0
M  V30 1046 S 96.1775 4.42038 3.02262 0
M  V30 1047 C 97.3335 4.41973 4.43182 0
M  V30 1048 H 97.5665 2.57296 1.4895 0
M  V30 1049 H 95.0995 1.39179 0.668477 0
M  V30 1050 H 97.0575 1.59112 3.78409 0
M  V30 1051 H 95.7185 0.667153 3.06933 0
M  V30 1052 H 94.9115 2.74952 4.22395 0
M  V30 1053 H 94.5135 2.79003 2.49065 0
M  V30 1054 H 96.8055 4.14868 5.35622 0
M  V30 1055 H 97.7485 5.43512 4.53873 0
M  V30 1056 H 98.1565 3.71812 4.24755 0
M  V30 1057 N 97.5546 -0.734337 1.39446 0
M  V30 1058 C 98.8026 -1.49096 1.36436 0
M  V30 1059 C 99.1236 -1.94961 -0.0388255 0
M  V30 1060 O 98.3936 -1.69033 -0.990191 0
M  V30 1061 H 96.9736 -0.5531 0.502085 0
M  V30 1062 H 99.6356 -0.871725 1.74319 0
M  V30 1063 H 98.7316 -2.37276 2.02747 0
M  V30 1064 N 99.0327 -1.24633 -0.964593 0
M  V30 1065 C 100.31 -0.995809 -1.68354 0
M  V30 1066 C 100.69 0.480964 -2.05548 0
M  V30 1067 O 100.038 1.45599 -1.76105 0
M  V30 1068 C 100.248 -1.92177 -2.91323 0
M  V30 1069 C 101.596 -2.19446 -3.63495 0
M  V30 1070 O 102.62 -1.89855 -3.01386 0
M  V30 1071 O 101.479 -2.69714 -4.75307 0
M  V30 1072 H 98.5727 -0.376854 -0.736146 0
M  V30 1073 H 101.119 -1.35745 -1.0184 0
M  V30 1074 H 99.8907 -2.91938 -2.60553 0
M  V30 1075 H 99.5137 -1.56349 -3.65569 0
M  V30 1076 N 100.511 1.16574 -1.06058 0
M  V30 1077 C 101.421 2.2452 -0.680282 0
M  V30 1078 C 102.437 1.71348 0.302604 0
M  V30 1079 O 103.613 2.00822 0.152513 0
M  V30 1080 C 100.678 3.46629 -0.0700315 0
M  V30 1081 C 99.7388 4.14849 -1.10448 0
M  V30 1082 C 98.9718 5.31129 -0.523256 0
M  V30 1083 O 99.1948 5.66514 0.664709 0
M  V30 1084 O 98.1288 5.88526 -1.26179 0
M  V30 1085 H 101.955 2.59355 -1.58015 0
M  V30 1086 H 99.5398 1.24043 -0.832694 0
M  V30 1087 H 101.422 4.20543 0.268667 0
M  V30 1088 H 100.097 3.13573 0.803353 0
M  V30 1089 H 99.0038 3.42916 -1.49532 0
M  V30 1090 H 100.337 4.51954 -1.94931 0
M  V30 1091 N 101.989 0.842826 1.3317 0
M  V30 1092 C 102.952 0.284065 2.27433 0
M  V30 1093 C 103.952 -0.54948 1.5112 0
M  V30 1094 O 105.142 -0.362699 1.70382 0
M  V30 1095 C 102.274 -0.599384 3.35589 0
M  V30 1096 H 103.467 1.11589 2.78366 0
M  V30 1097 H 101.02 0.616221 1.4364 0
M  V30 1098 H 101.755 -1.45349 2.89904 0
M  V30 1099 H 101.54 -0.00291266 3.921 0
M  V30 1100 H 103.03 -0.983488 4.05854 0
M  V30 1101 N 103.467 -1.45747 0.599634 0
M  V30 1102 C 104.697 -2.06369 0.0977132 0
M  V30 1103 C 105.105 -1.44624 -1.21985 0
M  V30 1104 O 104.448 -0.551831 -1.75216 0
M  V30 1105 C 104.51 -3.59284 -0.124673 0
M  V30 1106 C 104.174 -4.43318 1.10987 0
M  V30 1107 C 105.171 -4.78796 2.02609 0
M  V30 1108 C 102.856 -4.84194 1.33647 0
M  V30 1109 C 104.85 -5.53997 3.15224 0
M  V30 1110 C 102.537 -5.5915 2.46565 0
M  V30 1111 C 103.535 -5.93968 3.37182 0
M  V30 1112 O 103.223 -6.67405 4.48136 0
M  V30 1113 H 102.955 -0.673122 0.0623153 0
M  V30 1114 H 105.509 -1.88104 0.824981 0
M  V30 1115 H 103.739 -3.75919 -0.906745 0
M  V30 1116 H 105.428 -4.01775 -0.577201 0
M  V30 1117 H 106.194 -4.47781 1.86325 0
M  V30 1118 H 102.073 -4.56534 0.64016 0
M  V30 1119 H 105.617 -5.81091 3.85978 0
M  V30 1120 H 101.514 -5.89579 2.62805 0
M  V30 1121 H 102.282 -6.85847 4.46717 0
M  V30 1122 N 104.945 -0.338344 -1.53925 0
M  V30 1123 C 105.908 0.508299 -2.23493 0
M  V30 1124 C 106.908 1.03175 -1.23335 0
M  V30 1125 O 108.098 0.921826 -1.47811 0
M  V30 1126 C 105.23 1.70754 -2.95052 0
M  V30 1127 H 106.423 -0.100058 -2.99733 0
M  V30 1128 H 103.976 -0.0896198 -1.56043 0
M  V30 1129 H 104.711 2.35474 -2.22986 0
M  V30 1130 H 104.496 1.33946 -3.68512 0
M  V30 1131 H 105.986 2.30818 -3.48013 0
M  V30 1132 N 106.423 1.57458 -0.0668435 0
M  V30 1133 C 107.671 1.92919 0.602214 0
M  V30 1134 C 107.992 0.947215 1.70449 0
M  V30 1135 O 107.262 -0.00544117 1.95899 0
M  V30 1136 H 105.842 0.71217 0.22544 0
M  V30 1137 H 108.504 1.94508 -0.123535 0
M  V30 1138 H 107.6 2.94589 1.03073 0
M  V30 1139 N 107.901 -0.206675 1.56239 0
M  V30 1140 C 109.126 -0.949474 1.8439 0
M  V30 1141 C 109.551 -1.76549 0.649016 0
M  V30 1142 O 108.909 -1.76782 -0.402231 0
M  V30 1143 C 108.957 -1.83078 3.10668 0
M  V30 1144 O 108.061 -2.9281 2.90407 0
M  V30 1145 H 107.402 -0.268033 0.607499 0
M  V30 1146 H 109.932 -0.215488 2.03462 0
M  V30 1147 H 109.942 -2.2377 3.41161 0
M  V30 1148 H 108.617 -1.23112 3.97261 0
M  V30 1149 H 107.194 -2.55956 2.71184 0
M  V30 1150 N 109.379 -1.50304 -0.473955 0
M  V30 1151 C 110.289 -1.7174 -1.5982 0
M  V30 1152 C 111.305 -0.600457 -1.63311 0
M  V30 1153 O 112.481 -0.878441 -1.81233 0
M  V30 1154 C 109.546 -1.80427 -2.96052 0
M  V30 1155 C 108.607 -3.04148 -3.02972 0
M  V30 1156 C 107.84 -3.12411 -4.32706 0
M  V30 1157 O 108.063 -2.27542 -5.23049 0
M  V30 1158 O 106.997 -4.05113 -4.45159 0
M  V30 1159 H 110.823 -2.67035 -1.44657 0
M  V30 1160 H 108.408 -1.34366 -0.653148 0
M  V30 1161 H 110.29 -1.88338 -3.7697 0
M  V30 1162 H 108.965 -0.883156 -3.11419 0
M  V30 1163 H 107.872 -3.0174 -2.21142 0
M  V30 1164 H 109.205 -3.95829 -2.92541 0
M  V30 1165 N 110.857 0.726932 -1.39834 0
M  V30 1166 C 111.805 1.86235 -1.39353 0
M  V30 1167 C 112.799 1.67144 -0.275555 0
M  V30 1168 O 114.005 1.74387 -0.44601 0
M  V30 1169 H 110.38 0.613174 -0.43534 0
M  V30 1170 H 112.351 1.83756 -2.35109 0
M  V30 1171 C 111.1 3.23995 -1.26185 0
M  V30 1172 H 110.423 3.39285 -2.11484 0
M  V30 1173 H 111.863 4.03609 -1.29907 0
M  V30 1174 C 110.322 3.36888 0.0290018 0
M  V30 1175 O 110.852 3.89152 0.99619 0
M  V30 1176 N 109.058 2.90446 0.0947437 0
M  V30 1177 H 108.605 2.48102 -0.693035 0
M  V30 1178 H 108.563 2.99451 0.957932 0
M  V30 1179 N 112.336 1.25143 0.95797 0
M  V30 1180 C 113.583 1.09692 1.70217 0
M  V30 1181 C 113.911 -0.362654 1.91089 0
M  V30 1182 O 113.166 -1.28386 1.47701 0
M  V30 1183 C 113.465 1.79272 3.09187 0
M  V30 1184 C 113.131 3.29196 3.08125 0
M  V30 1185 C 111.793 3.70096 3.07543 0
M  V30 1186 C 114.145 4.24995 3.0171 0
M  V30 1187 C 111.473 5.05213 2.9829 0
M  V30 1188 C 113.825 5.60132 2.93999 0
M  V30 1189 C 112.489 6.00365 2.9175 0
M  V30 1190 H 111.759 0.401393 0.622868 0
M  V30 1191 H 114.406 1.55372 1.11945 0
M  V30 1192 H 112.711 1.26014 3.70982 0
M  V30 1193 H 114.408 1.64773 3.65583 0
M  V30 1194 H 110.998 2.96651 3.09348 0
M  V30 1195 H 115.182 3.9439 3.01281 0
M  V30 1196 H 110.438 5.35569 2.94916 0
M  V30 1197 H 114.612 6.3406 2.87996 0
M  V30 1198 H 112.239 7.05023 2.84336 0
M  V30 1199 N 113.814 -1.1601 1.06675 0
M  V30 1200 C 115.044 -1.90251 0.805497 0
M  V30 1201 C 115.452 -1.77891 -0.64431 0
M  V30 1202 O 114.795 -1.12383 -1.45313 0
M  V30 1203 C 114.857 -3.41419 1.12576 0
M  V30 1204 C 114.521 -3.77564 2.57477 0
M  V30 1205 C 115.518 -3.79161 3.55715 0
M  V30 1206 C 113.203 -4.08079 2.92877 0
M  V30 1207 C 115.197 -4.10767 4.8739 0
M  V30 1208 C 112.884 -4.39351 4.24751 0
M  V30 1209 C 113.882 -4.40675 5.21818 0
M  V30 1210 O 113.57 -4.71202 6.51325 0
M  V30 1211 H 113.302 -0.610018 0.291297 0
M  V30 1212 H 115.856 -1.47958 1.4247 0
M  V30 1213 H 114.086 -3.84079 0.449503 0
M  V30 1214 H 115.775 -3.9694 0.84814 0
M  V30 1215 H 116.541 -3.55693 3.29708 0
M  V30 1216 H 112.42 -4.06211 2.17976 0
M  V30 1217 H 115.964 -4.11715 5.63148 0
M  V30 1218 H 111.861 -4.62285 4.50514 0
M  V30 1219 H 112.629 -4.88996 6.56373 0
M  V30 1220 N 115.292 -0.849877 -1.32721 0
M  V30 1221 C 116.242 -0.262892 -2.26479 0
M  V30 1222 C 117.226 0.588493 -1.49752 0
M  V30 1223 O 118.418 0.438659 -1.71478 0
M  V30 1224 C 115.547 0.551818 -3.38836 0
M  V30 1225 C 114.633 -0.311689 -4.22953 0
M  V30 1226 N 115.024 -1.39567 -4.86163 0
M  V30 1227 C 113.322 -0.100611 -4.45887 0
M  V30 1228 C 114.023 -1.92651 -5.48872 0
M  V30 1229 N 112.999 -1.22637 -5.29586 0
M  V30 1230 H 116.801 -1.09166 -2.72873 0
M  V30 1231 H 114.315 -0.695486 -1.46754 0
M  V30 1232 H 116.312 0.988713 -4.05006 0
M  V30 1233 H 114.972 1.37844 -2.93988 0
M  V30 1234 H 115.983 -1.77859 -4.86402 0
M  V30 1235 H 112.66 0.691681 -4.11731 0
M  V30 1236 H 114.05 -2.83487 -6.09167 0
M  V30 1237 N 116.77 1.45427 -0.607355 0
M  V30 1238 C 117.7 2.3329 0.0989352 0
M  V30 1239 C 118.681 1.46816 0.859007 0
M  V30 1240 O 119.866 1.75588 0.829604 0
M  V30 1241 C 116.996 3.29518 1.09705 0
M  V30 1242 C 115.95 4.25626 0.450206 0
M  V30 1243 C 115.276 5.11542 1.55655 0
M  V30 1244 C 116.576 5.18505 -0.628455 0
M  V30 1245 H 118.27 2.92595 -0.634716 0
M  V30 1246 H 115.816 1.40696 -0.306681 0
M  V30 1247 H 117.769 3.89855 1.59971 0
M  V30 1248 H 116.493 2.68372 1.86129 0
M  V30 1249 H 115.152 3.66586 -0.0315886 0
M  V30 1250 H 114.8 4.46765 2.31107 0
M  V30 1251 H 114.5 5.76647 1.12925 0
M  V30 1252 H 116.024 5.74748 2.06148 0
M  V30 1253 H 117.438 5.72916 -0.209877 0
M  V30 1254 H 115.835 5.92085 -0.977489 0
M  V30 1255 H 116.905 4.60948 -1.50514 0
M  V30 1256 N 118.248 0.346503 1.53744 0
M  V30 1257 C 119.158 -0.517293 2.28826 0
M  V30 1258 C 120.174 -1.10935 1.3405 0
M  V30 1259 O 121.35 -1.1244 1.6709 0
M  V30 1260 C 118.415 -1.65098 3.04866 0
M  V30 1261 C 117.476 -1.0884 4.15274 0
M  V30 1262 C 116.709 -2.16806 4.87679 0
M  V30 1263 O 116.932 -3.3758 4.59778 0
M  V30 1264 O 115.866 -1.80934 5.74061 0
M  V30 1265 H 119.692 0.0931396 3.03557 0
M  V30 1266 H 117.277 0.111458 1.48984 0
M  V30 1267 H 119.159 -2.31053 3.5241 0
M  V30 1268 H 117.834 -2.24717 2.32989 0
M  V30 1269 H 116.741 -0.3933 3.72027 0
M  V30 1270 H 118.074 -0.537036 4.89261 0
M  V30 1271 N 119.726 -1.57421 0.075193 0
M  V30 1272 C 121.142 -1.57099 -0.281444 0
M  V30 1273 C 121.342 -1.08486 -1.69803 0
M  V30 1274 O 120.398 -0.752279 -2.41033 0
M  V30 1275 C 121.711 -3.00571 -0.0880041 0
M  V30 1276 C 123.259 -3.12605 -0.157281 0
M  V30 1277 C 123.734 -4.57999 0.0079207 0
M  V30 1278 N 125.225 -4.63176 -0.0475725 0
M  V30 1279 C 125.96 -5.73373 0.0557876 0
M  V30 1280 N 125.456 -6.92473 0.21286 0
M  V30 1281 N 127.249 -5.621 -0.00152098 0
M  V30 1282 H 119.4 -1.87335 1.00098 0
M  V30 1283 H 121.663 -0.86377 0.390646 0
M  V30 1284 H 121.369 -3.40262 0.889629 0
M  V30 1285 H 121.243 -3.67754 -0.838875 0
M  V30 1286 H 123.63 -2.72798 -1.1254 0
M  V30 1287 H 123.711 -2.48053 0.62475 0
M  V30 1288 H 123.355 -4.98496 0.972824 0
M  V30 1289 H 123.285 -5.20586 -0.793556 0
M  V30 1290 H 125.776 -3.7753 -0.167244 0
M  V30 1291 H 126.089 -7.72279 0.283781 0
M  V30 1292 H 124.434 -6.94556 0.248267 0
M  V30 1293 H 127.625 -4.67938 -0.122958 0
M  V30 1294 H 127.798 -6.47948 0.0824844 0
M  V30 1295 N 121.204 0.198386 -1.56346 0
M  V30 1296 C 122.432 0.935572 -1.84539 0
M  V30 1297 C 122.847 1.76989 -0.657281 0
M  V30 1298 O 122.204 1.78626 0.374043 0
M  V30 1299 C 122.255 1.8344 -3.11499 0
M  V30 1300 O 121.976 1.03377 -4.25728 0
M  V30 1301 C 123.477 2.68355 -3.52846 0
M  V30 1302 H 120.697 0.273126 -0.612897 0
M  V30 1303 H 123.241 0.20663 -2.03453 0
M  V30 1304 H 121.396 2.51701 -2.94492 0
M  V30 1305 H 121.81 1.64599 -4.98003 0
M  V30 1306 H 123.284 3.27085 -4.44657 0
M  V30 1307 H 123.761 3.41901 -2.75681 0
M  V30 1308 H 124.367 2.05471 -3.72373 0
M  V30 1309 N 122.682 1.50554 0.465978 0
M  V30 1310 C 123.928 1.62038 1.21949 0
M  V30 1311 C 124.261 0.322116 1.9151 0
M  V30 1312 O 123.536 -0.676723 1.82348 0
M  V30 1313 C 123.819 2.80421 2.25912 0
M  V30 1314 C 123.672 4.20144 1.60622 0
M  V30 1315 C 124.991 2.94354 3.27176 0
M  V30 1316 H 122.11 0.589752 0.441998 0
M  V30 1317 H 124.752 1.82956 0.51257 0
M  V30 1318 H 122.902 2.62717 2.86203 0
M  V30 1319 H 124.574 4.49449 1.03889 0
M  V30 1320 H 122.817 4.24165 0.909211 0
M  V30 1321 H 123.488 4.98914 2.36196 0
M  V30 1322 H 125.964 3.10578 2.76913 0
M  V30 1323 H 124.84 3.788 3.97242 0
M  V30 1324 H 125.101 2.05186 3.916 0
M  V30 1325 N 124.16 -0.719506 1.40217 0
M  V30 1326 C 125.092 -1.84428 1.36084 0
M  V30 1327 C 126.105 -1.60597 0.266913 0
M  V30 1328 O 127.294 -1.70544 0.526983 0
M  V30 1329 C 124.394 -3.20757 1.094 0
M  V30 1330 C 123.567 -3.71817 2.30372 0
M  V30 1331 C 122.626 -4.86748 1.99907 0
M  V30 1332 O 121.652 -4.99603 2.72737 0
M  V30 1333 N 122.854 -5.7226 0.974635 0
M  V30 1334 H 125.619 -1.88473 2.33019 0
M  V30 1335 H 123.18 -0.900885 1.3452 0
M  V30 1336 H 125.172 -3.95235 0.870116 0
M  V30 1337 H 123.742 -3.11884 0.211452 0
M  V30 1338 H 122.962 -2.88514 2.68614 0
M  V30 1339 H 124.25 -4.02666 3.11026 0
M  V30 1340 H 123.648 -5.6448 0.371368 0
M  V30 1341 H 122.205 -6.46739 0.810656 0
M  V30 1342 N 125.638 -1.25649 -0.95132 0
M  V30 1343 C 126.548 -1.08073 -2.08224 0
M  V30 1344 C 127.564 -0.0169666 -1.73992 0
M  V30 1345 O 128.74 -0.218593 -2.0021 0
M  V30 1346 C 125.805 -0.704922 -3.39458 0
M  V30 1347 C 124.866 -1.84699 -3.87537 0
M  V30 1348 C 124.099 -1.48902 -5.12508 0
M  V30 1349 O 124.322 -0.386156 -5.69091 0
M  V30 1350 O 123.256 -2.32033 -5.55378 0
M  V30 1351 H 127.082 -2.02924 -2.25954 0
M  V30 1352 H 124.667 -1.04618 -1.06656 0
M  V30 1353 H 126.549 -0.507609 -4.18332 0
M  V30 1354 H 125.224 0.214291 -3.2299 0
M  V30 1355 H 124.131 -2.09919 -3.09653 0
M  V30 1356 H 125.464 -2.74557 -4.08509 0
M  V30 1357 N 127.117 1.15442 -1.07289 0
M  V30 1358 C 128.047 2.22312 -0.714107 0
M  V30 1359 C 129.028 1.67467 0.298155 0
M  V30 1360 O 130.213 1.93445 0.171048 0
M  V30 1361 C 127.343 3.47124 -0.110448 0
M  V30 1362 C 126.297 4.14926 -1.04979 0
M  V30 1363 C 125.623 5.33807 -0.308924 0
M  V30 1364 C 126.923 4.64762 -2.38314 0
M  V30 1365 H 128.617 2.5258 -1.6076 0
M  V30 1366 H 126.163 1.21404 -0.77441 0
M  V30 1367 H 128.116 4.21124 0.152482 0
M  V30 1368 H 126.84 3.16187 0.81812 0
M  V30 1369 H 125.499 3.42866 -1.29764 0
M  V30 1370 H 125.147 4.99126 0.623084 0
M  V30 1371 H 124.847 5.80113 -0.935036 0
M  V30 1372 H 126.371 6.10576 -0.0537771 0
M  V30 1373 H 127.785 5.30292 -2.1786 0
M  V30 1374 H 126.182 5.21728 -2.96514 0
M  V30 1375 H 127.252 3.80434 -3.00663 0
M  V30 1376 N 128.595 0.856903 1.32268 0
M  V30 1377 C 129.842 0.461386 1.97174 0
M  V30 1378 C 130.17 -0.983491 1.67803 0
M  V30 1379 O 129.425 -1.70541 0.959903 0
M  V30 1380 C 129.724 0.649919 3.51441 0
M  V30 1381 C 129.39 2.0656 4.00804 0
M  V30 1382 C 128.052 2.45279 4.13995 0
M  V30 1383 C 130.404 2.98947 4.26943 0
M  V30 1384 C 127.732 3.75653 4.50668 0
M  V30 1385 C 130.084 4.28822 4.65075 0
M  V30 1386 C 128.748 4.67472 4.76472 0
M  V30 1387 H 128.018 0.168833 0.72151 0
M  V30 1388 H 130.665 1.08739 1.57633 0
M  V30 1389 H 128.97 -0.0593018 3.91755 0
M  V30 1390 H 130.667 0.32391 3.9969 0
M  V30 1391 H 127.257 1.75495 3.91024 0
M  V30 1392 H 131.441 2.70265 4.16258 0
M  V30 1393 H 126.697 4.05379 4.57688 0
M  V30 1394 H 130.871 5.0047 4.84255 0
M  V30 1395 H 128.498 5.68539 5.04646 0
M  V30 1396 N 130.073 -1.45103 0.615059 0
M  V30 1397 C 131.321 -2.01784 0.112955 0
M  V30 1398 C 131.642 -1.48504 -1.26378 0
M  V30 1399 O 130.912 -0.682245 -1.83636 0
M  V30 1400 H 129.492 -0.745993 0.0387668 0
M  V30 1401 H 132.154 -1.77808 0.798141 0
M  V30 1402 H 131.25 -3.12025 0.0684069 0
M  V30 1403 N 131.551 -0.354651 -1.53558 0
M  V30 1404 C 132.798 0.238443 -2.01091 0
M  V30 1405 C 133.126 1.49663 -1.24222 0
M  V30 1406 O 132.381 1.93049 -0.321003 0
M  V30 1407 C 132.68 0.587121 -3.52545 0
M  V30 1408 C 132.346 -0.575472 -4.47213 0
M  V30 1409 C 131.008 -0.894497 -4.72813 0
M  V30 1410 C 133.36 -1.35489 -5.03281 0
M  V30 1411 C 130.688 -1.99511 -5.51736 0
M  V30 1412 C 133.04 -2.44583 -5.83405 0
M  V30 1413 C 131.704 -2.77033 -6.07296 0
M  V30 1414 H 130.974 0.0872526 -0.735845 0
M  V30 1415 H 133.621 -0.484859 -1.8526 0
M  V30 1416 H 131.926 1.39129 -3.66265 0
M  V30 1417 H 133.623 1.05809 -3.86789 0
M  V30 1418 H 130.213 -0.316774 -4.27428 0
M  V30 1419 H 134.397 -1.12167 -4.83459 0
M  V30 1420 H 129.653 -2.25063 -5.68469 0
M  V30 1421 H 133.827 -3.05401 -6.25862 0
M  V30 1422 H 131.454 -3.6244 -6.68237 0
M  V30 1423 N 133.029 1.57378 -0.0835403 0
M  V30 1424 C 133.976 2.13384 0.879539 0
M  V30 1425 C 134.946 1.04936 1.28754 0
M  V30 1426 O 136.131 1.32662 1.37133 0
M  V30 1427 C 133.271 2.70932 2.13752 0
M  V30 1428 C 132.384 3.93575 1.7811 0
M  V30 1429 C 131.519 4.39326 2.98607 0
M  V30 1430 C 130.558 5.54587 2.59037 0
M  V30 1431 N 129.695 5.95243 3.72331 0
M  V30 1432 H 134.535 2.9537 0.395076 0
M  V30 1433 H 132.072 1.45953 0.183349 0
M  V30 1434 H 134.03 3.02411 2.87408 0
M  V30 1435 H 132.66 1.91693 2.59718 0
M  V30 1436 H 131.712 3.68483 0.94469 0
M  V30 1437 H 133.024 4.77258 1.45005 0
M  V30 1438 H 132.178 4.72528 3.80529 0
M  V30 1439 H 130.917 3.5452 3.34913 0
M  V30 1440 H 129.922 5.21024 1.75539 0
M  V30 1441 H 131.147 6.41133 2.23887 0
M  V30 1442 H 129.093 5.13385 4.08378 0
M  V30 1443 H 129.01 6.73694 3.43034 0
M  V30 1444 H 130.278 6.33072 4.54797 0
M  V30 1445 N 134.507 -0.190092 1.56449 0
M  V30 1446 C 135.457 -1.23977 1.91347 0
M  V30 1447 C 136.441 -1.40747 0.779693 0
M  V30 1448 O 137.633 -1.43033 1.04262 0
M  V30 1449 C 134.762 -2.58347 2.26079 0
M  V30 1450 C 133.848 -2.4535 3.45925 0
M  V30 1451 N 134.239 -2.02039 4.63696 0
M  V30 1452 C 132.537 -2.76229 3.50162 0
M  V30 1453 C 133.238 -2.01053 5.4585 0
M  V30 1454 N 132.214 -2.42747 4.8639 0
M  V30 1455 H 136.016 -0.896318 2.79899 0
M  V30 1456 H 133.53 -0.398496 1.57435 0
M  V30 1457 H 135.527 -3.34173 2.49267 0
M  V30 1458 H 134.187 -2.93512 1.38856 0
M  V30 1459 H 135.198 -1.7267 4.88268 0
M  V30 1460 H 131.875 -3.15556 2.73369 0
M  V30 1461 H 133.265 -1.69426 6.50188 0
M  V30 1462 N 135.985 -1.50799 -0.457987 0
M  V30 1463 C 137.234 -1.6168 -1.20593 0
M  V30 1464 C 137.547 -0.32888 -1.92815 0
M  V30 1465 O 138.753 -0.316773 -2.69646 0
M  V30 1466 C 137.209 -2.8545 -2.19195 0
M  V30 1467 C 136.817 -4.21168 -1.52715 0
M  V30 1468 C 138.561 -3.05681 -2.94549 0
M  V30 1469 C 136.468 -5.3611 -2.4968 0
M  V30 1470 H 135.398 -0.602134 -0.453818 0
M  V30 1471 H 138.049 -1.77245 -0.475031 0
M  V30 1472 H 136.431 -2.63472 -2.95632 0
M  V30 1473 H 137.605 -4.53449 -0.819775 0
M  V30 1474 H 135.92 -4.06648 -0.895922 0
M  V30 1475 H 138.517 -3.88727 -3.67145 0
M  V30 1476 H 138.86 -2.17929 -3.54701 0
M  V30 1477 H 139.393 -3.27901 -2.25223 0
M  V30 1478 H 136.132 -6.26057 -1.94249 0
M  V30 1479 H 135.652 -5.0823 -3.18532 0
M  V30 1480 H 137.331 -5.6722 -3.11241 0
M  V30 1481 N 137.463 0.71206 -1.40597 0
M  V30 1482 C 138.709 1.47416 -1.39271 0
M  V30 1483 C 139.042 1.942 0.00388791 0
M  V30 1484 O 138.317 1.68403 0.973179 0
M  V30 1485 C 138.6 2.69774 -2.38525 0
M  V30 1486 C 138.453 2.28861 -3.87224 0
M  V30 1487 C 139.772 3.71939 -2.35264 0
M  V30 1488 H 136.891 0.534713 -0.5072 0
M  V30 1489 H 139.533 0.812375 -1.71757 0
M  V30 1490 H 137.683 3.26238 -2.10953 0
M  V30 1491 H 139.355 1.77852 -4.25636 0
M  V30 1492 H 137.598 1.60824 -4.02887 0
M  V30 1493 H 138.269 3.16584 -4.52193 0
M  V30 1494 H 140.745 3.25113 -2.59694 0
M  V30 1495 H 139.621 4.55186 -3.06753 0
M  V30 1496 H 139.882 4.20484 -1.36549 0
M  V30 1497 N 138.941 1.26152 0.944643 0
M  V30 1498 C 140.352 1.10454 1.50522 0
M  V30 1499 C 140.703 -0.31635 1.93633 0
M  V30 1500 O 139.828 -1.20746 1.79581 0
M  V30 1501 C 140.423 1.99891 2.73549 0
M  V30 1502 C 138.982 1.88348 3.25886 0
M  V30 1503 C 138.129 1.93447 1.9868 0
M  V30 1504 H 141.08 1.39292 0.760489 0
M  V30 1505 H 141.101 1.54477 3.47732 0
M  V30 1506 H 140.613 3.03297 2.42141 0
M  V30 1507 H 138.714 0.878636 3.62092 0
M  V30 1508 H 138.827 2.73696 3.93227 0
M  V30 1509 H 137.191 1.37456 2.14425 0
M  V30 1510 H 137.974 2.98476 1.69607 0
M  V30 1511 N 140.419 -1.14872 1.07899 0
M  V30 1512 C 141.647 -1.89661 0.82683 0
M  V30 1513 C 142.062 -1.78312 -0.620519 0
M  V30 1514 O 141.419 -1.13888 -1.42604 0
M  V30 1515 C 141.47 -3.39817 1.23316 0
M  V30 1516 O 141.191 -3.50845 2.62372 0
M  V30 1517 C 142.692 -4.31615 1.0111 0
M  V30 1518 H 139.912 -0.60092 0.298557 0
M  V30 1519 H 142.456 -1.4551 1.43691 0
M  V30 1520 H 140.611 -3.8161 0.667286 0
M  V30 1521 H 141.025 -4.44076 2.79101 0
M  V30 1522 H 142.499 -5.35367 1.34486 0
M  V30 1523 H 142.976 -4.39169 -0.0522168 0
M  V30 1524 H 143.582 -3.95572 1.56215 0
M  V30 1525 N 141.898 -0.863906 -1.31812 0
M  V30 1526 C 142.848 -0.286898 -2.26188 0
M  V30 1527 C 143.832 0.572577 -1.50367 0
M  V30 1528 O 145.024 0.420447 -1.71934 0
M  V30 1529 C 142.153 0.515849 -3.39402 0
M  V30 1530 C 141.239 -0.356531 -4.22599 0
M  V30 1531 N 141.63 -1.44716 -4.84656 0
M  V30 1532 C 139.928 -0.147898 -4.45755 0
M  V30 1533 C 140.629 -1.98462 -5.46798 0
M  V30 1534 N 139.605 -1.28247 -5.28255 0
M  V30 1535 H 143.407 -1.12055 -2.717 0
M  V30 1536 H 140.921 -0.711012 -1.46008 0
M  V30 1537 H 142.918 0.945701 -4.06032 0
M  V30 1538 H 141.578 1.34718 -2.95434 0
M  V30 1539 H 142.589 -1.83008 -4.84488 0
M  V30 1540 H 139.266 0.647973 -4.12441 0
M  V30 1541 H 140.656 -2.89932 -6.06126 0
M  V30 1542 N 143.376 1.44774 -0.622745 0
M  V30 1543 C 144.308 2.28856 0.125485 0
M  V30 1544 C 145.321 1.40811 0.817069 0
M  V30 1545 O 146.51 1.65044 0.679918 0
M  V30 1546 C 143.61 3.16963 1.19949 0
M  V30 1547 C 142.783 4.33374 0.592064 0
M  V30 1548 C 141.842 5.02577 1.55893 0
M  V30 1549 O 140.868 5.58873 1.07933 0
M  V30 1550 N 142.07 5.03256 2.89334 0
M  V30 1551 H 144.835 2.93713 -0.596068 0
M  V30 1552 H 142.396 1.55129 -0.463303 0
M  V30 1553 H 144.388 3.60123 1.84644 0
M  V30 1554 H 142.958 2.53913 1.82337 0
M  V30 1555 H 142.178 3.93509 -0.233322 0
M  V30 1556 H 143.466 5.08527 0.166738 0
M  V30 1557 H 142.864 4.58836 3.30887 0
M  V30 1558 H 141.421 5.50232 3.49412 0
M  V30 1559 N 144.854 0.36279 1.53368 0
M  V30 1560 C 146.102 -0.227326 2.00817 0
M  V30 1561 C 146.423 -1.49511 1.25186 0
M  V30 1562 O 145.693 -1.92482 0.364348 0
M  V30 1563 H 144.273 -0.0869923 0.741917 0
M  V30 1564 H 146.935 0.488381 1.88682 0
M  V30 1565 H 146.031 -0.456273 3.08747 0
M  V30 1566 N 146.332 -1.57332 0.0918853 0
M  V30 1567 C 147.748 -1.57389 -0.264766 0
M  V30 1568 C 147.948 -1.10281 -1.68643 0
M  V30 1569 O 147.004 -0.777801 -2.40222 0
M  V30 1570 C 148.317 -3.00648 -0.0561195 0
M  V30 1571 C 149.865 -3.12754 -0.124116 0
M  V30 1572 C 150.34 -4.57965 0.0564972 0
M  V30 1573 N 151.831 -4.632 0.00155611 0
M  V30 1574 C 152.566 -5.73281 0.116598 0
M  V30 1575 N 152.062 -6.92208 0.286294 0
M  V30 1576 N 153.855 -5.6207 0.0580973 0
M  V30 1577 H 146.006 -1.86262 1.02079 0
M  V30 1578 H 148.269 -0.859579 0.399786 0
M  V30 1579 H 147.975 -3.393 0.925669 0
M  V30 1580 H 147.849 -3.68623 -0.799823 0
M  V30 1581 H 150.236 -2.73976 -1.09641 0
M  V30 1582 H 150.317 -2.47377 0.651024 0
M  V30 1583 H 149.961 -4.97436 1.02564 0
M  V30 1584 H 149.891 -5.21399 -0.738297 0
M  V30 1585 H 152.382 -3.77686 -0.127192 0
M  V30 1586 H 152.695 -7.71934 0.365676 0
M  V30 1587 H 151.04 -6.94254 0.32192 0
M  V30 1588 H 154.231 -4.68043 -0.0733204 0
M  V30 1589 H 154.404 -6.47824 0.151203 0
M  V30 1590 N 147.81 0.181792 -1.56548 0
M  V30 1591 C 149.058 0.89832 -1.81038 0
M  V30 1592 C 149.379 1.83232 -0.667164 0
M  V30 1593 O 148.649 1.93372 0.313673 0
M  V30 1594 H 147.229 0.33471 -0.667816 0
M  V30 1595 H 149.891 0.184116 -1.94028 0
M  V30 1596 H 148.987 1.4815 -2.74696 0
M  V30 1597 N 149.288 1.51039 0.449983 0
M  V30 1598 C 150.251 1.70863 1.5277 0
M  V30 1599 C 151.251 0.578846 1.5002 0
M  V30 1600 O 152.441 0.846213 1.52266 0
M  V30 1601 C 149.573 1.75341 2.9235 0
M  V30 1602 H 150.766 2.67034 1.36502 0
M  V30 1603 H 148.319 1.40838 0.677812 0
M  V30 1604 H 149.054 0.809383 3.14037 0
M  V30 1605 H 148.839 2.57436 2.95752 0
M  V30 1606 H 150.329 1.92559 3.70555 0
M  V30 1607 N 150.766 -0.704594 1.40972 0
M  V30 1608 C 151.676 -1.84856 1.44448 0
M  V30 1609 C 152.692 -1.70726 0.335961 0
M  V30 1610 O 153.868 -1.92799 0.582276 0
M  V30 1611 C 150.933 -3.20758 1.31587 0
M  V30 1612 C 149.994 -3.47063 2.52677 0
M  V30 1613 C 149.227 -4.76481 2.4042 0
M  V30 1614 O 149.45 -5.52341 1.42391 0
M  V30 1615 O 148.384 -5.03367 3.30007 0
M  V30 1616 H 152.21 -1.8488 2.40942 0
M  V30 1617 H 149.795 -0.85647 1.22413 0
M  V30 1618 H 151.677 -4.01913 1.26665 0
M  V30 1619 H 150.352 -3.21438 0.382049 0
M  V30 1620 H 149.259 -2.65873 2.63177 0
M  V30 1621 H 150.592 -3.5119 3.44858 0
M  V30 1622 N 152.244 -1.26651 -0.937939 0
M  V30 1623 C 153.192 -1.08308 -2.05845 0
M  V30 1624 C 154.186 -0.0090757 -1.69398 0
M  V30 1625 O 155.392 -0.166007 -1.79233 0
M  V30 1626 H 151.767 -0.333416 -0.674046 0
M  V30 1627 H 153.738 -2.03261 -2.18467 0
M  V30 1628 C 152.487 -0.736229 -3.39816 0
M  V30 1629 H 151.81 -1.55453 -3.6834 0
M  V30 1630 H 153.25 -0.64769 -4.19024 0
M  V30 1631 C 151.709 0.558824 -3.32233 0
M  V30 1632 O 152.239 1.59621 -3.68624 0
M  V30 1633 N 150.445 0.550657 -2.85335 0
M  V30 1634 H 149.992 -0.293943 -2.55917 0
M  V30 1635 H 149.95 1.41726 -2.80644 0
M  V30 1636 N 153.722 1.14298 -1.08507 0
M  V30 1637 C 154.652 2.21542 -0.737646 0
M  V30 1638 C 155.633 1.67773 0.280377 0
M  V30 1639 O 156.818 1.93616 0.150521 0
M  V30 1640 C 153.948 3.46988 -0.147259 0
M  V30 1641 C 152.902 4.13789 -1.09374 0
M  V30 1642 C 152.228 5.33449 -0.365524 0
M  V30 1643 C 153.528 4.62208 -2.4323 0
M  V30 1644 H 155.222 2.5086 -1.6343 0
M  V30 1645 H 152.768 1.20576 -0.787243 0
M  V30 1646 H 154.721 4.21262 0.107808 0
M  V30 1647 H 153.445 3.17037 0.784538 0
M  V30 1648 H 152.104 3.4147 -1.33393 0
M  V30 1649 H 151.752 4.99759 0.57011 0
M  V30 1650 H 151.452 5.79088 -0.996512 0
M  V30 1651 H 152.976 6.10485 -0.118534 0
M  V30 1652 H 154.39 5.27952 -2.23472 0
M  V30 1653 H 152.787 5.18553 -3.02031 0
M  V30 1654 H 153.857 3.77224 -3.04681 0
M  V30 1655 N 155.201 0.870884 1.31352 0
M  V30 1656 C 156.131 0.343096 2.30966 0
M  V30 1657 C 157.112 -0.566507 1.60389 0
M  V30 1658 O 158.297 -0.483336 1.88089 0
M  V30 1659 C 155.427 -0.455487 3.443 0
M  V30 1660 C 154.381 0.361103 4.26474 0
M  V30 1661 C 153.707 -0.563221 5.31725 0
M  V30 1662 C 155.007 1.59566 4.97329 0
M  V30 1663 H 156.701 1.17548 2.75359 0
M  V30 1664 H 154.247 0.566686 1.32381 0
M  V30 1665 H 156.2 -0.83525 4.13039 0
M  V30 1666 H 154.924 -1.32139 2.98675 0
M  V30 1667 H 153.583 0.722825 3.59403 0
M  V30 1668 H 153.231 -1.42643 4.82351 0
M  V30 1669 H 152.931 -0.0207409 5.87596 0
M  V30 1670 H 154.455 -0.939808 6.03324 0
M  V30 1671 H 155.869 1.28728 5.58661 0
M  V30 1672 H 154.266 2.07728 5.63 0
M  V30 1673 H 155.336 2.34798 4.24262 0
M  V30 1674 N 156.679 -1.44442 0.630414 0
M  V30 1675 C 157.904 -2.06927 0.139944 0
M  V30 1676 C 158.329 -1.46795 -1.17613 0
M  V30 1677 O 157.687 -0.569144 -1.72135 0
M  V30 1678 C 157.735 -3.6058 0.0379581 0
M  V30 1679 O 156.839 -3.99937 -1.0062 0
M  V30 1680 H 156.18 -0.658608 0.0844483 0
M  V30 1681 H 158.71 -1.85327 0.866891 0
M  V30 1682 H 158.72 -4.07714 -0.152856 0
M  V30 1683 H 157.395 -4.03728 0.998809 0
M  V30 1684 H 155.972 -3.64436 -0.79001 0
M  V30 1685 N 158.157 -0.370918 -1.53173 0
M  V30 1686 C 159.089 0.507823 -2.23503 0
M  V30 1687 C 160.102 1.04182 -1.251 0
M  V30 1688 O 161.291 0.947286 -1.5129 0
M  V30 1689 C 158.391 1.71447 -2.92334 0
M  V30 1690 C 157.564 1.31105 -4.17289 0
M  V30 1691 C 156.623 2.38035 -4.69282 0
M  V30 1692 O 155.649 2.00204 -5.32829 0
M  V30 1693 N 156.851 3.69697 -4.47554 0
M  V30 1694 H 159.616 -0.0946382 -2.99551 0
M  V30 1695 H 157.177 -0.196358 -1.60705 0
M  V30 1696 H 159.169 2.42469 -3.24023 0
M  V30 1697 H 157.739 2.22368 -2.19707 0
M  V30 1698 H 156.959 0.430462 -3.91843 0
M  V30 1699 H 158.247 1.0179 -4.98514 0
M  V30 1700 H 157.645 4.03205 -3.9679 0
M  V30 1701 H 156.202 4.36807 -4.8378 0
M  V30 1702 N 159.635 1.57281 -0.100228 0
M  V30 1703 C 160.565 2.17328 0.853857 0
M  V30 1704 C 161.546 1.10804 1.2906 0
M  V30 1705 O 162.731 1.38963 1.35657 0
M  V30 1706 C 159.861 2.75772 2.11109 0
M  V30 1707 C 158.815 3.87713 1.81279 0
M  V30 1708 C 158.141 4.32882 3.13874 0
M  V30 1709 C 159.441 5.10677 1.09574 0
M  V30 1710 H 161.135 2.97305 0.353545 0
M  V30 1711 H 158.681 1.43009 0.168612 0
M  V30 1712 H 160.634 3.16433 2.78296 0
M  V30 1713 H 159.358 1.93057 2.63432 0
M  V30 1714 H 158.017 3.476 1.16489 0
M  V30 1715 H 157.665 3.47051 3.64095 0
M  V30 1716 H 157.365 5.08358 2.94696 0
M  V30 1717 H 158.889 4.7618 3.82211 0
M  V30 1718 H 160.303 5.48474 1.66879 0
M  V30 1719 H 158.7 5.91615 1.00557 0
M  V30 1720 H 159.77 4.84835 0.0793299 0
M  V30 1721 N 161.113 -0.173488 1.56642 0
M  V30 1722 C 162.076 -1.19859 1.95362 0
M  V30 1723 C 163.076 -1.37296 0.83704 0
M  V30 1724 O 164.266 -1.34739 1.10413 0
M  V30 1725 C 161.398 -2.56405 2.24654 0
M  V30 1726 H 162.591 -0.867062 2.87092 0
M  V30 1727 H 160.144 -0.415853 1.50666 0
M  V30 1728 H 160.879 -2.94576 1.35631 0
M  V30 1729 H 160.664 -2.45115 3.06041 0
M  V30 1730 H 162.154 -3.30287 2.5554 0
M  V30 1731 N 162.591 -1.51276 -0.441967 0
M  V30 1732 C 163.84 -1.6295 -1.18871 0
M  V30 1733 C 164.153 -0.349312 -1.92456 0
M  V30 1734 O 165.359 -0.345355 -2.69295 0
M  V30 1735 C 163.815 -2.87759 -2.16155 0
M  V30 1736 C 163.423 -4.22764 -1.48239 0
M  V30 1737 C 165.167 -3.08788 -2.91291 0
M  V30 1738 C 163.074 -5.38728 -2.4398 0
M  V30 1739 H 162.004 -0.606913 -0.447406 0
M  V30 1740 H 164.655 -1.77739 -0.456205 0
M  V30 1741 H 163.037 -2.66593 -2.92821 0
M  V30 1742 H 164.211 -4.54293 -0.771635 0
M  V30 1743 H 162.526 -4.07575 -0.852741 0
M  V30 1744 H 165.123 -3.92599 -3.63002 0
M  V30 1745 H 165.466 -2.21679 -3.5237 0
M  V30 1746 H 165.999 -3.30272 -2.21733 0
M  V30 1747 H 162.738 -6.28082 -1.87598 0
M  V30 1748 H 162.258 -5.1158 -3.13123 0
M  V30 1749 H 163.937 -5.70489 -3.05207 0
M  V30 1750 N 164.069 0.697108 -1.41344 0
M  V30 1751 C 165.016 1.81106 -1.43071 0
M  V30 1752 C 165.986 1.63632 -0.285275 0
M  V30 1753 O 167.171 1.84504 -0.486091 0
M  V30 1754 C 164.311 3.18975 -1.31715 0
M  V30 1755 C 163.424 3.47892 -2.56115 0
M  V30 1756 C 162.559 4.75367 -2.37064 0
M  V30 1757 C 161.598 4.97247 -3.56948 0
M  V30 1758 N 160.735 6.15947 -3.36977 0
M  V30 1759 H 165.575 1.78965 -2.38276 0
M  V30 1760 H 163.112 0.873975 -1.18322 0
M  V30 1761 H 165.07 3.98615 -1.23133 0
M  V30 1762 H 163.7 3.20297 -0.401183 0
M  V30 1763 H 162.752 2.62669 -2.75153 0
M  V30 1764 H 164.064 3.59962 -3.45295 0
M  V30 1765 H 163.218 5.63059 -2.25941 0
M  V30 1766 H 161.957 4.65541 -1.45338 0
M  V30 1767 H 160.962 4.08004 -3.68527 0
M  V30 1768 H 162.187 5.08934 -4.49626 0
M  V30 1769 H 160.133 6.07336 -2.47949 0
M  V30 1770 H 160.05 6.28777 -4.19732 0
M  V30 1771 H 161.318 7.06377 -3.29623 0
M  V30 1772 N 165.547 1.27147 0.931209 0
M  V30 1773 C 166.958 1.12044 1.49342 0
M  V30 1774 C 167.309 -0.295795 1.93957 0
M  V30 1775 O 166.434 -1.18835 1.80852 0
M  V30 1776 C 167.029 2.02781 2.71414 0
M  V30 1777 C 165.588 1.91794 3.2387 0
M  V30 1778 C 164.735 1.95543 1.96617 0
M  V30 1779 H 167.686 1.40091 0.745672 0
M  V30 1780 H 167.707 1.58156 3.46074 0
M  V30 1781 H 167.219 3.05848 2.38911 0
M  V30 1782 H 165.32 0.916992 3.6114 0
M  V30 1783 H 165.433 2.77852 3.90302 0
M  V30 1784 H 163.797 1.39722 2.12955 0
M  V30 1785 H 164.58 3.00259 1.66432 0
M  V30 1786 N 167.025 -1.13721 1.09112 0
M  V30 1787 C 168.273 -1.84559 0.823562 0
M  V30 1788 C 168.594 -1.83754 -0.652658 0
M  V30 1789 O 167.864 -1.29102 -1.47342 0
M  V30 1790 H 166.444 -0.683376 0.301673 0
M  V30 1791 H 169.106 -1.37771 1.37859 0
M  V30 1792 H 168.202 -2.8917 1.17419 0
M  V30 1793 N 168.503 -0.877838 -1.30888 0
M  V30 1794 C 169.435 -0.296607 -2.27273 0
M  V30 1795 C 170.448 0.544799 -1.53414 0
M  V30 1796 O 171.637 0.365511 -1.74718 0
M  V30 1797 C 168.737 0.597481 -3.33592 0
M  V30 1798 C 167.91 -0.213251 -4.3688 0
M  V30 1799 C 166.969 0.610208 -5.2265 0
M  V30 1800 O 165.995 0.035441 -5.69189 0
M  V30 1801 N 167.197 1.92071 -5.47804 0
M  V30 1802 H 169.962 -1.12492 -2.77787 0
M  V30 1803 H 167.523 -0.740105 -1.43993 0
M  V30 1804 H 169.515 1.15425 -3.87891 0
M  V30 1805 H 168.085 1.32647 -2.83061 0
M  V30 1806 H 167.305 -0.951466 -3.82545 0
M  V30 1807 H 168.593 -0.769262 -5.02951 0
M  V30 1808 H 167.991 2.4107 -5.11763 0
M  V30 1809 H 166.548 2.42508 -6.05007 0
M  V30 1810 N 169.982 1.44106 -0.638065 0
M  V30 1811 C 171.212 2.06037 -0.152394 0
M  V30 1812 C 171.62 1.47808 1.18108 0
M  V30 1813 O 170.963 0.598092 1.73691 0
M  V30 1814 C 171.025 3.59488 0.0293714 0
M  V30 1815 C 170.689 4.4022 -1.22702 0
M  V30 1816 C 171.686 4.73256 -2.15232 0
M  V30 1817 C 169.371 4.8048 -1.46437 0
M  V30 1818 C 171.365 5.45444 -3.29802 0
M  V30 1819 C 169.052 5.52417 -2.61303 0
M  V30 1820 C 170.05 5.84819 -3.52811 0
M  V30 1821 O 169.738 6.55289 -4.65673 0
M  V30 1822 H 169.47 0.671233 -0.0801401 0
M  V30 1823 H 172.024 1.85851 -0.874563 0
M  V30 1824 H 170.254 3.78191 0.806758 0
M  V30 1825 H 171.943 4.03164 0.470475 0
M  V30 1826 H 172.709 4.42684 -1.98131 0
M  V30 1827 H 168.588 4.54676 -0.760977 0
M  V30 1828 H 172.132 5.70653 -4.01249 0
M  V30 1829 H 168.029 5.82404 -2.78344 0
M  V30 1830 H 168.797 6.73762 -4.64744 0
M  V30 1831 N 171.46 0.379036 1.52974 0
M  V30 1832 C 172.706 -0.206727 2.01744 0
M  V30 1833 C 173.039 -1.47314 1.26539 0
M  V30 1834 O 172.314 -1.91084 0.362903 0
M  V30 1835 C 172.597 -0.485066 3.56818 0
M  V30 1836 C 172.45 0.795919 4.42702 0
M  V30 1837 C 173.769 -1.28003 4.21074 0
M  V30 1838 H 170.888 -0.0736607 0.73331 0
M  V30 1839 H 173.53 0.506581 1.83122 0
M  V30 1840 H 171.68 -1.09272 3.72816 0
M  V30 1841 H 173.352 1.43307 4.38476 0
M  V30 1842 H 171.595 1.41344 4.10127 0
M  V30 1843 H 172.266 0.555947 5.49193 0
M  V30 1844 H 174.742 -0.765867 4.08991 0
M  V30 1845 H 173.618 -1.44352 5.29579 0
M  V30 1846 H 173.879 -2.29236 3.78026 0
M  V30 1847 N 172.938 -1.57226 0.108567 0
M  V30 1848 C 173.901 -2.13602 -0.831082 0
M  V30 1849 C 174.901 -1.06841 -1.20173 0
M  V30 1850 O 176.091 -1.32666 -1.12895 0
M  V30 1851 C 173.223 -2.66769 -2.12243 0
M  V30 1852 H 174.416 -2.97951 -0.341317 0
M  V30 1853 H 171.969 -1.55667 -0.14057 0
M  V30 1854 H 172.704 -1.85977 -2.65675 0
M  V30 1855 H 172.489 -3.44839 -1.86625 0
M  V30 1856 H 173.979 -3.10332 -2.79435 0
M  V30 1857 N 174.416 0.165178 -1.56732 0
M  V30 1858 C 175.664 0.879068 -1.8198 0
M  V30 1859 C 175.985 1.82514 -0.686561 0
M  V30 1860 O 175.255 1.93694 0.293146 0
M  V30 1861 H 173.835 0.327608 -0.671329 0
M  V30 1862 H 176.497 0.163526 -1.94213 0
M  V30 1863 H 175.593 1.45228 -2.76252 0
M  V30 1864 N 175.894 1.51508 0.433938 0
M  V30 1865 C 176.842 1.73646 1.54757 0
M  V30 1866 C 177.836 0.602854 1.5831 0
M  V30 1867 O 179.042 0.784318 1.62014 0
M  V30 1868 H 175.417 0.548718 0.51421 0
M  V30 1869 H 177.388 2.66991 1.33261 0
M  V30 1870 C 176.137 1.88172 2.92381 0
M  V30 1871 H 175.46 2.74808 2.90381 0
M  V30 1872 H 176.9 2.07672 3.6966 0
M  V30 1873 C 175.359 0.64239 3.30719 0
M  V30 1874 O 175.889 -0.201362 4.01195 0
M  V30 1875 N 174.095 0.485489 2.86516 0
M  V30 1876 H 173.642 1.17318 2.29334 0
M  V30 1877 H 173.6 -0.342482 3.12529 0
M  V30 1878 N 177.372 -0.689602 1.41712 0
M  V30 1879 C 178.305 -1.81403 1.3845 0
M  V30 1880 C 179.283 -1.60653 0.250874 0
M  V30 1881 O 180.467 -1.83323 0.43874 0
M  V30 1882 C 177.594 -3.18176 1.1611 0
M  V30 1883 C 176.64 -3.57705 2.3227 0
M  V30 1884 S 177.473 -3.61827 3.94767 0
M  V30 1885 C 178.629 -5.01318 3.74742 0
M  V30 1886 H 178.862 -1.83893 2.33603 0
M  V30 1887 H 176.395 -0.858878 1.28307 0
M  V30 1888 H 178.353 -3.97132 1.03907 0
M  V30 1889 H 177.014 -3.13288 0.225668 0
M  V30 1890 H 176.207 -4.57082 2.12349 0
M  V30 1891 H 175.809 -2.86073 2.40911 0
M  V30 1892 H 178.101 -5.88986 3.34817 0
M  V30 1893 H 179.044 -5.26283 4.73743 0
M  V30 1894 H 179.452 -4.73138 3.07898 0
M  V30 1895 N 178.85 -1.27639 -0.924453 0
M  V30 1896 C 180.08 -1.16819 -1.70402 0
M  V30 1897 C 180.488 0.277191 -1.87158 0
M  V30 1898 O 179.831 1.20025 -1.39067 0
M  V30 1899 C 179.893 -1.78305 -3.12166 0
M  V30 1900 C 179.557 -3.27502 -3.18734 0
M  V30 1901 C 180.554 -4.2409 -3.00738 0
M  V30 1902 C 178.239 -3.68269 -3.4159 0
M  V30 1903 C 180.233 -5.59422 -3.05492 0
M  V30 1904 C 177.92 -5.0373 -3.45977 0
M  V30 1905 C 178.918 -5.99116 -3.27946 0
M  V30 1906 O 178.606 -7.32108 -3.32074 0
M  V30 1907 H 178.338 -0.406931 -0.539799 0
M  V30 1908 H 180.892 -1.69078 -1.16626 0
M  V30 1909 H 179.122 -1.20528 -3.67437 0
M  V30 1910 H 180.811 -1.62154 -3.72103 0
M  V30 1911 H 181.577 -3.93931 -2.82919 0
M  V30 1912 H 177.456 -2.94496 -3.54673 0
M  V30 1913 H 181 -6.33852 -2.91337 0
M  V30 1914 H 176.897 -5.33543 -3.63321 0
M  V30 1915 H 177.665 -7.40598 -3.48507 0
M  V30 1916 N 180.328 1.1314 -1.09713 0
M  V30 1917 C 181.575 1.84484 -0.834987 0
M  V30 1918 C 181.903 1.83689 0.639418 0
M  V30 1919 O 181.158 1.2724 1.4869 0
M  V30 1920 C 181.457 3.32167 -1.3191 0
M  V30 1921 C 181.123 3.53139 -2.80363 0
M  V30 1922 C 179.785 3.58571 -3.20905 0
M  V30 1923 C 182.137 3.60866 -3.76065 0
M  V30 1924 C 179.465 3.69267 -4.55916 0
M  V30 1925 C 181.817 3.73089 -5.10869 0
M  V30 1926 C 180.481 3.76775 -5.50996 0
M  V30 1927 H 179.751 0.675073 -0.305544 0
M  V30 1928 H 182.398 1.33554 -1.37243 0
M  V30 1929 H 180.703 3.85469 -0.701517 0
M  V30 1930 H 182.4 3.85821 -1.09284 0
M  V30 1931 H 178.99 3.49569 -2.47991 0
M  V30 1932 H 183.174 3.55946 -3.45855 0
M  V30 1933 H 178.43 3.70388 -4.86438 0
M  V30 1934 H 182.604 3.78011 -5.84877 0
M  V30 1935 H 180.231 3.84815 -6.55608 0
M  V30 1936 N 181.806 0.884767 1.30421 0
M  V30 1937 C 183.034 0.518044 2.0031 0
M  V30 1938 C 183.449 -0.893408 1.66324 0
M  V30 1939 O 182.806 -1.5875 0.900262 0
M  V30 1940 C 182.857 0.682997 3.54989 0
M  V30 1941 O 182.578 2.03888 3.87764 0
M  V30 1942 C 184.079 0.31924 4.42149 0
M  V30 1943 H 181.299 0.200265 0.640418 0
M  V30 1944 H 183.843 1.19001 1.6631 0
M  V30 1945 H 181.998 0.0584052 3.87356 0
M  V30 1946 H 182.412 2.05735 4.82466 0
M  V30 1947 H 183.886 0.485555 5.4986 0
M  V30 1948 H 184.363 -0.742717 4.32875 0
M  V30 1949 H 184.969 0.920147 4.15227 0
M  V30 1950 N 183.284 -1.43765 0.645699 0
M  V30 1951 C 184.512 -2.06253 0.163556 0
M  V30 1952 C 184.927 -1.48352 -1.16778 0
M  V30 1953 O 184.284 -0.611932 -1.71935 0
M  V30 1954 C 184.335 -3.61453 0.0583186 0
M  V30 1955 O 184.056 -4.172 1.33702 0
M  V30 1956 C 185.557 -4.41002 -0.450795 0
M  V30 1957 H 182.777 -0.665413 0.0864077 0
M  V30 1958 H 185.321 -1.84396 0.884222 0
M  V30 1959 H 183.476 -3.82522 -0.612865 0
M  V30 1960 H 183.89 -5.10791 1.19131 0
M  V30 1961 H 185.364 -5.49966 -0.473403 0
M  V30 1962 H 185.841 -4.13488 -1.48068 0
M  V30 1963 H 186.447 -4.24886 0.187637 0
M  V30 1964 N 184.763 -0.387143 -1.52771 0
M  V30 1965 C 185.991 0.195869 -2.05971 0
M  V30 1966 C 186.406 1.40691 -1.25903 0
M  V30 1967 O 185.763 1.79931 -0.305134 0
M  V30 1968 C 185.814 0.56812 -3.57008 0
M  V30 1969 O 185.535 -0.594803 -4.34043 0
M  V30 1970 C 187.036 1.20723 -4.26545 0
M  V30 1971 H 184.256 0.0300578 -0.670326 0
M  V30 1972 H 186.8 -0.551749 -1.96916 0
M  V30 1973 H 184.955 1.26564 -3.66143 0
M  V30 1974 H 185.369 -0.289322 -5.23701 0
M  V30 1975 H 186.843 1.41807 -5.33474 0
M  V30 1976 H 187.32 2.17395 -3.81623 0
M  V30 1977 H 187.926 0.550535 -4.21722 0
M  V30 1978 N 186.241 1.57166 -0.116904 0
M  V30 1979 C 187.657 1.5779 0.239693 0
M  V30 1980 C 187.857 1.1295 1.66867 0
M  V30 1981 O 186.913 0.81592 2.38954 0
M  V30 1982 C 188.226 3.00699 0.00828202 0
M  V30 1983 C 189.774 3.12912 0.0743438 0
M  V30 1984 C 190.249 4.57817 -0.129348 0
M  V30 1985 N 191.74 4.63139 -0.075247 0
M  V30 1986 C 192.475 5.73023 -0.207788 0
M  V30 1987 N 191.971 6.91665 -0.396382 0
M  V30 1988 N 193.764 5.61906 -0.14751 0
M  V30 1989 H 185.915 1.84615 -1.05029 0
M  V30 1990 H 188.178 0.85311 -0.41341 0
M  V30 1991 H 187.884 3.37784 -0.979531 0
M  V30 1992 H 187.758 3.69848 0.741077 0
M  V30 1993 H 190.145 2.75686 1.05268 0
M  V30 1994 H 190.226 2.4631 -0.690297 0
M  V30 1995 H 189.87 4.95742 -1.10465 0
M  V30 1996 H 189.8 5.22507 0.655253 0
M  V30 1997 H 192.291 3.7784 0.0670898 0
M  V30 1998 H 192.604 7.71255 -0.488437 0
M  V30 1999 H 190.949 6.93654 -0.432329 0
M  V30 2000 H 194.14 4.681 -0.00115036 0
M  V30 2001 H 194.313 6.47501 -0.254247 0
M  V30 2002 N 187.719 -0.156864 1.56817 0
M  V30 2003 C 188.949 -0.885031 1.86684 0
M  V30 2004 C 189.357 -1.75696 0.701954 0
M  V30 2005 O 188.7 -1.80569 -0.337732 0
M  V30 2006 C 188.762 -1.80092 3.11138 0
M  V30 2007 C 188.426 -1.10714 4.43386 0
M  V30 2008 C 189.423 -0.465714 5.1781 0
M  V30 2009 C 187.108 -1.09959 4.90117 0
M  V30 2010 C 189.102 0.174002 6.37162 0
M  V30 2011 C 186.789 -0.456055 6.09396 0
M  V30 2012 C 187.787 0.179622 6.82764 0
M  V30 2013 O 187.475 0.812975 7.99779 0
M  V30 2014 H 187.207 -0.261813 0.623242 0
M  V30 2015 H 189.761 -0.157383 2.04796 0
M  V30 2016 H 187.991 -2.56926 2.89009 0
M  V30 2017 H 189.68 -2.40018 3.27332 0
M  V30 2018 H 190.446 -0.463427 4.82781 0
M  V30 2019 H 186.325 -1.58378 4.3294 0
M  V30 2020 H 189.869 0.670765 6.94368 0
M  V30 2021 H 185.766 -0.455975 6.43888 0
M  V30 2022 H 186.534 0.71366 8.15383 0
M  V30 2023 N 189.197 -1.51736 -0.425897 0
M  V30 2024 C 190.147 -1.70258 -1.51645 0
M  V30 2025 C 191.131 -0.556488 -1.5097 0
M  V30 2026 O 192.323 -0.812879 -1.5723 0
M  V30 2027 C 189.452 -1.84143 -2.89735 0
M  V30 2028 C 188.538 -3.04572 -2.95122 0
M  V30 2029 N 188.929 -4.2756 -2.70233 0
M  V30 2030 C 187.227 -3.04061 -3.26286 0
M  V30 2031 C 187.928 -5.08908 -2.81757 0
M  V30 2032 N 186.904 -4.43797 -3.13919 0
M  V30 2033 H 190.706 -2.63004 -1.31172 0
M  V30 2034 H 188.22 -1.4954 -0.633375 0
M  V30 2035 H 190.217 -1.95525 -3.68206 0
M  V30 2036 H 188.877 -0.925857 -3.1122 0
M  V30 2037 H 189.888 -4.56315 -2.44943 0
M  V30 2038 H 186.565 -2.22179 -3.53473 0
M  V30 2039 H 187.955 -6.16843 -2.66372 0
M  V30 2040 N 190.675 0.682077 -1.42076 0
M  V30 2041 C 191.607 1.80755 -1.40926 0
M  V30 2042 C 192.62 1.59833 -0.309398 0
M  V30 2043 O 193.809 1.69087 -0.572014 0
M  V30 2044 C 190.909 3.17744 -1.17865 0
M  V30 2045 C 190.082 3.65578 -2.40149 0
M  V30 2046 C 189.141 4.81277 -2.12742 0
M  V30 2047 O 188.167 4.92197 -2.85887 0
M  V30 2048 N 189.369 5.69474 -1.12602 0
M  V30 2049 H 192.134 1.82229 -2.37935 0
M  V30 2050 H 189.695 0.864903 -1.36861 0
M  V30 2051 H 191.687 3.9279 -0.9746 0
M  V30 2052 H 190.257 3.11214 -0.294068 0
M  V30 2053 H 189.477 2.81291 -2.76169 0
M  V30 2054 H 190.765 3.94278 -3.21593 0
M  V30 2055 H 190.163 5.63297 -0.520899 0
M  V30 2056 H 188.72 6.44363 -0.981842 0
M  V30 2057 N 192.153 1.28127 0.917671 0
M  V30 2058 C 193.063 1.13556 2.05286 0
M  V30 2059 C 194.079 0.0630914 1.73886 0
M  V30 2060 O 195.255 0.271598 1.9956 0
M  V30 2061 C 192.32 0.794676 3.3747 0
M  V30 2062 C 191.381 1.94909 3.82504 0
M  V30 2063 C 190.614 1.62437 5.0838 0
M  V30 2064 O 190.837 0.536905 5.67867 0
M  V30 2065 O 189.771 2.46677 5.4903 0
M  V30 2066 H 193.597 2.08844 2.20495 0
M  V30 2067 H 191.182 1.07409 1.03845 0
M  V30 2068 H 193.064 0.618344 4.16839 0
M  V30 2069 H 191.739 -0.128581 3.23445 0
M  V30 2070 H 190.646 2.18055 3.03978 0
M  V30 2071 H 191.979 2.85291 4.01086 0
M  V30 2072 N 193.631 -1.12557 1.10312 0
M  V30 2073 C 194.578 -2.18247 0.750781 0
M  V30 2074 C 195.548 -1.63853 -0.272293 0
M  V30 2075 O 196.733 -1.90195 -0.151862 0
M  V30 2076 C 193.873 -3.44591 0.187379 0
M  V30 2077 C 192.986 -4.13046 1.2656 0
M  V30 2078 C 192.121 -5.27034 0.663978 0
M  V30 2079 C 191.16 -5.87353 1.72287 0
M  V30 2080 N 190.297 -6.92757 1.1416 0
M  V30 2081 H 195.137 -2.47732 1.65628 0
M  V30 2082 H 192.674 -1.21629 0.827337 0
M  V30 2083 H 194.632 -4.16904 -0.157148 0
M  V30 2084 H 193.262 -3.15527 -0.681355 0
M  V30 2085 H 192.314 -3.38924 1.72727 0
M  V30 2086 H 193.626 -4.53947 2.06721 0
M  V30 2087 H 192.78 -6.06104 0.268824 0
M  V30 2088 H 191.519 -4.87407 -0.169082 0
M  V30 2089 H 190.524 -5.06971 2.12746 0
M  V30 2090 H 191.749 -6.29051 2.55875 0
M  V30 2091 H 189.695 -6.5517 0.329984 0
M  V30 2092 H 189.612 -7.3225 1.88007 0
M  V30 2093 H 190.88 -7.75658 0.772956 0
M  V30 2094 N 195.109 -0.891671 -1.2995 0
M  V30 2095 C 196.057 -0.353066 -2.29905 0
M  V30 2096 C 197.051 0.543509 -1.60444 0
M  V30 2097 O 198.257 0.4272 -1.74857 0
M  V30 2098 H 194.632 -0.095531 -0.745907 0
M  V30 2099 H 196.603 -1.20961 -2.72784 0
M  V30 2100 C 195.352 0.411475 -3.45257 0
M  V30 2101 H 194.675 -0.269182 -3.98893 0
M  V30 2102 H 196.115 0.753328 -4.17254 0
M  V30 2103 C 194.574 1.6111 -2.9588 0
M  V30 2104 O 195.104 2.71045 -2.96475 0
M  V30 2105 N 193.31 1.45054 -2.51809 0
M  V30 2106 H 192.857 0.556175 -2.51524 0
M  V30 2107 H 192.815 2.25453 -2.1913 0
M  V30 2108 N 196.587 1.43421 -0.653314 0
M  V30 2109 C 197.835 2.01414 -0.166415 0
M  V30 2110 C 198.156 1.51803 1.22397 0
M  V30 2111 O 197.426 0.730693 1.81763 0
M  V30 2112 H 196.006 0.744703 -0.0585319 0
M  V30 2113 H 198.668 1.75629 -0.845003 0
M  V30 2114 H 197.764 3.11734 -0.151111 0
M  V30 2115 N 198.065 0.39524 1.52563 0
M  V30 2116 C 199.028 -0.425001 2.25225 0
M  V30 2117 C 200.028 -0.985266 1.27079 0
M  V30 2118 O 201.218 -0.866332 1.5113 0
M  V30 2119 C 198.35 -1.59686 3.01186 0
M  V30 2120 H 199.543 0.211233 2.99155 0
M  V30 2121 H 197.096 0.147472 1.55603 0
M  V30 2122 H 197.831 -2.27035 2.31572 0
M  V30 2123 H 197.616 -1.20176 3.73229 0
M  V30 2124 H 199.106 -2.17743 3.5634 0
M  V30 2125 N 199.544 -1.57102 0.125237 0
M  V30 2126 C 200.79 -1.95697 -0.532035 0
M  V30 2127 C 201.123 -1.009 -1.6593 0
M  V30 2128 O 200.398 -0.047347 -1.94442 0
M  V30 2129 C 200.681 -3.44181 -1.05884 0
M  V30 2130 C 200.534 -4.49752 0.0654392 0
M  V30 2131 C 201.853 -3.94655 -1.9477 0
M  V30 2132 H 198.972 -0.711571 -0.191925 0
M  V30 2133 H 201.614 -1.88923 0.20206 0
M  V30 2134 H 199.764 -3.50085 -1.68442 0
M  V30 2135 H 201.436 -4.55943 0.700982 0
M  V30 2136 H 199.679 -4.27653 0.727709 0
M  V30 2137 H 200.35 -5.50924 -0.344505 0
M  V30 2138 H 202.826 -3.91094 -1.42074 0
M  V30 2139 H 201.702 -4.99057 -2.28546 0
M  V30 2140 H 201.963 -3.35718 -2.87656 0
M  V30 2141 N 201.022 0.148545 -1.56898 0
M  V30 2142 C 202.269 0.861418 -1.83264 0
M  V30 2143 C 202.597 1.81239 -0.705883 0
M  V30 2144 O 201.852 1.93305 0.305212 0
M  V30 2145 C 202.151 1.67064 -3.1595 0
M  V30 2146 C 201.817 0.866591 -4.42494 0
M  V30 2147 C 200.479 0.644762 -4.76861 0
M  V30 2148 C 202.831 0.30418 -5.20312 0
M  V30 2149 C 200.159 -0.15021 -5.86508 0
M  V30 2150 C 202.511 -0.477824 -6.30793 0
M  V30 2151 C 201.175 -0.710244 -6.63711 0
M  V30 2152 H 200.445 0.315215 -0.670612 0
M  V30 2153 H 203.092 0.125142 -1.91091 0
M  V30 2154 H 201.397 2.47698 -3.03567 0
M  V30 2155 H 203.094 2.22566 -3.33565 0
M  V30 2156 H 199.684 1.04955 -4.15551 0
M  V30 2157 H 203.868 0.462844 -4.94137 0
M  V30 2158 H 199.124 -0.339796 -6.10455 0
M  V30 2159 H 203.298 -0.92076 -6.90286 0
M  V30 2160 H 200.925 -1.3281 -7.48509 0
M  V30 2161 N 202.5 1.5196 0.417844 0
M  V30 2162 C 203.746 1.65836 1.16732 0
M  V30 2163 C 204.079 0.382881 1.90388 0
M  V30 2164 O 203.354 -0.618368 1.84408 0
M  V30 2165 C 203.637 2.87466 2.16876 0
M  V30 2166 C 203.49 4.25041 1.47174 0
M  V30 2167 C 204.809 3.04613 3.17646 0
M  V30 2168 H 201.928 0.603515 0.423011 0
M  V30 2169 H 204.57 1.84494 0.454105 0
M  V30 2170 H 202.72 2.71689 2.777 0
M  V30 2171 H 204.392 4.52527 0.895376 0
M  V30 2172 H 202.635 4.26843 0.773806 0
M  V30 2173 H 203.306 5.06176 2.20204 0
M  V30 2174 H 205.782 3.1923 2.66892 0
M  V30 2175 H 204.658 3.91247 3.8499 0
M  V30 2176 H 204.919 2.17541 3.84874 0
M  V30 2177 N 203.978 -0.674533 1.42435 0
M  V30 2178 C 205.255 -1.4305 1.33402 0
M  V30 2179 C 205.635 -2.11081 -0.0284674 0
M  V30 2180 O 204.983 -2.03257 -1.04397 0
M  V30 2181 C 205.193 -2.43272 2.50239 0
M  V30 2182 C 206.541 -3.07907 2.92367 0
M  V30 2183 O 207.565 -2.53599 2.50132 0
M  V30 2184 O 206.424 -4.0632 3.65467 0
M  V30 2185 H 203.518 -0.638076 0.526106 0
M  V30 2186 H 206.064 -0.703235 1.54443 0
M  V30 2187 H 204.836 -1.91803 3.41068 0
M  V30 2188 H 204.459 -3.23479 2.31186 0
M  V30 2189 N 205.456 -1.28612 -0.910864 0
M  V30 2190 C 206.705 -1.15311 -1.65488 0
M  V30 2191 C 207.018 0.296999 -1.93332 0
M  V30 2192 O 208.224 0.551168 -2.65847 0
M  V30 2193 C 206.68 -2.01599 -2.98137 0
M  V30 2194 C 206.288 -3.51367 -2.7793 0
M  V30 2195 C 208.032 -1.96993 -3.76024 0
M  V30 2196 C 205.939 -4.29797 -4.06237 0
M  V30 2197 H 204.869 -0.42796 -0.620779 0
M  V30 2198 H 207.52 -1.53166 -1.01057 0
M  V30 2199 H 205.902 -1.56603 -3.63719 0
M  V30 2200 H 207.076 -4.0434 -2.21011 0
M  V30 2201 H 205.391 -3.57529 -2.13452 0
M  V30 2202 H 207.988 -2.52856 -4.71135 0
M  V30 2203 H 208.331 -0.94733 -4.05378 0
M  V30 2204 H 208.864 -2.39973 -3.17266 0
M  V30 2205 H 205.603 -5.32648 -3.82055 0
M  V30 2206 H 205.123 -3.81596 -4.62757 0
M  V30 2207 H 206.802 -4.39869 -4.74473 0
M  V30 2208 N 206.934 1.1197 -1.10907 0
M  V30 2209 C 208.18 1.8386 -0.855773 0
M  V30 2210 C 208.513 1.84134 0.617103 0
M  V30 2211 O 207.788 1.29041 1.45529 0
M  V30 2212 C 208.071 3.31305 -1.411 0
M  V30 2213 C 207.924 3.39456 -2.9511 0
M  V30 2214 C 209.243 4.2721 -1.05736 0
M  V30 2215 H 206.362 0.667545 -0.312334 0
M  V30 2216 H 209.004 1.31331 -1.37303 0
M  V30 2217 H 207.154 3.76169 -0.97105 0
M  V30 2218 H 208.826 3.03191 -3.47668 0
M  V30 2219 H 207.069 2.79849 -3.31462 0
M  V30 2220 H 207.74 4.43209 -3.29044 0
M  V30 2221 H 210.216 3.90497 -1.43706 0
M  V30 2222 H 209.092 5.28775 -1.47269 0
M  V30 2223 H 209.353 4.42088 0.0325958 0
M  V30 2224 N 208.412 0.89855 1.29475 0
M  V30 2225 C 209.828 0.594483 1.48115 0
M  V30 2226 C 210.028 -0.86431 1.82022 0
M  V30 2227 O 209.084 -1.64457 1.91599 0
M  V30 2228 C 210.397 1.51932 2.59494 0
M  V30 2229 C 211.945 1.5244 2.7337 0
M  V30 2230 C 212.42 2.43548 3.87877 0
M  V30 2231 N 213.911 2.41589 3.95208 0
M  V30 2232 C 214.646 3.08789 4.83153 0
M  V30 2233 N 214.142 3.85265 5.75798 0
M  V30 2234 N 215.935 2.97952 4.76635 0
M  V30 2235 H 208.086 1.84207 1.05742 0
M  V30 2236 H 210.349 0.789251 0.525154 0
M  V30 2237 H 210.055 2.55865 2.41301 0
M  V30 2238 H 209.929 1.23899 3.56271 0
M  V30 2239 H 212.316 0.492518 2.90961 0
M  V30 2240 H 212.397 1.8451 1.77172 0
M  V30 2241 H 212.041 3.46829 3.71041 0
M  V30 2242 H 211.971 2.08788 4.83441 0
M  V30 2243 H 214.462 1.86025 3.28943 0
M  V30 2244 H 214.775 4.33598 6.39697 0
M  V30 2245 H 213.12 3.89371 5.75687 0
M  V30 2246 H 216.311 2.37723 4.03244 0
M  V30 2247 H 216.484 3.50599 5.44962 0
M  V30 2248 N 209.89 -1.43072 0.660911 0
M  V30 2249 C 211.167 -1.95307 0.107017 0
M  V30 2250 C 211.547 -1.60192 -1.37484 0
M  V30 2251 O 210.895 -0.890949 -2.10415 0
M  V30 2252 C 211.105 -3.47124 0.361402 0
M  V30 2253 C 212.453 -4.23738 0.270455 0
M  V30 2254 O 213.477 -3.54981 0.294382 0
M  V30 2255 O 212.336 -5.46131 0.200737 0
M  V30 2256 H 209.43 -0.826984 -0.00517729 0
M  V30 2257 H 211.976 -1.52972 0.734681 0
M  V30 2258 H 210.748 -3.65837 1.38848 0
M  V30 2259 H 210.371 -3.96475 -0.298953 0
M  V30 2260 N 211.368 -0.403325 -1.52352 0
M  V30 2261 C 212.278 0.432009 -2.30588 0
M  V30 2262 C 213.294 1.05884 -1.38075 0
M  V30 2263 O 214.47 1.06161 -1.71148 0
M  V30 2264 C 211.535 1.53669 -3.10784 0
M  V30 2265 C 210.596 0.933525 -4.19027 0
M  V30 2266 C 209.829 1.98557 -4.9539 0
M  V30 2267 O 210.052 3.20283 -4.71991 0
M  V30 2268 O 208.986 1.59504 -5.80381 0
M  V30 2269 H 212.812 -0.205739 -3.03002 0
M  V30 2270 H 210.397 -0.166675 -1.48467 0
M  V30 2271 H 212.279 2.17814 -3.60742 0
M  V30 2272 H 210.954 2.15915 -2.41169 0
M  V30 2273 H 209.861 0.254954 -3.7323 0
M  V30 2274 H 211.194 0.35508 -4.90918 0
M  V30 2275 N 212.846 1.57033 -0.133567 0
M  V30 2276 C 213.809 2.14897 0.796995 0
M  V30 2277 C 214.809 1.0874 1.18458 0
M  V30 2278 O 215.999 1.34446 1.1077 0
M  V30 2279 C 213.131 2.70112 2.07973 0
M  V30 2280 H 214.324 2.98457 0.293873 0
M  V30 2281 H 211.877 1.55871 0.115787 0
M  V30 2282 H 212.612 1.9018 2.62682 0
M  V30 2283 H 212.397 3.47764 1.81115 0
M  V30 2284 H 213.887 3.14738 2.74462 0
M  V30 2285 N 214.325 -0.140222 1.56975 0
M  V30 2286 C 215.275 -1.17827 1.95194 0
M  V30 2287 C 216.259 -1.38195 0.824075 0
M  V30 2288 O 217.451 -1.39643 1.0876 0
M  V30 2289 C 214.58 -2.51024 2.34184 0
M  V30 2290 C 213.666 -2.3422 3.53556 0
M  V30 2291 N 214.057 -1.87185 4.69889 0
M  V30 2292 C 212.355 -2.64949 3.58773 0
M  V30 2293 C 213.056 -1.83586 5.5197 0
M  V30 2294 N 212.032 -2.2715 4.93866 0
M  V30 2295 H 215.834 -0.806817 2.82609 0
M  V30 2296 H 213.348 -0.348208 1.58623 0
M  V30 2297 H 215.345 -3.26074 2.59772 0
M  V30 2298 H 214.005 -2.88945 1.48124 0
M  V30 2299 H 215.016 -1.57048 4.93514 0
M  V30 2300 H 211.693 -3.067 2.8327 0
M  V30 2301 H 213.083 -1.48655 6.55249 0
M  V30 2302 N 215.803 -1.52179 -0.40978 0
M  V30 2303 C 217.08 -1.56769 -1.16974 0
M  V30 2304 C 217.46 -0.348322 -2.08206 0
M  V30 2305 O 216.808 0.664862 -2.18613 0
M  V30 2306 C 217.018 -2.89603 -1.9476 0
M  V30 2307 C 218.366 -3.42579 -2.50849 0
M  V30 2308 O 219.39 -2.91338 -2.04941 0
M  V30 2309 O 218.249 -4.32054 -3.34652 0
M  V30 2310 H 215.343 -0.631439 -0.534054 0
M  V30 2311 H 217.889 -1.64507 -0.416613 0
M  V30 2312 H 216.661 -3.698 -1.27921 0
M  V30 2313 H 216.284 -2.85155 -2.77079 0
M  V30 2314 N 217.281 0.66697 -1.42791 0
M  V30 2315 C 218.244 1.76211 -1.46568 0
M  V30 2316 C 219.244 1.56896 -0.352196 0
M  V30 2317 O 220.434 1.63044 -0.613364 0
M  V30 2318 C 217.566 3.14935 -1.30494 0
M  V30 2319 H 218.759 1.74247 -2.44086 0
M  V30 2320 H 216.312 0.877342 -1.29354 0
M  V30 2321 H 217.047 3.2252 -0.339301 0
M  V30 2322 H 216.832 3.30359 -2.11199 0
M  V30 2323 H 218.322 3.94821 -1.36038 0
M  V30 2324 N 218.759 1.29093 0.90403 0
M  V30 2325 C 220.007 1.16583 1.65085 0
M  V30 2326 C 220.328 -0.283933 1.92922 0
M  V30 2327 O 219.598 -1.19509 1.55224 0
M  V30 2328 H 218.178 0.428467 0.611903 0
M  V30 2329 H 220.84 1.61959 1.08422 0
M  V30 2330 H 219.936 1.71266 2.6091 0
M  V30 2331 N 220.237 -1.11381 1.11499 0
M  V30 2332 C 221.167 -2.19509 0.796125 0
M  V30 2333 C 222.148 -1.68458 -0.235796 0
M  V30 2334 O 223.333 -1.93947 -0.0991344 0
M  V30 2335 C 220.463 -3.46475 0.239205 0
M  V30 2336 C 219.417 -4.10744 1.20307 0
M  V30 2337 C 218.743 -5.32293 0.50683 0
M  V30 2338 C 220.043 -4.55597 2.55399 0
M  V30 2339 H 221.737 -2.46439 1.70024 0
M  V30 2340 H 219.283 -1.18446 0.818935 0
M  V30 2341 H 221.236 -4.214 0.00392006 0
M  V30 2342 H 219.96 -3.19006 -0.700206 0
M  V30 2343 H 218.619 -3.37813 1.42399 0
M  V30 2344 H 218.267 -5.01095 -0.437408 0
M  V30 2345 H 217.967 -5.76243 1.1497 0
M  V30 2346 H 219.491 -6.09956 0.280351 0
M  V30 2347 H 220.905 -5.21841 2.37391 0
M  V30 2348 H 219.302 -5.10363 3.15673 0
M  V30 2349 H 220.372 -3.69013 3.14575 0
M  V30 2350 N 221.715 -0.905404 -1.28997 0
M  V30 2351 C 222.663 -0.377431 -2.29517 0
M  V30 2352 C 223.657 0.526461 -1.61012 0
M  V30 2353 O 224.863 0.40863 -1.753 0
M  V30 2354 H 221.238 -0.103437 -0.744852 0
M  V30 2355 H 223.209 -1.23848 -2.71485 0
M  V30 2356 C 221.958 0.374833 -3.45674 0
M  V30 2357 H 221.281 -0.311474 -3.98585 0
M  V30 2358 H 222.721 0.70903 -4.1803 0
M  V30 2359 C 221.18 1.57963 -2.97572 0
M  V30 2360 O 221.71 2.67886 -2.99333 0
M  V30 2361 N 219.916 1.42375 -2.53333 0
M  V30 2362 H 219.463 0.529466 -2.521 0
M  V30 2363 H 219.421 2.23117 -2.21509 0
M  V30 2364 N 223.193 1.4272 -0.668489 0
M  V30 2365 C 224.442 2.00846 -0.185389 0
M  V30 2366 C 224.755 1.53442 1.21305 0
M  V30 2367 O 225.961 2.03944 1.79218 0
M  V30 2368 C 224.417 3.58805 -0.280591 0
M  V30 2369 C 224.025 4.15198 -1.68268 0
M  V30 2370 C 225.769 4.24255 0.14412 0
M  V30 2371 C 223.676 5.655 -1.73099 0
M  V30 2372 H 222.606 0.751145 -0.0655475 0
M  V30 2373 H 225.257 1.63516 -0.832752 0
M  V30 2374 H 223.639 3.93608 0.434553 0
M  V30 2375 H 224.813 3.91866 -2.42441 0
M  V30 2376 H 223.128 3.62176 -2.05469 0
M  V30 2377 H 225.725 5.34547 0.128086 0
M  V30 2378 H 226.068 3.99277 1.17827 0
M  V30 2379 H 226.601 3.94389 -0.519798 0
M  V30 2380 H 223.34 5.95268 -2.74475 0
M  V30 2381 H 222.86 5.90842 -1.03274 0
M  V30 2382 H 224.539 6.29808 -1.48158 0
M  V30 2383 N 224.671 0.411399 1.52136 0
M  V30 2384 C 225.634 -0.401089 2.25663 0
M  V30 2385 C 226.634 -0.971732 1.28117 0
M  V30 2386 O 227.824 -0.850254 1.52041 0
M  V30 2387 C 224.956 -1.56483 3.02863 0
M  V30 2388 H 226.149 0.24295 2.98914 0
M  V30 2389 H 223.702 0.163968 1.55438 0
M  V30 2390 H 224.437 -2.24567 2.33967 0
M  V30 2391 H 224.222 -1.16211 3.74483 0
M  V30 2392 H 225.712 -2.13951 3.58629 0
M  V30 2393 N 226.149 -1.5696 0.141893 0
M  V30 2394 C 227.396 -1.9596 -0.510492 0
M  V30 2395 C 227.724 -1.02648 -1.65208 0
M  V30 2396 O 226.979 -0.0546947 -1.95624 0
M  V30 2397 C 227.278 -3.41242 -1.06249 0
M  V30 2398 C 226.944 -4.50882 -0.0398791 0
M  V30 2399 C 225.606 -4.80595 0.241247 0
M  V30 2400 C 227.958 -5.17058 0.65578 0
M  V30 2401 C 225.286 -5.73792 1.22393 0
M  V30 2402 C 227.638 -6.11313 1.62724 0
M  V30 2403 C 226.302 -6.39407 1.91612 0
M  V30 2404 H 225.572 -0.717068 -0.186802 0
M  V30 2405 H 228.219 -1.90142 0.227643 0
M  V30 2406 H 226.524 -3.43866 -1.87785 0
M  V30 2407 H 228.221 -3.68742 -1.57576 0
M  V30 2408 H 224.811 -4.27754 -0.269174 0
M  V30 2409 H 228.995 -4.94239 0.451779 0
M  V30 2410 H 224.251 -5.93853 1.45424 0
M  V30 2411 H 228.425 -6.61668 2.17183 0
M  V30 2412 H 226.052 -7.11427 2.6791 0
M  V30 2413 N 227.627 0.131896 -1.57047 0
M  V30 2414 C 228.574 1.16236 -1.99393 0
M  V30 2415 C 229.544 1.41863 -0.863943 0
M  V30 2416 O 230.729 1.53946 -1.12718 0
M  V30 2417 C 227.869 2.48708 -2.39245 0
M  V30 2418 C 226.982 2.30127 -3.65603 0
M  V30 2419 C 226.117 3.55738 -3.94492 0
M  V30 2420 C 225.156 3.32259 -5.14073 0
M  V30 2421 N 224.293 4.50039 -5.38896 0
M  V30 2422 H 229.133 0.794251 -2.87221 0
M  V30 2423 H 226.67 0.380707 -1.42088 0
M  V30 2424 H 228.628 3.25969 -2.60384 0
M  V30 2425 H 227.258 2.83437 -1.54478 0
M  V30 2426 H 226.31 1.43845 -3.52154 0
M  V30 2427 H 227.622 2.08746 -4.5302 0
M  V30 2428 H 226.776 4.41423 -4.1621 0
M  V30 2429 H 225.515 3.80138 -3.05526 0
M  V30 2430 H 224.52 2.44963 -4.92212 0
M  V30 2431 H 225.745 3.09242 -6.04604 0
M  V30 2432 H 223.691 4.74584 -4.52886 0
M  V30 2433 H 223.608 4.31716 -6.2061 0
M  V30 2434 H 224.876 5.36895 -5.65123 0
M  V30 2435 N 229.106 1.52395 0.401703 0
M  V30 2436 C 230.354 1.66488 1.14569 0
M  V30 2437 C 230.675 0.400897 1.90835 0
M  V30 2438 O 229.945 -0.584415 1.8698 0
M  V30 2439 H 228.525 0.613672 0.425929 0
M  V30 2440 H 231.187 1.89464 0.457093 0
M  V30 2441 H 230.283 2.50942 1.85566 0
M  V30 2442 N 230.584 -0.659388 1.43143 0
M  V30 2443 C 231.861 -1.41627 1.34912 0
M  V30 2444 C 232.241 -2.11099 -0.00607785 0
M  V30 2445 O 231.589 -2.04353 -1.02236 0
M  V30 2446 C 231.799 -2.40604 2.52805 0
M  V30 2447 C 233.147 -3.04789 2.95616 0
M  V30 2448 O 234.171 -2.50932 2.52807 0
M  V30 2449 O 233.03 -4.02421 3.69756 0
M  V30 2450 H 230.124 -0.63246 0.532844 0
M  V30 2451 H 232.67 -0.686814 1.5518 0
M  V30 2452 H 231.442 -1.88174 3.43083 0
M  V30 2453 H 231.065 -3.21009 2.34604 0
M  V30 2454 N 232.062 -1.29571 -0.897171 0
M  V30 2455 C 233.311 -1.1706 -1.64256 0
M  V30 2456 C 233.624 0.276476 -1.93636 0
M  V30 2457 O 234.83 0.52294 -2.66416 0
M  V30 2458 C 233.286 -2.0475 -2.95982 0
M  V30 2459 C 232.894 -3.54295 -2.74187 0
M  V30 2460 C 234.638 -2.0097 -3.73914 0
M  V30 2461 C 232.545 -4.34081 -4.01656 0
M  V30 2462 H 231.475 -0.43452 -0.616205 0
M  V30 2463 H 234.126 -1.54229 -0.994268 0
M  V30 2464 H 232.508 -1.60452 -3.62038 0
M  V30 2465 H 233.682 -4.06662 -2.1671 0
M  V30 2466 H 231.997 -3.59773 -2.09648 0
M  V30 2467 H 234.594 -2.57838 -4.68427 0
M  V30 2468 H 234.937 -0.990273 -4.0435 0
M  V30 2469 H 235.47 -2.43325 -3.14703 0
M  V30 2470 H 232.209 -5.36671 -3.76384 0
M  V30 2471 H 231.729 -3.86483 -4.58684 0
M  V30 2472 H 233.408 -4.44877 -4.69781 0
M  V30 2473 N 233.54 1.10788 -1.12088 0
M  V30 2474 C 234.817 1.79136 -0.785476 0
M  V30 2475 C 235.197 1.98246 0.725377 0
M  V30 2476 O 234.545 1.57258 1.65778 0
M  V30 2477 C 234.755 3.12375 -1.55636 0
M  V30 2478 C 236.103 3.8731 -1.74001 0
M  V30 2479 O 237.127 3.22085 -1.52117 0
M  V30 2480 O 235.986 5.04369 -2.10415 0
M  V30 2481 H 233.08 0.776226 -0.285311 0
M  V30 2482 H 235.626 1.1747 -1.2247 0
M  V30 2483 H 234.398 2.93863 -2.5838 0
M  V30 2484 H 234.021 3.81758 -1.11114 0
M  V30 2485 N 235.018 0.912232 1.28515 0
M  V30 2486 C 235.948 0.416403 2.29757 0
M  V30 2487 C 236.929 -0.515194 1.6211 0
M  V30 2488 O 238.114 -0.423253 1.89532 0
M  V30 2489 C 235.244 -0.34572 3.45575 0
M  V30 2490 C 234.198 0.496599 4.25109 0
M  V30 2491 C 233.524 -0.393771 5.33248 0
M  V30 2492 C 234.824 1.75307 4.92001 0
M  V30 2493 H 236.518 1.26249 2.7148 0
M  V30 2494 H 234.064 0.608515 1.30511 0
M  V30 2495 H 236.017 -0.703422 4.15488 0
M  V30 2496 H 234.741 -1.2257 3.02728 0
M  V30 2497 H 233.4 0.8368 3.56922 0
M  V30 2498 H 233.048 -1.27225 4.86644 0
M  V30 2499 H 232.748 0.166209 5.87365 0
M  V30 2500 H 234.272 -0.747389 6.06009 0
M  V30 2501 H 235.686 1.46437 5.54283 0
M  V30 2502 H 234.083 2.25534 5.56106 0
M  V30 2503 H 235.153 2.48176 4.16577 0
M  V30 2504 N 236.496 -1.42363 0.676048 0
M  V30 2505 C 237.443 -2.308 -0.00150904 0
M  V30 2506 C 238.413 -1.46032 -0.791444 0
M  V30 2507 O 239.598 -1.74861 -0.76344 0
M  V30 2508 C 236.738 -3.31883 -0.945919 0
M  V30 2509 C 235.851 -4.31741 -0.149675 0
M  V30 2510 C 234.986 -5.19898 -1.08995 0
M  V30 2511 C 234.025 -6.11434 -0.285465 0
M  V30 2512 N 233.162 -6.92138 -1.17851 0
M  V30 2513 H 238.002 -2.88187 0.758455 0
M  V30 2514 H 235.539 -1.41952 0.38576 0
M  V30 2515 H 237.497 -3.89019 -1.50731 0
M  V30 2516 H 236.127 -2.76093 -1.6725 0
M  V30 2517 H 235.179 -3.76713 0.528359 0
M  V30 2518 H 236.491 -4.96534 0.474866 0
M  V30 2519 H 235.645 -5.81772 -1.72123 0
M  V30 2520 H 234.384 -4.55284 -1.74837 0
M  V30 2521 H 233.389 -5.48627 0.359018 0
M  V30 2522 H 234.614 -6.78097 0.368883 0
M  V30 2523 H 232.56 -6.30152 -1.82332 0
M  V30 2524 H 232.477 -7.53542 -0.609082 0
M  V30 2525 H 233.745 -7.58499 -1.79722 0
M  V30 2526 N 237.974 -0.419461 -1.51915 0
M  V30 2527 C 238.921 0.400927 -2.27291 0
M  V30 2528 C 239.891 1.03224 -1.30131 0
M  V30 2529 O 241.076 1.05455 -1.59009 0
M  V30 2530 C 238.216 1.50603 -3.10504 0
M  V30 2531 C 237.329 0.89462 -4.22635 0
M  V30 2532 C 236.464 1.97328 -4.93189 0
M  V30 2533 C 235.503 1.33935 -5.97267 0
M  V30 2534 N 234.64 2.3586 -6.61298 0
M  V30 2535 H 239.48 -0.248251 -2.96964 0
M  V30 2536 H 237.017 -0.134266 -1.46486 0
M  V30 2537 H 238.975 2.15783 -3.57062 0
M  V30 2538 H 237.605 2.12509 -2.42981 0
M  V30 2539 H 236.657 0.131583 -3.80172 0
M  V30 2540 H 237.969 0.391641 -4.9726 0
M  V30 2541 H 237.123 2.70211 -5.43204 0
M  V30 2542 H 235.862 2.50994 -4.18155 0
M  V30 2543 H 234.867 0.595896 -5.46561 0
M  V30 2544 H 236.092 0.810252 -6.74249 0
M  V30 2545 H 234.038 2.88639 -5.89087 0
M  V30 2546 H 233.955 1.90403 -7.3163 0
M  V30 2547 H 235.223 3.08282 -7.15949 0
M  V30 2548 N 239.452 1.56882 -0.150215 0
M  V30 2549 C 240.382 2.19935 0.784284 0
M  V30 2550 C 241.363 1.14854 1.25469 0
M  V30 2551 O 242.548 1.43209 1.31168 0
M  V30 2552 C 239.678 2.82349 2.02229 0
M  V30 2553 C 238.632 3.93285 1.68853 0
M  V30 2554 C 237.958 4.42649 2.99944 0
M  V30 2555 C 239.258 5.13904 0.932714 0
M  V30 2556 H 240.952 2.9828 0.258781 0
M  V30 2557 H 238.498 1.43473 0.123029 0
M  V30 2558 H 240.451 3.25126 2.68088 0
M  V30 2559 H 239.175 2.0134 2.57157 0
M  V30 2560 H 237.834 3.5113 1.05371 0
M  V30 2561 H 237.482 3.58458 3.52869 0
M  V30 2562 H 237.182 5.17476 2.78374 0
M  V30 2563 H 238.706 4.88099 3.66868 0
M  V30 2564 H 240.12 5.53506 1.49345 0
M  V30 2565 H 238.517 5.94515 0.81684 0
M  V30 2566 H 239.587 4.84842 -0.0749568 0
M  V30 2567 N 240.93 -0.123565 1.57115 0
M  V30 2568 C 241.862 -1.17739 1.96648 0
M  V30 2569 C 242.875 -1.37906 0.865201 0
M  V30 2570 O 244.064 -1.37062 1.14351 0
M  V30 2571 C 241.164 -2.53821 2.24562 0
M  V30 2572 C 240.337 -2.54317 3.55867 0
M  V30 2573 C 239.396 -3.72112 3.72047 0
M  V30 2574 O 238.422 -3.55907 4.44206 0
M  V30 2575 N 239.624 -4.90498 3.10471 0
M  V30 2576 H 242.389 -0.841147 2.87654 0
M  V30 2577 H 239.95 -0.31289 1.58848 0
M  V30 2578 H 241.942 -3.31175 2.32606 0
M  V30 2579 H 240.512 -2.79645 1.39705 0
M  V30 2580 H 239.732 -1.62711 3.59053 0
M  V30 2581 H 241.02 -2.51701 4.42181 0
M  V30 2582 H 240.418 -5.06567 2.51806 0
M  V30 2583 H 238.975 -5.65544 3.24043 0
M  V30 2584 N 242.408 -1.52605 -0.393616 0
M  V30 2585 C 243.355 -1.77055 -1.48054 0
M  V30 2586 C 244.325 -0.61358 -1.54352 0
M  V30 2587 O 245.51 -0.852806 -1.70681 0
M  V30 2588 C 242.65 -1.94108 -2.85335 0
M  V30 2589 C 241.763 -3.21792 -2.88226 0
M  V30 2590 C 240.898 -3.29188 -4.16904 0
M  V30 2591 C 239.937 -4.51013 -4.13828 0
M  V30 2592 N 239.074 -4.55716 -5.34105 0
M  V30 2593 H 243.914 -2.69815 -1.26506 0
M  V30 2594 H 241.451 -1.33683 -0.61379 0
M  V30 2595 H 243.409 -2.01979 -3.65049 0
M  V30 2596 H 242.039 -1.04713 -3.05344 0
M  V30 2597 H 241.091 -3.23015 -2.00911 0
M  V30 2598 H 242.403 -4.11557 -2.8182 0
M  V30 2599 H 241.557 -3.36216 -5.05018 0
M  V30 2600 H 240.296 -2.37389 -4.26026 0
M  V30 2601 H 239.301 -4.44115 -3.24102 0
M  V30 2602 H 240.526 -5.44123 -4.06333 0
M  V30 2603 H 238.472 -3.66807 -5.43865 0
M  V30 2604 H 238.389 -5.39346 -5.29756 0
M  V30 2605 H 239.657 -4.66993 -6.2413 0
M  V30 2606 N 243.887 0.651787 -1.4349 0
M  V30 2607 C 244.817 1.77621 -1.51569 0
M  V30 2608 C 245.798 1.66022 -0.370253 0
M  V30 2609 O 246.983 1.85095 -0.587658 0
M  V30 2610 C 244.113 3.16056 -1.43966 0
M  V30 2611 C 243.067 3.4242 -2.56774 0
M  V30 2612 C 242.393 4.8067 -2.34223 0
M  V30 2613 C 243.693 3.37023 -3.99015 0
M  V30 2614 H 245.387 1.71117 -2.45681 0
M  V30 2615 H 242.933 0.821825 -1.18246 0
M  V30 2616 H 244.886 3.94472 -1.48221 0
M  V30 2617 H 243.61 3.23293 -0.463586 0
M  V30 2618 H 242.269 2.66375 -2.51873 0
M  V30 2619 H 241.917 4.84585 -1.34856 0
M  V30 2620 H 241.617 4.9927 -3.09844 0
M  V30 2621 H 243.141 5.61342 -2.40265 0
M  V30 2622 H 244.555 4.05374 -4.05395 0
M  V30 2623 H 242.952 3.67159 -4.74673 0
M  V30 2624 H 244.022 2.3518 -4.2405 0
M  V30 2625 N 245.365 1.30045 0.890287 0
M  V30 2626 C 246.614 1.17929 1.63633 0
M  V30 2627 C 246.927 -0.266204 1.9378 0
M  V30 2628 O 248.133 -0.508804 2.6669 0
M  V30 2629 C 246.589 2.06317 2.94892 0
M  V30 2630 C 246.197 3.55745 2.72305 0
M  V30 2631 C 247.941 2.0295 3.72843 0
M  V30 2632 C 245.848 4.36205 3.99348 0
M  V30 2633 H 244.778 0.437782 0.613892 0
M  V30 2634 H 247.429 1.54754 0.986075 0
M  V30 2635 H 245.811 1.6237 3.61182 0
M  V30 2636 H 246.985 4.07805 2.1455 0
M  V30 2637 H 245.3 3.6088 2.07737 0
M  V30 2638 H 247.897 2.60319 4.67053 0
M  V30 2639 H 248.24 1.0117 4.0382 0
M  V30 2640 H 248.773 2.4499 3.13408 0
M  V30 2641 H 245.512 5.38659 3.73533 0
M  V30 2642 H 245.032 3.8891 4.56628 0
M  V30 2643 H 246.711 4.47362 4.67415 0
M  V30 2644 N 246.843 -1.10192 1.12674 0
M  V30 2645 C 248.12 -1.78717 0.794965 0
M  V30 2646 C 248.5 -1.98628 -0.714853 0
M  V30 2647 O 247.848 -1.58135 -1.64941 0
M  V30 2648 C 248.058 -3.11546 1.5729 0
M  V30 2649 C 249.406 -3.86382 1.76052 0
M  V30 2650 O 250.43 -3.21274 1.53823 0
M  V30 2651 O 249.289 -5.03246 2.13087 0
M  V30 2652 H 246.383 -0.774702 0.289423 0
M  V30 2653 H 248.929 -1.16819 1.23091 0
M  V30 2654 H 247.701 -2.92489 2.59935 0
M  V30 2655 H 247.324 -3.81164 1.13137 0
M  V30 2656 N 248.321 -0.919034 -1.28029 0
M  V30 2657 C 249.231 -0.416756 -2.30869 0
M  V30 2658 C 250.247 0.498235 -1.66714 0
M  V30 2659 O 251.423 0.383144 -1.97722 0
M  V30 2660 C 248.488 0.330274 -3.45123 0
M  V30 2661 C 247.549 -0.618578 -4.2482 0
M  V30 2662 C 246.782 0.0928959 -5.33619 0
M  V30 2663 O 247.005 1.31375 -5.55065 0
M  V30 2664 O 245.939 -0.574499 -5.99152 0
M  V30 2665 H 249.765 -1.27043 -2.75851 0
M  V30 2666 H 247.35 -0.684052 -1.3282 0
M  V30 2667 H 249.232 0.751972 -4.14636 0
M  V30 2668 H 247.907 1.1597 -3.02213 0
M  V30 2669 H 246.814 -1.08978 -3.57875 0
M  V30 2670 H 248.147 -1.41497 -4.71423 0
M  V30 2671 N 249.799 1.42003 -0.683588 0
M  V30 2672 C 250.746 2.30798 -0.0107309 0
M  V30 2673 C 251.716 1.4645 0.783688 0
M  V30 2674 O 252.901 1.75263 0.754156 0
M  V30 2675 C 250.041 3.3238 0.928306 0
M  V30 2676 C 249.154 4.31814 0.126776 0
M  V30 2677 C 248.289 5.20468 1.06236 0
M  V30 2678 C 247.328 6.11577 0.253035 0
M  V30 2679 N 246.465 6.92754 1.14179 0
M  V30 2680 H 251.305 2.8778 -0.773727 0
M  V30 2681 H 248.842 1.41745 -0.393283 0
M  V30 2682 H 250.8 3.89813 1.48666 0
M  V30 2683 H 249.43 2.76976 1.65783 0
M  V30 2684 H 248.482 3.76427 -0.54833 0
M  V30 2685 H 249.794 4.96276 -0.501192 0
M  V30 2686 H 248.948 5.82677 1.69035 0
M  V30 2687 H 247.687 4.56204 1.7242 0
M  V30 2688 H 246.692 5.48428 -0.388108 0
M  V30 2689 H 247.917 6.77892 -0.404839 0
M  V30 2690 H 245.863 6.3111 1.78987 0
M  V30 2691 H 245.78 7.53855 0.569111 0
M  V30 2692 H 247.048 7.59441 1.75697 0
M  V30 2693 N 251.277 0.427512 1.51691 0
M  V30 2694 C 252.525 -0.141948 2.01601 0
M  V30 2695 C 252.846 -1.44067 1.31414 0
M  V30 2696 O 252.116 -1.90763 0.445658 0
M  V30 2697 H 250.696 -0.0554468 0.744939 0
M  V30 2698 H 253.358 0.567968 1.86441 0
M  V30 2699 H 252.454 -0.324913 3.10404 0
M  V30 2700 N 252.755 -1.56801 0.158532 0
M  V30 2701 C 253.718 -2.16138 -0.762705 0
M  V30 2702 C 254.718 -1.1061 -1.16713 0
M  V30 2703 O 255.908 -1.36191 -1.08617 0
M  V30 2704 C 253.04 -2.73386 -2.03649 0
M  V30 2705 H 254.233 -2.98886 -0.246354 0
M  V30 2706 H 251.786 -1.56035 -0.0909744 0
M  V30 2707 H 252.521 -1.94335 -2.59623 0
M  V30 2708 H 252.306 -3.50601 -1.75559 0
M  V30 2709 H 253.796 -3.19065 -2.6942 0
M  V30 2710 N 254.233 0.115231 -1.57178 0
M  V30 2711 C 255.143 1.15994 -2.03918 0
M  V30 2712 C 256.159 1.45103 -0.960268 0
M  V30 2713 O 257.335 1.56144 -1.27204 0
M  V30 2714 C 254.4 2.46568 -2.43732 0
M  V30 2715 C 253.461 2.24822 -3.65723 0
M  V30 2716 C 252.694 3.4917 -4.03629 0
M  V30 2717 O 252.917 4.56623 -3.41835 0
M  V30 2718 O 251.851 3.39949 -4.96708 0
M  V30 2719 H 255.677 0.793019 -2.93164 0
M  V30 2720 H 253.262 0.3263 -1.45793 0
M  V30 2721 H 255.144 3.23492 -2.70057 0
M  V30 2722 H 253.819 2.82726 -1.57631 0
M  V30 2723 H 252.726 1.45744 -3.44542 0
M  V30 2724 H 254.059 1.93566 -4.52541 0
M  V30 2725 N 255.711 1.52812 0.385517 0
M  V30 2726 C 256.659 1.78482 1.49155 0
M  V30 2727 C 257.653 0.652914 1.56312 0
M  V30 2728 O 258.859 0.835464 1.59436 0
M  V30 2729 H 255.234 0.5648 0.496493 0
M  V30 2730 H 257.205 2.71095 1.24699 0
M  V30 2731 C 255.954 1.97378 2.86247 0
M  V30 2732 H 255.277 2.83907 2.81491 0
M  V30 2733 H 256.717 2.19327 3.62866 0
M  V30 2734 C 255.176 0.74728 3.28508 0
M  V30 2735 O 255.706 -0.0736232 4.01633 0
M  V30 2736 N 253.912 0.576396 2.84826 0
M  V30 2737 H 253.459 1.24555 2.25486 0
M  V30 2738 H 253.417 -0.24288 3.1346 0
M  V30 2739 N 257.189 -0.644168 1.43834 0
M  V30 2740 C 258.438 -1.39985 1.45214 0
M  V30 2741 C 258.751 -1.95421 0.0835494 0
M  V30 2742 O 259.957 -2.71488 -0.0251748 0
M  V30 2743 C 258.413 -2.53384 2.55587 0
M  V30 2744 C 258.021 -2.04517 3.98594 0
M  V30 2745 C 259.765 -3.30685 2.66172 0
M  V30 2746 C 257.672 -3.1518 5.00416 0
M  V30 2747 H 256.602 -0.526005 0.540218 0
M  V30 2748 H 259.253 -0.694367 1.69855 0
M  V30 2749 H 257.635 -3.26446 2.24163 0
M  V30 2750 H 258.809 -1.38405 4.39523 0
M  V30 2751 H 257.124 -1.40068 3.92135 0
M  V30 2752 H 259.721 -4.13158 3.39418 0
M  V30 2753 H 260.064 -3.79312 1.71546 0
M  V30 2754 H 260.597 -2.64708 2.96942 0
M  V30 2755 H 257.336 -2.71511 5.96625 0
M  V30 2756 H 256.856 -3.79974 4.64091 0
M  V30 2757 H 258.535 -3.80166 5.23529 0
M  V30 2758 N 258.668 -1.30515 -0.883378 0
M  V30 2759 C 259.631 -1.1701 -1.97082 0
M  V30 2760 C 260.631 -0.10089 -1.60483 0
M  V30 2761 O 261.821 -0.349127 -1.70666 0
M  V30 2762 C 258.953 -0.793045 -3.31547 0
M  V30 2763 H 260.146 -2.13622 -2.10489 0
M  V30 2764 H 257.699 -1.13935 -1.06998 0
M  V30 2765 H 258.434 0.172499 -3.23841 0
M  V30 2766 H 258.219 -1.56576 -3.5948 0
M  V30 2767 H 259.709 -0.722073 -4.1131 0
M  V30 2768 N 260.146 1.09593 -1.13257 0
M  V30 2769 C 261.376 1.85231 -0.915049 0
M  V30 2770 C 261.784 1.81345 0.539498 0
M  V30 2771 O 261.127 1.20664 1.38513 0
M  V30 2772 C 261.189 3.34275 -1.3229 0
M  V30 2773 C 260.853 3.6191 -2.79052 0
M  V30 2774 C 261.85 3.57777 -3.77216 0
M  V30 2775 C 259.535 3.90309 -3.16171 0
M  V30 2776 C 261.529 3.81652 -5.1051 0
M  V30 2777 C 259.216 4.13839 -4.49644 0
M  V30 2778 C 260.214 4.09502 -5.46623 0
M  V30 2779 O 259.902 4.32426 -6.77689 0
M  V30 2780 H 259.634 0.591997 -0.326367 0
M  V30 2781 H 262.188 1.394 -1.50854 0
M  V30 2782 H 260.418 3.80805 -0.672667 0
M  V30 2783 H 262.107 3.9132 -1.07812 0
M  V30 2784 H 262.873 3.35865 -3.49885 0
M  V30 2785 H 258.752 3.92811 -2.41289 0
M  V30 2786 H 262.296 3.78182 -5.86195 0
M  V30 2787 H 258.193 4.35232 -4.767 0
M  V30 2788 H 258.961 4.49896 -6.83766 0
M  V30 2789 N 261.624 0.925811 1.2754 0
M  V30 2790 C 262.873 0.561084 1.93739 0
M  V30 2791 C 263.186 -0.901685 1.73577 0
M  V30 2792 O 264.392 -1.37511 2.34101 0
M  V30 2793 C 262.848 0.952668 3.47062 0
M  V30 2794 C 262.456 2.43599 3.75983 0
M  V30 2795 C 264.2 0.659103 4.19352 0
M  V30 2796 C 262.107 2.76707 5.22673 0
M  V30 2797 H 261.037 0.206122 0.725279 0
M  V30 2798 H 263.688 1.12637 1.44863 0
M  V30 2799 H 262.07 0.316053 3.94737 0
M  V30 2800 H 263.244 3.12035 3.39073 0
M  V30 2801 H 261.559 2.70125 3.16893 0
M  V30 2802 H 264.156 0.882985 5.27359 0
M  V30 2803 H 264.499 -0.403607 4.14339 0
M  V30 2804 H 265.032 1.25473 3.77494 0
M  V30 2805 H 261.771 3.8188 5.32774 0
M  V30 2806 H 261.291 2.12919 5.60737 0
M  V30 2807 H 262.97 2.6435 5.90532 0
M  V30 2808 N 263.102 -1.41638 0.69111 0
M  V30 2809 C 264.342 -2.03166 0.224291 0
M  V30 2810 C 264.706 -1.53537 -1.15284 0
M  V30 2811 O 265.907 -2.0696 -1.71525 0
M  V30 2812 C 264.178 -3.56342 0.274758 0
M  V30 2813 S 265.737 -4.3864 -0.118669 0
M  V30 2814 H 262.555 -0.705188 0.0907263 0
M  V30 2815 H 265.157 -1.7314 0.907895 0
M  V30 2816 H 263.861 -3.89958 1.2791 0
M  V30 2817 H 263.392 -3.91063 -0.428142 0
M  V30 2818 H 265.407 -4.77549 -1.34764 0
M  V30 2819 N 264.58 -0.43555 -1.51462 0
M  V30 2820 C 265.51 0.367376 -2.30592 0
M  V30 2821 C 266.491 1.02263 -1.35928 0
M  V30 2822 O 267.676 1.02661 -1.64847 0
M  V30 2823 C 264.806 1.46983 -3.14664 0
M  V30 2824 C 263.76 0.938161 -4.17591 0
M  V30 2825 C 263.086 2.13622 -4.90173 0
M  V30 2826 C 264.386 -0.0261621 -5.22293 0
M  V30 2827 H 266.08 -0.292969 -2.97963 0
M  V30 2828 H 263.626 -0.14234 -1.43295 0
M  V30 2829 H 265.579 2.03873 -3.688 0
M  V30 2830 H 264.303 2.15843 -2.4511 0
M  V30 2831 H 262.962 0.391481 -3.64504 0
M  V30 2832 H 262.61 2.81098 -4.17124 0
M  V30 2833 H 262.31 1.78688 -5.59772 0
M  V30 2834 H 263.834 2.7107 -5.47132 0
M  V30 2835 H 265.248 0.452384 -5.71512 0
M  V30 2836 H 263.645 -0.287992 -5.99409 0
M  V30 2837 H 264.715 -0.963391 -4.75233 0
M  V30 2838 N 266.058 1.56714 -0.166846 0
M  V30 2839 C 267.021 2.16539 0.751232 0
M  V30 2840 C 268.021 1.11228 1.16125 0
M  V30 2841 O 269.211 1.36765 1.07894 0
M  V30 2842 C 266.343 2.74462 2.02196 0
M  V30 2843 H 267.536 2.99013 0.230499 0
M  V30 2844 H 265.089 1.56081 0.0826982 0
M  V30 2845 H 265.824 1.95709 2.58589 0
M  V30 2846 H 265.609 3.51527 1.73698 0
M  V30 2847 H 267.099 3.20489 2.67725 0
M  V30 2848 N 267.536 -0.106894 1.57237 0
M  V30 2849 C 268.782 -0.81373 1.85759 0
M  V30 2850 C 269.115 -1.78952 0.754315 0
M  V30 2851 O 268.39 -1.93029 -0.23879 0
M  V30 2852 C 268.673 -1.55293 3.24894 0
M  V30 2853 C 268.526 -0.595929 4.45835 0
M  V30 2854 C 269.845 -2.5063 3.61763 0
M  V30 2855 H 266.964 -0.294369 0.67566 0
M  V30 2856 H 269.606 -0.0776472 1.89841 0
M  V30 2857 H 267.756 -2.1804 3.21544 0
M  V30 2858 H 269.428 0.0236262 4.61294 0
M  V30 2859 H 267.671 0.0916191 4.33703 0
M  V30 2860 H 268.342 -1.15004 5.39887 0
M  V30 2861 H 270.818 -1.97982 3.65981 0
M  V30 2862 H 269.694 -2.99376 4.60071 0
M  V30 2863 H 269.955 -3.3385 2.89821 0
M  V30 2864 N 269.014 -1.53014 -0.377408 0
M  V30 2865 C 270.242 -1.72515 -1.14219 0
M  V30 2866 C 270.657 -0.448735 -1.8339 0
M  V30 2867 O 270.014 0.577592 -1.73119 0
M  V30 2868 C 270.065 -2.8826 -2.18148 0
M  V30 2869 O 269.786 -4.10962 -1.51795 0
M  V30 2870 C 271.287 -3.19536 -3.07264 0
M  V30 2871 H 268.507 -0.577301 -0.342001 0
M  V30 2872 H 271.051 -1.99712 -0.439935 0
M  V30 2873 H 269.206 -2.63492 -2.83991 0
M  V30 2874 H 269.62 -4.75693 -2.20945 0
M  V30 2875 H 271.094 -4.03959 -3.76193 0
M  V30 2876 H 271.571 -2.34403 -3.71419 0
M  V30 2877 H 272.177 -3.46186 -2.47053 0
M  V30 2878 N 270.492 0.636531 -1.44174 0
M  V30 2879 C 271.738 1.39826 -1.4689 0
M  V30 2880 C 272.071 1.93947 -0.0990585 0
M  V30 2881 O 271.346 1.73325 0.882544 0
M  V30 2882 C 271.629 2.56751 -2.5249 0
M  V30 2883 C 271.482 2.08014 -3.98811 0
M  V30 2884 C 272.801 3.58946 -2.54649 0
M  V30 2885 H 269.92 0.507075 -0.53483 0
M  V30 2886 H 272.562 0.720188 -1.75822 0
M  V30 2887 H 270.712 3.14597 -2.2795 0
M  V30 2888 H 272.384 1.5504 -4.34466 0
M  V30 2889 H 270.627 1.39242 -4.10846 0
M  V30 2890 H 271.298 2.92169 -4.68339 0
M  V30 2891 H 273.774 3.1089 -2.76563 0
M  V30 2892 H 272.65 4.38286 -3.3045 0
M  V30 2893 H 272.911 4.12655 -1.58646 0
M  V30 2894 N 271.97 1.30982 0.876444 0
M  V30 2895 C 272.918 1.18006 2.00443 0
M  V30 2896 C 273.912 0.0898871 1.69161 0
M  V30 2897 O 275.118 0.251333 1.78237 0
M  V30 2898 H 271.493 0.365196 0.65737 0
M  V30 2899 H 273.464 2.13453 2.0852 0
M  V30 2900 C 272.213 0.897521 3.35916 0
M  V30 2901 H 271.536 1.7285 3.60504 0
M  V30 2902 H 272.976 0.846874 4.15456 0
M  V30 2903 C 271.435 -0.399674 3.34521 0
M  V30 2904 O 271.965 -1.41852 3.7582 0
M  V30 2905 N 270.171 -0.413893 2.87637 0
M  V30 2906 H 269.718 0.41571 2.54224 0
M  V30 2907 H 269.676 -1.28175 2.87086 0
M  V30 2908 N 273.449 -1.08991 1.13837 0
M  V30 2909 C 274.379 -2.17771 0.842507 0
M  V30 2910 C 275.36 -1.6892 -0.20001 0
M  V30 2911 O 276.545 -1.94113 -0.0579731 0
M  V30 2912 C 273.675 -3.4589 0.312644 0
M  V30 2913 C 272.629 -4.08099 1.28992 0
M  V30 2914 C 271.955 -5.31098 0.619623 0
M  V30 2915 C 273.255 -4.50077 2.65005 0
M  V30 2916 H 274.949 -2.42777 1.75213 0
M  V30 2917 H 272.495 -1.16682 0.843875 0
M  V30 2918 H 274.448 -4.21297 0.0933043 0
M  V30 2919 H 273.172 -3.20419 -0.632382 0
M  V30 2920 H 271.831 -3.34717 1.49533 0
M  V30 2921 H 271.479 -5.0191 -0.33102 0
M  V30 2922 H 271.179 -5.73674 1.27167 0
M  V30 2923 H 272.703 -6.09224 0.409669 0
M  V30 2924 H 274.117 -5.16688 2.48407 0
M  V30 2925 H 272.514 -5.03553 3.26427 0
M  V30 2926 H 273.584 -3.62257 3.22332 0
M  V30 2927 N 274.927 -0.932562 -1.27047 0
M  V30 2928 C 275.89 -0.440064 -2.24936 0
M  V30 2929 C 276.89 0.444071 -1.54547 0
M  V30 2930 O 278.08 0.244465 -1.72476 0
M  V30 2931 C 275.212 0.36678 -3.38921 0
M  V30 2932 H 276.405 -1.305 -2.70018 0
M  V30 2933 H 273.958 -0.713707 -1.39054 0
M  V30 2934 H 274.693 1.25033 -2.99228 0
M  V30 2935 H 274.478 -0.267204 -3.91188 0
M  V30 2936 H 275.968 0.701567 -4.11665 0
M  V30 2937 N 276.405 1.4127 -0.698611 0
M  V30 2938 C 277.653 2.00782 -0.230409 0
M  V30 2939 C 277.974 1.5562 1.17505 0
M  V30 2940 O 277.244 0.78815 1.79346 0
M  V30 2941 H 275.824 0.742464 -0.0821944 0
M  V30 2942 H 278.486 1.72852 -0.90045 0
M  V30 2943 H 277.582 3.11095 -0.25021 0
M  V30 2944 N 277.883 0.443576 1.51229 0
M  V30 2945 C 279.131 -0.120557 2.0174 0
M  V30 2946 C 279.452 -1.42665 1.32935 0
M  V30 2947 O 278.722 -1.9028 0.465866 0
M  V30 2948 H 277.302 -0.0475426 0.745486 0
M  V30 2949 H 279.964 0.587711 1.85828 0
M  V30 2950 H 279.06 -0.291972 3.10731 0
M  V30 2951 N 279.361 -1.56624 0.175154 0
M  V30 2952 C 280.293 -2.15333 -0.785128 0
M  V30 2953 C 281.306 -1.1099 -1.19101 0
M  V30 2954 O 282.495 -1.38162 -1.13019 0
M  V30 2955 C 279.595 -2.68427 -2.06882 0
M  V30 2956 C 278.768 -3.97466 -1.8259 0
M  V30 2957 C 277.827 -4.35585 -2.95215 0
M  V30 2958 O 276.853 -5.03389 -2.65684 0
M  V30 2959 N 278.055 -3.97457 -4.23094 0
M  V30 2960 H 280.82 -2.98359 -0.283187 0
M  V30 2961 H 278.381 -1.61898 -0.00749817 0
M  V30 2962 H 280.373 -2.90924 -2.81328 0
M  V30 2963 H 278.943 -1.89968 -2.48256 0
M  V30 2964 H 278.163 -3.83307 -0.920287 0
M  V30 2965 H 279.451 -4.81736 -1.63733 0
M  V30 2966 H 278.849 -3.42878 -4.49945 0
M  V30 2967 H 277.406 -4.24947 -4.9423 0
M  V30 2968 N 280.839 0.0985539 -1.57292 0
M  V30 2969 C 282.25 0.653457 -1.74891 0
M  V30 2970 C 282.601 1.7929 -0.796838 0
M  V30 2971 O 281.726 2.16385 0.0254886 0
M  V30 2972 C 282.321 1.19216 -3.17133 0
M  V30 2973 C 280.88 1.69316 -3.36168 0
M  V30 2974 C 280.027 0.601294 -2.70702 0
M  V30 2975 H 282.978 -0.127497 -1.58187 0
M  V30 2976 H 282.999 2.06154 -3.19814 0
M  V30 2977 H 282.511 0.362635 -3.86402 0
M  V30 2978 H 280.612 2.5468 -2.71972 0
M  V30 2979 H 280.725 1.78853 -4.44464 0
M  V30 2980 H 279.089 1.0399 -2.32504 0
M  V30 2981 H 279.872 -0.217592 -3.4261 0
M  V30 2982 N 282.317 1.53212 0.369288 0
M  V30 2983 C 283.563 1.69466 1.11397 0
M  V30 2984 C 283.896 0.443257 1.89074 0
M  V30 2985 O 283.171 -0.559386 1.86282 0
M  V30 2986 C 283.454 2.9422 2.07621 0
M  V30 2987 C 283.307 4.29508 1.33577 0
M  V30 2988 C 284.626 3.14565 3.07794 0
M  V30 2989 H 281.745 0.616667 0.403597 0
M  V30 2990 H 284.387 1.85845 0.395179 0
M  V30 2991 H 282.537 2.80387 2.68916 0
M  V30 2992 H 284.209 4.55147 0.750955 0
M  V30 2993 H 282.452 4.29088 0.637618 0
M  V30 2994 H 283.123 5.12926 2.03989 0
M  V30 2995 H 285.599 3.2756 2.56601 0
M  V30 2996 H 284.475 4.03297 3.72348 0
M  V30 2997 H 284.736 2.29675 3.77759 0
M  V30 2998 N 283.795 -0.628877 1.44509 0
M  V30 2999 C 285.02 -1.42048 1.5112 0
M  V30 3000 C 285.445 -1.87594 0.137818 0
M  V30 3001 O 284.803 -1.58873 -0.873437 0
M  V30 3002 C 284.851 -2.61541 2.48251 0
M  V30 3003 O 283.955 -3.61453 1.98559 0
M  V30 3004 H 283.296 -0.424942 0.510216 0
M  V30 3005 H 285.826 -0.767374 1.89664 0
M  V30 3006 H 285.836 -3.09057 2.66361 0
M  V30 3007 H 284.511 -2.27736 3.48007 0
M  V30 3008 H 283.088 -3.20731 1.90227 0
M  V30 3009 N 285.273 -1.31445 -0.869486 0
M  V30 3010 C 286.206 -1.13465 -1.97992 0
M  V30 3011 C 287.184 -0.0380291 -1.62556 0
M  V30 3012 O 288.368 -0.194544 -1.87493 0
M  V30 3013 C 285.495 -0.733822 -3.30655 0
M  V30 3014 C 284.541 -1.83356 -3.85075 0
M  V30 3015 S 285.374 -3.43909 -4.10472 0
M  V30 3016 C 286.53 -3.05763 -5.46132 0
M  V30 3017 H 286.763 -2.07471 -2.1294 0
M  V30 3018 H 284.296 -1.15936 -1.01972 0
M  V30 3019 H 286.254 -0.509306 -4.07328 0
M  V30 3020 H 284.915 0.187123 -3.13542 0
M  V30 3021 H 284.108 -1.50574 -4.80982 0
M  V30 3022 H 283.71 -2.01315 -3.15195 0
M  V30 3023 H 286.002 -2.54686 -6.27807 0
M  V30 3024 H 286.945 -4.00635 -5.83864 0
M  V30 3025 H 287.353 -2.43192 -5.09429 0
M  V30 3026 N 286.751 1.08385 -1.14413 0
M  V30 3027 C 287.714 2.13486 -0.834048 0
M  V30 3028 C 288.714 1.59988 0.161418 0
M  V30 3029 O 289.904 1.74071 -0.0669575 0
M  V30 3030 C 287.036 3.4003 -0.243354 0
M  V30 3031 H 288.229 2.42425 -1.7655 0
M  V30 3032 H 285.782 1.24101 -0.950189 0
M  V30 3033 H 286.517 3.16726 0.696807 0
M  V30 3034 H 286.302 3.80157 -0.960367 0
M  V30 3035 H 287.792 4.17577 -0.0436242 0
M  V30 3036 N 288.23 0.939286 1.26551 0
M  V30 3037 C 289.178 0.43815 2.28436 0
M  V30 3038 C 290.172 -0.483587 1.62351 0
M  V30 3039 O 291.378 -0.362009 1.76322 0
M  V30 3040 H 287.753 0.123149 0.741848 0
M  V30 3041 H 289.724 1.31002 2.68106 0
M  V30 3042 C 288.473 -0.283052 3.46546 0
M  V30 3043 H 287.796 0.417043 3.97619 0
M  V30 3044 H 289.236 -0.597948 4.19763 0
M  V30 3045 C 287.695 -1.50018 3.01656 0
M  V30 3046 O 288.225 -2.59855 3.0633 0
M  V30 3047 N 286.431 -1.35608 2.57019 0
M  V30 3048 H 285.978 -0.46244 2.53415 0
M  V30 3049 H 285.936 -2.17165 2.27347 0
M  V30 3050 N 289.708 -1.40897 0.706093 0
M  V30 3051 C 290.641 -2.282 -0.00328781 0
M  V30 3052 C 291.619 -1.42816 -0.77732 0
M  V30 3053 O 292.803 -1.72237 -0.765944 0
M  V30 3054 C 289.93 -3.23226 -1.01205 0
M  V30 3055 C 288.976 -4.25222 -0.329955 0
M  V30 3056 S 289.809 -5.27269 0.935298 0
M  V30 3057 C 290.965 -6.25859 -0.0716061 0
M  V30 3058 H 291.198 -2.88016 0.737143 0
M  V30 3059 H 288.731 -1.46191 0.496756 0
M  V30 3060 H 290.689 -3.78503 -1.58888 0
M  V30 3061 H 289.35 -2.62485 -1.72513 0
M  V30 3062 H 288.543 -4.92023 -1.09221 0
M  V30 3063 H 288.145 -3.73595 0.174069 0
M  V30 3064 H 290.437 -6.71204 -0.921521 0
M  V30 3065 H 291.38 -7.0586 0.562765 0
M  V30 3066 H 291.788 -5.62852 -0.431088 0
M  V30 3067 N 291.186 -0.45159 -1.50991 0
M  V30 3068 C 292.602 -0.104647 -1.59257 0
M  V30 3069 C 292.802 1.38728 -1.4614 0
M  V30 3070 O 291.858 2.15866 -1.30989 0
M  V30 3071 C 293.171 -0.637468 -2.93865 0
M  V30 3072 C 294.719 -0.599166 -3.07212 0
M  V30 3073 C 295.194 -1.1092 -4.44366 0
M  V30 3074 N 296.685 -1.06778 -4.50725 0
M  V30 3075 C 297.42 -1.43314 -5.55201 0
M  V30 3076 N 296.916 -1.87204 -6.67028 0
M  V30 3077 N 298.709 -1.3504 -5.45638 0
M  V30 3078 H 290.86 -1.42214 -1.57762 0
M  V30 3079 H 293.123 -0.586921 -0.744465 0
M  V30 3080 H 292.829 -1.68187 -3.08879 0
M  V30 3081 H 292.703 -0.0702139 -3.77135 0
M  V30 3082 H 295.09 0.436277 -2.91857 0
M  V30 3083 H 295.171 -1.20299 -2.25747 0
M  V30 3084 H 294.815 -2.14318 -4.60467 0
M  V30 3085 H 294.745 -0.481773 -5.24392 0
M  V30 3086 H 297.236 -0.745643 -3.70471 0
M  V30 3087 H 297.549 -2.13282 -7.42786 0
M  V30 3088 H 295.894 -1.91142 -6.68199 0
M  V30 3089 H 299.085 -1.00607 -4.57161 0
M  V30 3090 H 299.258 -1.63841 -6.26945 0
M  V30 3091 N 292.664 1.56529 -0.183458 0
M  V30 3092 C 293.627 2.17324 0.728223 0
M  V30 3093 C 294.627 1.12453 1.14939 0
M  V30 3094 O 295.817 1.37902 1.06437 0
M  V30 3095 C 292.949 2.76591 1.99274 0
M  V30 3096 H 294.142 2.99241 0.198772 0
M  V30 3097 H 291.695 1.5616 0.0661391 0
M  V30 3098 H 292.43 1.98441 2.56499 0
M  V30 3099 H 292.215 3.5335 1.69959 0
M  V30 3100 H 293.705 3.23311 2.6431 0
M  V30 3101 N 294.142 -0.090211 1.57342 0
M  V30 3102 C 295.388 -0.793982 1.86611 0
M  V30 3103 C 295.721 -1.78142 0.773252 0
M  V30 3104 O 294.996 -1.93271 -0.218304 0
M  V30 3105 C 295.279 -1.51839 3.26523 0
M  V30 3106 C 295.132 -0.548609 4.46442 0
M  V30 3107 C 296.451 -2.46779 3.64401 0
M  V30 3108 H 293.57 -0.287186 0.678744 0
M  V30 3109 H 296.212 -0.0575076 1.89913 0
M  V30 3110 H 294.362 -2.14617 3.23839 0
M  V30 3111 H 296.034 0.0725513 4.61243 0
M  V30 3112 H 294.277 0.137614 4.33582 0
M  V30 3113 H 294.948 -1.09271 5.41076 0
M  V30 3114 H 297.424 -1.94089 3.68061 0
M  V30 3115 H 296.3 -2.94479 4.63221 0
M  V30 3116 H 296.561 -3.30758 2.93346 0
M  V30 3117 N 295.62 -1.53406 -0.361157 0
M  V30 3118 C 297.036 -1.43277 -0.703124 0
M  V30 3119 C 297.236 -0.575384 -1.9311 0
M  V30 3120 O 296.292 -0.0595362 -2.5243 0
M  V30 3121 C 297.605 -2.8653 -0.9122 0
M  V30 3122 C 299.153 -2.96191 -1.01193 0
M  V30 3123 C 299.628 -4.40514 -1.25345 0
M  V30 3124 N 301.119 -4.43962 -1.32105 0
M  V30 3125 C 301.854 -5.52746 -1.5251 0
M  V30 3126 N 301.35 -6.71567 -1.70203 0
M  V30 3127 N 303.143 -5.40331 -1.54916 0
M  V30 3128 H 295.294 -2.07654 0.446475 0
M  V30 3129 H 297.557 -0.937944 0.137715 0
M  V30 3130 H 297.263 -3.51605 -0.0816414 0
M  V30 3131 H 297.137 -3.30441 -1.81903 0
M  V30 3132 H 299.524 -2.31266 -1.83303 0
M  V30 3133 H 299.605 -2.55667 -0.0823929 0
M  V30 3134 H 299.249 -5.06014 -0.437346 0
M  V30 3135 H 299.179 -4.78614 -2.19627 0
M  V30 3136 H 301.67 -3.58332 -1.20028 0
M  V30 3137 H 301.983 -7.50241 -1.85359 0
M  V30 3138 H 300.328 -6.74545 -1.67373 0
M  V30 3139 H 303.519 -4.46465 -1.40663 0
M  V30 3140 H 303.692 -6.25173 -1.70477 0
M  V30 3141 N 297.098 0.621204 -1.44841 0
M  V30 3142 C 298.008 1.7612 -1.5498 0
M  V30 3143 C 299.024 1.68477 -0.434927 0
M  V30 3144 O 300.2 1.89076 -0.693693 0
M  V30 3145 C 297.265 3.1254 -1.50065 0
M  V30 3146 C 296.326 3.31741 -2.72482 0
M  V30 3147 C 295.559 4.61653 -2.67792 0
M  V30 3148 O 295.782 5.431 -1.74352 0
M  V30 3149 O 294.716 4.83271 -3.58794 0
M  V30 3150 H 298.542 1.70518 -2.51311 0
M  V30 3151 H 296.127 0.783643 -1.27198 0
M  V30 3152 H 298.009 3.93844 -1.49882 0
M  V30 3153 H 296.684 3.18663 -0.568806 0
M  V30 3154 H 295.591 2.50077 -2.7823 0
M  V30 3155 H 296.924 3.30486 -3.64746 0
M  V30 3156 N 298.576 1.31904 0.862503 0
M  V30 3157 C 299.506 1.22782 1.98612 0
M  V30 3158 C 300.487 0.113362 1.69722 0
M  V30 3159 O 301.672 0.299218 1.91881 0
M  V30 3160 C 298.802 0.942058 3.34279 0
M  V30 3161 C 297.756 2.0169 3.77499 0
M  V30 3162 C 297.082 1.58369 5.10709 0
M  V30 3163 C 298.382 3.43096 3.93805 0
M  V30 3164 H 300.076 2.16788 2.06502 0
M  V30 3165 H 297.622 1.04366 0.992154 0
M  V30 3166 H 299.575 0.864818 4.1243 0
M  V30 3167 H 298.299 -0.0336603 3.26583 0
M  V30 3168 H 296.958 2.08416 3.01593 0
M  V30 3169 H 296.606 0.595628 4.99461 0
M  V30 3170 H 296.306 2.30279 5.40597 0
M  V30 3171 H 297.83 1.52067 5.91361 0
M  V30 3172 H 299.244 3.39003 4.62331 0
M  V30 3173 H 297.641 4.13288 4.35101 0
M  V30 3174 H 298.711 3.83334 2.96957 0
M  V30 3175 N 300.054 -1.07777 1.14986 0
M  V30 3176 C 301.282 -1.84018 0.945773 0
M  V30 3177 C 301.697 -1.81897 -0.505863 0
M  V30 3178 O 301.054 -1.22726 -1.35072 0
M  V30 3179 C 301.105 -3.31287 1.44677 0
M  V30 3180 O 300.826 -3.33449 2.84154 0
M  V30 3181 C 302.327 -4.24311 1.28355 0
M  V30 3182 H 299.547 -0.580716 0.336169 0
M  V30 3183 H 302.091 -1.36077 1.52654 0
M  V30 3184 H 300.246 -3.76594 0.908625 0
M  V30 3185 H 300.66 -4.25427 3.06777 0
M  V30 3186 H 302.134 -5.2573 1.68261 0
M  V30 3187 H 302.611 -4.38612 0.227184 0
M  V30 3188 H 303.217 -3.84836 1.81056 0
M  V30 3189 N 301.532 -0.945985 -1.26051 0
M  V30 3190 C 302.442 -0.465633 -2.29933 0
M  V30 3191 C 303.458 0.462761 -1.67733 0
M  V30 3192 O 304.634 0.341118 -1.9849 0
M  V30 3193 C 301.699 0.256994 -3.45746 0
M  V30 3194 C 300.76 -0.708549 -4.23412 0
M  V30 3195 C 299.993 -0.0203135 -5.33696 0
M  V30 3196 O 300.216 1.19571 -5.57726 0
M  V30 3197 O 299.15 -0.701459 -5.97799 0
M  V30 3198 H 302.976 -1.32866 -2.73094 0
M  V30 3199 H 300.561 -0.712071 -1.31339 0
M  V30 3200 H 302.443 0.663852 -4.16138 0
M  V30 3201 H 301.118 1.09533 -3.04605 0
M  V30 3202 H 300.025 -1.16545 -3.55483 0
M  V30 3203 H 301.358 -1.51465 -4.68315 0
M  V30 3204 N 303.011 1.40521 -0.713556 0
M  V30 3205 C 303.974 2.29098 -0.0684347 0
M  V30 3206 C 304.974 1.45268 0.689472 0
M  V30 3207 O 306.164 1.66205 0.521677 0
M  V30 3208 C 303.296 3.28446 0.913024 0
M  V30 3209 H 304.489 2.87645 -0.84855 0
M  V30 3210 H 302.042 1.48809 -0.47809 0
M  V30 3211 H 302.777 2.74913 1.72027 0
M  V30 3212 H 302.562 3.90327 0.372472 0
M  V30 3213 H 304.052 3.94777 1.36165 0
M  V30 3214 N 304.489 0.459591 1.5075 0
M  V30 3215 C 305.439 -0.358926 2.25157 0
M  V30 3216 C 306.423 -0.971285 1.28276 0
M  V30 3217 O 307.615 -0.885739 1.53244 0
M  V30 3218 C 304.744 -1.44695 3.11317 0
M  V30 3219 C 303.83 -0.842894 4.15639 0
M  V30 3220 N 304.221 0.0299373 5.05791 0
M  V30 3221 C 302.519 -1.10809 4.32015 0
M  V30 3222 C 303.22 0.371563 5.80512 0
M  V30 3223 N 302.196 -0.250409 5.43023 0
M  V30 3224 H 305.998 0.313636 2.92222 0
M  V30 3225 H 303.512 0.273021 1.60089 0
M  V30 3226 H 305.509 -2.04641 3.63218 0
M  V30 3227 H 304.169 -2.12162 2.45799 0
M  V30 3228 H 305.18 0.39797 5.16369 0
M  V30 3229 H 301.857 -1.7786 3.77719 0
M  V30 3230 H 303.247 1.08319 6.63111 0
M  V30 3231 N 305.967 -1.56429 0.191757 0
M  V30 3232 C 307.215 -1.97095 -0.447006 0
M  V30 3233 C 307.536 -1.07967 -1.62383 0
M  V30 3234 O 306.806 -0.150248 -1.95323 0
M  V30 3235 H 305.386 -0.727832 -0.168135 0
M  V30 3236 H 308.048 -1.92911 0.27771 0
M  V30 3237 H 307.144 -3.01848 -0.793371 0
M  V30 3238 N 307.445 0.0818655 -1.57387 0
M  V30 3239 C 308.694 0.781681 -1.85937 0
M  V30 3240 C 309.007 1.79246 -0.782957 0
M  V30 3241 O 310.213 2.54112 -0.955987 0
M  V30 3242 C 308.669 1.44109 -3.29789 0
M  V30 3243 C 308.277 0.469396 -4.45534 0
M  V30 3244 C 310.021 2.12386 -3.67549 0
M  V30 3245 C 307.928 1.13415 -5.80423 0
M  V30 3246 H 306.858 0.295682 -0.693605 0
M  V30 3247 H 309.509 0.0348051 -1.83467 0
M  V30 3248 H 307.891 2.23588 -3.2684 0
M  V30 3249 H 309.065 -0.294856 -4.59856 0
M  V30 3250 H 307.38 -0.108383 -4.16259 0
M  V30 3251 H 309.977 2.62878 -4.65617 0
M  V30 3252 H 310.32 2.91877 -2.96839 0
M  V30 3253 H 310.853 1.39751 -3.72444 0
M  V30 3254 H 307.592 0.379771 -6.54399 0
M  V30 3255 H 307.112 1.8695 -5.69921 0
M  V30 3256 H 308.791 1.65686 -6.25426 0
M  V30 3257 N 308.923 1.53595 0.353017 0
M  V30 3258 C 309.87 1.80919 1.43308 0
M  V30 3259 C 310.84 0.654288 1.5267 0
M  V30 3260 O 312.025 0.897759 1.6836 0
M  V30 3261 C 309.165 2.01605 2.80089 0
M  V30 3262 C 308.278 3.29321 2.79593 0
M  V30 3263 C 307.413 3.40125 4.0803 0
M  V30 3264 C 306.452 4.61826 4.01725 0
M  V30 3265 N 305.589 4.69716 5.21834 0
M  V30 3266 H 310.429 2.73074 1.19308 0
M  V30 3267 H 307.966 1.35263 0.578131 0
M  V30 3268 H 309.924 2.11586 3.59565 0
M  V30 3269 H 308.554 1.12772 3.0246 0
M  V30 3270 H 307.606 3.28229 1.92276 0
M  V30 3271 H 308.918 4.18884 2.70809 0
M  V30 3272 H 308.072 3.49488 4.95927 0
M  V30 3273 H 306.811 2.48601 4.19582 0
M  V30 3274 H 305.816 4.52552 3.12213 0
M  V30 3275 H 307.041 5.54705 3.91764 0
M  V30 3276 H 304.987 3.81097 5.33948 0
M  V30 3277 H 304.904 5.53202 5.1527 0
M  V30 3278 H 306.172 4.83376 6.11529 0
M  V30 3279 N 310.401 -0.613514 1.45168 0
M  V30 3280 C 311.647 -1.37471 1.49096 0
M  V30 3281 C 311.98 -1.93765 0.129901 0
M  V30 3282 O 311.255 -1.74707 -0.854858 0
M  V30 3283 C 311.538 -2.52701 2.56542 0
M  V30 3284 C 311.391 -2.01643 4.0207 0
M  V30 3285 C 312.71 -3.54849 2.60327 0
M  V30 3286 H 309.829 -0.498502 0.54283 0
M  V30 3287 H 312.471 -0.692125 1.76945 0
M  V30 3288 H 310.621 -3.10931 2.32926 0
M  V30 3289 H 312.293 -1.48108 4.36877 0
M  V30 3290 H 310.536 -1.32688 4.13009 0
M  V30 3291 H 311.207 -2.84681 4.72928 0
M  V30 3292 H 313.683 -3.0645 2.81474 0
M  V30 3293 H 312.559 -4.32973 3.37381 0
M  V30 3294 H 312.82 -4.10079 1.6519 0
M  V30 3295 N 311.879 -1.3236 -0.855495 0
M  V30 3296 C 313.126 -1.22872 -1.60962 0
M  V30 3297 C 313.454 0.209658 -1.93367 0
M  V30 3298 O 312.709 1.16243 -1.57436 0
M  V30 3299 C 313.008 -2.03275 -2.93963 0
M  V30 3300 C 312.674 -3.5264 -2.80991 0
M  V30 3301 C 311.336 -3.93364 -2.7716 0
M  V30 3302 C 313.688 -4.47626 -2.66983 0
M  V30 3303 C 311.016 -5.27319 -2.572 0
M  V30 3304 C 313.368 -5.81723 -2.48558 0
M  V30 3305 C 312.032 -6.2165 -2.4312 0
M  V30 3306 H 311.302 -0.44962 -0.589001 0
M  V30 3307 H 313.949 -1.63777 -0.992442 0
M  V30 3308 H 312.254 -1.55095 -3.59795 0
M  V30 3309 H 313.951 -1.93303 -3.51333 0
M  V30 3310 H 310.541 -3.20295 -2.84797 0
M  V30 3311 H 314.725 -4.17084 -2.68988 0
M  V30 3312 H 309.981 -5.57311 -2.51424 0
M  V30 3313 H 314.155 -6.5494 -2.36699 0
M  V30 3314 H 311.782 -7.25388 -2.27412 0
M  V30 3315 N 313.357 1.07166 -1.15556 0
M  V30 3316 C 314.587 1.83248 -0.954133 0
M  V30 3317 C 314.995 1.82449 0.500911 0
M  V30 3318 O 314.338 1.23575 1.35923 0
M  V30 3319 C 314.4 3.31393 -1.39351 0
M  V30 3320 C 314.064 3.5591 -2.86666 0
M  V30 3321 C 315.061 3.49695 -3.8472 0
M  V30 3322 C 312.746 3.83515 -3.24379 0
M  V30 3323 C 314.74 3.70737 -5.18491 0
M  V30 3324 C 312.427 4.04209 -4.58321 0
M  V30 3325 C 313.425 3.97815 -5.55186 0
M  V30 3326 O 313.113 4.17954 -6.86709 0
M  V30 3327 H 312.845 0.584941 -0.338851 0
M  V30 3328 H 315.399 1.36169 -1.53777 0
M  V30 3329 H 313.629 3.79292 -0.75329 0
M  V30 3330 H 315.318 3.88945 -1.16089 0
M  V30 3331 H 316.084 3.28368 -3.56931 0
M  V30 3332 H 311.963 3.87605 -2.49567 0
M  V30 3333 H 315.507 3.65663 -5.94085 0
M  V30 3334 H 311.404 4.25023 -4.85825 0
M  V30 3335 H 312.172 4.35291 -6.93155 0
M  V30 3336 N 314.835 0.952656 1.25548 0
M  V30 3337 C 316.112 0.523818 1.88456 0
M  V30 3338 C 316.492 -0.998871 1.85973 0
M  V30 3339 O 315.84 -1.86381 1.3219 0
M  V30 3340 C 316.05 1.0982 3.31271 0
M  V30 3341 C 317.398 1.17385 4.08051 0
M  V30 3342 O 318.422 1.04961 3.40384 0
M  V30 3343 O 317.281 1.36852 5.29088 0
M  V30 3344 H 314.375 0.172485 0.808813 0
M  V30 3345 H 316.921 1.04596 1.33633 0
M  V30 3346 H 315.693 2.1415 3.27499 0
M  V30 3347 H 315.316 0.559191 3.93648 0
M  V30 3348 N 316.313 -1.40141 0.720998 0
M  V30 3349 C 317.276 -2.29058 0.0805834 0
M  V30 3350 C 318.276 -1.45632 -0.681758 0
M  V30 3351 O 319.466 -1.6648 -0.512856 0
M  V30 3352 C 316.598 -3.28925 -0.895593 0
M  V30 3353 H 317.791 -2.87191 0.863793 0
M  V30 3354 H 315.344 -1.48553 0.485975 0
M  V30 3355 H 316.079 -2.75822 -1.70566 0
M  V30 3356 H 315.864 -3.90519 -0.351766 0
M  V30 3357 H 317.354 -3.95494 -1.34069 0
M  V30 3358 N 317.792 -0.46758 -1.50504 0
M  V30 3359 C 319.02 0.0864133 -2.06719 0
M  V30 3360 C 319.435 1.33819 -1.33184 0
M  V30 3361 O 318.792 1.78061 -0.400083 0
M  V30 3362 C 318.843 0.378079 -3.59517 0
M  V30 3363 O 318.564 -0.824044 -4.3028 0
M  V30 3364 C 320.065 0.979426 -4.32345 0
M  V30 3365 H 317.285 -0.00551697 -0.670977 0
M  V30 3366 H 319.829 -0.655354 -1.93715 0
M  V30 3367 H 317.984 1.06977 -3.72337 0
M  V30 3368 H 318.398 -0.566518 -5.21432 0
M  V30 3369 H 319.872 1.1333 -5.40241 0
M  V30 3370 H 320.349 1.9686 -3.9261 0
M  V30 3371 H 320.955 0.326216 -4.24047 0
M  V30 3372 N 319.27 1.56325 -0.20005 0
M  V30 3373 C 320.686 1.58839 0.155716 0
M  V30 3374 C 320.886 1.21636 1.60645 0
M  V30 3375 O 319.942 0.941437 2.34293 0
M  V30 3376 C 321.255 3.0032 -0.151124 0
M  V30 3377 C 322.803 3.12866 -0.0916284 0
M  V30 3378 C 323.278 4.56488 -0.371845 0
M  V30 3379 N 324.769 4.62089 -0.320641 0
M  V30 3380 C 325.504 5.71116 -0.511243 0
M  V30 3381 N 325 6.88592 -0.762461 0
M  V30 3382 N 326.793 5.60335 -0.445157 0
M  V30 3383 H 318.944 1.78788 -1.14668 0
M  V30 3384 H 321.207 0.829996 -0.458051 0
M  V30 3385 H 320.913 3.32117 -1.15721 0
M  V30 3386 H 320.787 3.73257 0.543986 0
M  V30 3387 H 323.174 2.80878 0.905065 0
M  V30 3388 H 323.255 2.42304 -0.81989 0
M  V30 3389 H 322.899 4.89189 -1.36588 0
M  V30 3390 H 322.829 5.25246 0.377362 0
M  V30 3391 H 325.32 3.77665 -0.13329 0
M  V30 3392 H 325.633 7.67581 -0.896576 0
M  V30 3393 H 323.978 6.90387 -0.799412 0
M  V30 3394 H 327.169 4.67436 -0.249278 0
M  V30 3395 H 327.342 6.45243 -0.597116 0
M  V30 3396 N 320.748 -0.0735177 1.57428 0
M  V30 3397 C 321.988 -0.778363 1.89 0
M  V30 3398 C 322.352 -1.7483 0.793634 0
M  V30 3399 O 323.553 -2.49811 0.992367 0
M  V30 3400 C 321.824 -1.46929 3.25802 0
M  V30 3401 S 323.383 -2.20943 3.79117 0
M  V30 3402 H 320.201 -0.258874 0.662197 0
M  V30 3403 H 322.803 -0.0345338 1.95469 0
M  V30 3404 H 321.507 -0.749532 4.03497 0
M  V30 3405 H 321.038 -2.25258 3.22525 0
M  V30 3406 H 323.053 -3.47435 3.54265 0
M  V30 3407 N 322.226 -1.5378 -0.344866 0
M  V30 3408 C 323.472 -1.71216 -1.08687 0
M  V30 3409 C 323.805 -0.473281 -1.88345 0
M  V30 3410 O 323.08 0.52968 -1.87149 0
M  V30 3411 C 323.363 -2.97486 -2.02914 0
M  V30 3412 C 323.216 -4.31579 -1.26727 0
M  V30 3413 C 324.535 -3.19422 -3.0275 0
M  V30 3414 H 321.654 -0.62301 -0.393735 0
M  V30 3415 H 324.296 -1.8645 -0.365563 0
M  V30 3416 H 322.446 -2.84629 -2.64421 0
M  V30 3417 H 324.118 -4.56284 -0.67845 0
M  V30 3418 H 322.361 -4.30049 -0.569273 0
M  V30 3419 H 323.032 -5.16106 -1.95803 0
M  V30 3420 H 325.508 -3.316 -2.51357 0
M  V30 3421 H 324.384 -4.09169 -3.65885 0
M  V30 3422 H 324.645 -2.35656 -3.74057 0
M  V30 3423 N 323.704 0.605807 -1.45491 0
M  V30 3424 C 324.614 1.74466 -1.56839 0
M  V30 3425 C 325.63 1.68006 -0.452772 0
M  V30 3426 O 326.806 1.8833 -0.713708 0
M  V30 3427 C 323.871 3.10931 -1.53371 0
M  V30 3428 C 322.932 3.28832 -2.75986 0
M  V30 3429 C 322.165 4.58787 -2.72673 0
M  V30 3430 O 322.388 5.4122 -1.80102 0
M  V30 3431 O 321.322 4.79438 -3.63899 0
M  V30 3432 H 325.148 1.67843 -2.53106 0
M  V30 3433 H 322.733 0.770108 -1.28022 0
M  V30 3434 H 324.615 3.92233 -1.54051 0
M  V30 3435 H 323.29 3.18042 -0.602572 0
M  V30 3436 H 322.197 2.47112 -2.80867 0
M  V30 3437 H 323.53 3.26599 -3.68231 0
M  V30 3438 N 325.182 1.32811 0.848464 0
M  V30 3439 C 326.13 1.22231 1.97895 0
M  V30 3440 C 327.124 0.125749 1.68933 0
M  V30 3441 O 328.33 0.289083 1.77663 0
M  V30 3442 H 324.705 0.379058 0.649476 0
M  V30 3443 H 326.676 2.17828 2.03945 0
M  V30 3444 C 325.425 0.968572 3.33937 0
M  V30 3445 H 324.748 1.80458 3.56756 0
M  V30 3446 H 326.188 0.934808 4.13567 0
M  V30 3447 C 324.647 -0.328628 3.35293 0
M  V30 3448 O 325.177 -1.33848 3.78745 0
M  V30 3449 N 323.383 -0.352788 2.88451 0
M  V30 3450 H 322.93 0.469541 2.53285 0
M  V30 3451 H 322.888 -1.22057 2.89741 0
M  V30 3452 N 326.66 -1.06551 1.16123 0
M  V30 3453 C 327.623 -2.12132 0.867906 0
M  V30 3454 C 328.623 -1.60224 -0.135944 0
M  V30 3455 O 329.813 -1.73943 0.0946422 0
M  V30 3456 C 326.945 -3.396 0.297419 0
M  V30 3457 H 328.138 -2.39586 1.80385 0
M  V30 3458 H 325.691 -1.22574 0.969812 0
M  V30 3459 H 326.426 -3.17794 -0.64633 0
M  V30 3460 H 326.211 -3.78581 1.02073 0
M  V30 3461 H 327.701 -4.17455 0.110052 0
M  V30 3462 N 328.138 -0.959301 -1.25041 0
M  V30 3463 C 329.368 -0.63303 -1.96663 0
M  V30 3464 C 329.776 0.800031 -1.71453 0
M  V30 3465 O 329.119 1.54736 -0.99008 0
M  V30 3466 C 329.181 -0.817523 -3.50081 0
M  V30 3467 C 328.845 -2.22863 -3.98975 0
M  V30 3468 C 329.842 -3.20569 -4.09306 0
M  V30 3469 C 327.527 -2.55407 -4.32519 0
M  V30 3470 C 329.521 -4.4891 -4.52503 0
M  V30 3471 C 327.208 -3.83976 -4.754 0
M  V30 3472 C 328.206 -4.8054 -4.85356 0
M  V30 3473 O 327.894 -6.06817 -5.27284 0
M  V30 3474 H 327.626 -0.235866 -0.633516 0
M  V30 3475 H 330.18 -1.2874 -1.60047 0
M  V30 3476 H 328.41 -0.105992 -3.86555 0
M  V30 3477 H 330.099 -0.491604 -4.02912 0
M  V30 3478 H 330.865 -2.96753 -3.83618 0
M  V30 3479 H 326.744 -1.8097 -4.23994 0
M  V30 3480 H 330.288 -5.24283 -4.60188 0
M  V30 3481 H 326.185 -4.07596 -5.00535 0
M  V30 3482 H 326.953 -6.10262 -5.45457 0
M  V30 3483 N 329.616 1.39756 -0.72842 0
M  V30 3484 C 330.863 2.00645 -0.273487 0
M  V30 3485 C 331.191 1.57786 1.13727 0
M  V30 3486 O 330.446 0.794886 1.7883 0
M  V30 3487 C 330.745 3.56002 -0.315776 0
M  V30 3488 C 330.411 4.18489 -1.67863 0
M  V30 3489 C 329.073 4.3527 -2.05166 0
M  V30 3490 C 331.425 4.53219 -2.57375 0
M  V30 3491 C 328.753 4.84069 -3.31503 0
M  V30 3492 C 331.105 5.03423 -3.83077 0
M  V30 3493 C 329.769 5.18413 -4.20481 0
M  V30 3494 H 329.039 0.734211 -0.100076 0
M  V30 3495 H 331.686 1.6718 -0.933972 0
M  V30 3496 H 329.991 3.89452 0.428285 0
M  V30 3497 H 331.688 4.00963 0.0542575 0
M  V30 3498 H 328.278 4.05824 -1.37858 0
M  V30 3499 H 332.462 4.39878 -2.29827 0
M  V30 3500 H 327.718 4.93859 -3.60435 0
M  V30 3501 H 331.892 5.2927 -4.52599 0
M  V30 3502 H 329.519 5.55987 -5.18443 0
M  V30 3503 N 331.094 0.475555 1.50254 0
M  V30 3504 C 332.343 -0.0795996 2.01543 0
M  V30 3505 C 332.656 -1.4038 1.36209 0
M  V30 3506 O 333.862 -2.04415 1.7868 0
M  V30 3507 C 332.318 -0.192363 3.59386 0
M  V30 3508 C 331.926 1.12367 4.33679 0
M  V30 3509 C 333.67 -0.699238 4.18701 0
M  V30 3510 C 331.577 0.974453 5.83317 0
M  V30 3511 H 330.507 -0.0335228 0.753254 0
M  V30 3512 H 333.158 0.611128 1.73025 0
M  V30 3513 H 331.54 -0.946974 3.84511 0
M  V30 3514 H 332.714 1.88958 4.20276 0
M  V30 3515 H 331.029 1.562 3.85993 0
M  V30 3516 H 333.626 -0.827978 5.28251 0
M  V30 3517 H 333.969 -1.69171 3.80377 0
M  V30 3518 H 334.502 -0.00188807 3.978 0
M  V30 3519 H 331.241 1.94042 6.26121 0
M  V30 3520 H 330.761 0.248998 5.99283 0
M  V30 3521 H 332.44 0.642867 6.43798 0
M  V30 3522 N 332.573 -1.56217 0.208337 0
M  V30 3523 C 333.52 -2.19699 -0.707192 0
M  V30 3524 C 334.49 -1.14836 -1.20008 0
M  V30 3525 O 335.675 -1.4314 -1.26157 0
M  V30 3526 C 332.815 -2.87061 -1.91546 0
M  V30 3527 C 331.928 -4.06483 -1.46271 0
M  V30 3528 C 331.063 -4.61665 -2.62752 0
M  V30 3529 C 330.102 -5.73417 -2.14147 0
M  V30 3530 N 329.239 -6.22948 -3.23853 0
M  V30 3531 H 334.079 -2.97575 -0.159111 0
M  V30 3532 H 331.616 -1.46948 -0.0667874 0
M  V30 3533 H 333.574 -3.24294 -2.62468 0
M  V30 3534 H 332.204 -2.11725 -2.43664 0
M  V30 3535 H 331.256 -3.74825 -0.648886 0
M  V30 3536 H 332.568 -4.87271 -1.06622 0
M  V30 3537 H 331.722 -5.01272 -3.41776 0
M  V30 3538 H 330.461 -3.80013 -3.05682 0
M  V30 3539 H 329.466 -5.33326 -1.33581 0
M  V30 3540 H 330.691 -6.56897 -1.72232 0
M  V30 3541 H 328.637 -5.44213 -3.6629 0
M  V30 3542 H 328.554 -6.98823 -2.88414 0
M  V30 3543 H 329.822 -6.6721 -4.03052 0
M  V30 3544 N 334.051 0.0651679 -1.57465 0
M  V30 3545 C 334.961 1.09448 -2.07505 0
M  V30 3546 C 335.977 1.41974 -1.00595 0
M  V30 3547 O 337.153 1.52018 -1.32107 0
M  V30 3548 C 334.218 2.38689 -2.51453 0
M  V30 3549 C 333.279 2.13073 -3.72691 0
M  V30 3550 C 332.512 3.36152 -4.14533 0
M  V30 3551 O 332.735 4.45517 -3.56189 0
M  V30 3552 O 331.669 3.23974 -5.07272 0
M  V30 3553 H 335.495 0.69935 -2.95538 0
M  V30 3554 H 333.08 0.279752 -1.46757 0
M  V30 3555 H 334.962 3.14736 -2.80212 0
M  V30 3556 H 333.637 2.77568 -1.66546 0
M  V30 3557 H 332.544 1.34709 -3.49005 0
M  V30 3558 H 333.877 1.79071 -4.5847 0
M  V30 3559 N 335.529 1.53961 0.336706 0
M  V30 3560 C 336.461 1.78751 1.4346 0
M  V30 3561 C 337.474 0.669019 1.48418 0
M  V30 3562 O 338.663 0.945884 1.51378 0
M  V30 3563 C 335.763 1.87844 2.82078 0
M  V30 3564 C 334.936 3.17854 3.00479 0
M  V30 3565 C 333.995 3.17816 4.19379 0
M  V30 3566 O 333.021 3.91511 4.13168 0
M  V30 3567 N 334.223 2.40669 5.2826 0
M  V30 3568 H 336.988 2.73493 1.22563 0
M  V30 3569 H 334.549 1.53096 0.526625 0
M  V30 3570 H 336.541 1.85261 3.59806 0
M  V30 3571 H 335.111 1.00257 2.96086 0
M  V30 3572 H 334.331 3.33504 2.10163 0
M  V30 3573 H 335.619 4.03718 3.0966 0
M  V30 3574 H 335.017 1.8036 5.36178 0
M  V30 3575 H 333.574 2.43877 6.04456 0
M  V30 3576 N 337.007 -0.598083 1.45811 0
M  V30 3577 C 337.917 -1.73632 1.57763 0
M  V30 3578 C 338.933 -1.67763 0.461676 0
M  V30 3579 O 340.109 -1.87949 0.723685 0
M  V30 3580 C 337.174 -3.10114 1.55018 0
M  V30 3581 C 336.235 -3.27364 2.77726 0
M  V30 3582 C 335.468 -4.57334 2.75102 0
M  V30 3583 O 335.691 -5.40258 1.8297 0
M  V30 3584 O 334.625 -4.77502 3.66437 0
M  V30 3585 H 338.451 -1.66498 2.53992 0
M  V30 3586 H 336.036 -0.763308 1.28429 0
M  V30 3587 H 337.918 -3.9141 1.56129 0
M  V30 3588 H 336.593 -3.17718 0.619431 0
M  V30 3589 H 335.5 -2.45619 2.82174 0
M  V30 3590 H 336.833 -3.24641 3.69958 0
M  V30 3591 N 338.485 -1.33259 -0.841409 0
M  V30 3592 C 339.417 -1.19136 -1.95804 0
M  V30 3593 C 340.43 -0.122965 -1.62335 0
M  V30 3594 O 341.619 -0.373154 -1.74556 0
M  V30 3595 C 338.719 -0.804268 -3.29218 0
M  V30 3596 C 337.892 -1.96376 -3.90839 0
M  V30 3597 C 336.951 -1.55806 -5.02604 0
M  V30 3598 O 335.977 -2.27203 -5.21888 0
M  V30 3599 N 337.179 -0.461609 -5.78662 0
M  V30 3600 H 339.944 -2.15326 -2.08458 0
M  V30 3601 H 337.505 -1.25971 -1.017 0
M  V30 3602 H 339.497 -0.51501 -4.0141 0
M  V30 3603 H 338.067 0.0668809 -3.12528 0
M  V30 3604 H 337.287 -2.41879 -3.11269 0
M  V30 3605 H 338.575 -2.73966 -4.28742 0
M  V30 3606 H 337.973 0.132343 -5.65545 0
M  V30 3607 H 336.53 -0.232013 -6.51387 0
M  V30 3608 N 339.963 1.05934 -1.16686 0
M  V30 3609 C 341.211 1.78447 -0.948744 0
M  V30 3610 C 341.532 1.87813 0.524523 0
M  V30 3611 O 340.802 1.38945 1.38098 0
M  V30 3612 H 339.382 0.660971 -0.348033 0
M  V30 3613 H 342.044 1.27947 -1.47022 0
M  V30 3614 H 341.14 2.80394 -1.37061 0
M  V30 3615 N 341.441 0.965919 1.2453 0
M  V30 3616 C 342.688 0.626831 1.92554 0
M  V30 3617 C 343.016 -0.837739 1.75534 0
M  V30 3618 O 342.271 -1.61793 1.10098 0
M  V30 3619 C 342.57 0.945428 3.44669 0
M  V30 3620 C 342.236 2.39785 3.81856 0
M  V30 3621 C 340.898 2.79483 3.91718 0
M  V30 3622 C 343.25 3.34055 4.00071 0
M  V30 3623 C 340.578 4.12496 4.1721 0
M  V30 3624 C 342.93 4.66694 4.27059 0
M  V30 3625 C 341.594 5.06172 4.3514 0
M  V30 3626 H 340.864 0.229374 0.704605 0
M  V30 3627 H 343.511 1.21707 1.4785 0
M  V30 3628 H 341.816 0.272926 3.90848 0
M  V30 3629 H 343.513 0.661484 3.95507 0
M  V30 3630 H 340.103 2.08003 3.74743 0
M  V30 3631 H 344.287 3.04571 3.91855 0
M  V30 3632 H 339.543 4.42709 4.21685 0
M  V30 3633 H 343.717 5.3971 4.40097 0
M  V30 3634 H 341.344 6.09262 4.54646 0
M  V30 3635 N 342.919 -1.39368 0.735821 0
M  V30 3636 C 343.829 -2.34395 0.0979693 0
M  V30 3637 C 344.845 -1.58361 -0.720968 0
M  V30 3638 O 346.021 -1.90648 -0.649245 0
M  V30 3639 C 343.086 -3.37393 -0.797916 0
M  V30 3640 C 342.147 -4.29287 0.0333662 0
M  V30 3641 C 341.38 -5.27365 -0.819854 0
M  V30 3642 O 341.603 -5.31959 -2.05855 0
M  V30 3643 O 340.537 -6.01389 -0.248079 0
M  V30 3644 H 344.363 -2.90601 0.882315 0
M  V30 3645 H 341.948 -1.40909 0.4965 0
M  V30 3646 H 343.83 -4.00505 -1.31048 0
M  V30 3647 H 342.505 -2.83571 -1.56106 0
M  V30 3648 H 341.412 -3.69395 0.591475 0
M  V30 3649 H 342.745 -4.86317 0.758752 0
M  V30 3650 N 344.397 -0.483516 -1.5 0
M  V30 3651 C 345.345 0.318061 -2.30415 0
M  V30 3652 C 346.339 0.978988 -1.38247 0
M  V30 3653 O 347.545 0.908673 -1.55381 0
M  V30 3654 H 343.92 0.121419 -0.742133 0
M  V30 3655 H 345.891 -0.380403 -2.95965 0
M  V30 3656 C 344.64 1.38013 -3.19136 0
M  V30 3657 H 343.963 0.880952 -3.89973 0
M  V30 3658 H 345.403 1.91332 -3.78375 0
M  V30 3659 C 343.862 2.38884 -2.37563 0
M  V30 3660 O 344.392 3.44412 -2.06744 0
M  V30 3661 N 342.598 2.10912 -1.99911 0
M  V30 3662 H 342.145 1.25118 -2.25174 0
M  V30 3663 H 342.103 2.78635 -1.45636 0
M  V30 3664 N 345.875 1.56104 -0.216619 0
M  V30 3665 C 346.822 2.2007 0.695531 0
M  V30 3666 C 347.792 1.15471 1.19397 0
M  V30 3667 O 348.977 1.43807 1.25396 0
M  V30 3668 C 346.117 2.88073 1.90021 0
M  V30 3669 C 345.23 4.07253 1.44113 0
M  V30 3670 C 344.365 4.63052 2.603 0
M  V30 3671 C 343.404 5.74545 2.11103 0
M  V30 3672 N 342.541 6.24656 3.20545 0
M  V30 3673 H 347.381 2.97655 0.143327 0
M  V30 3674 H 344.918 1.46982 0.0589934 0
M  V30 3675 H 346.876 3.25681 2.60745 0
M  V30 3676 H 345.506 2.13015 2.42538 0
M  V30 3677 H 344.558 3.75164 0.628999 0
M  V30 3678 H 345.87 4.8783 1.04036 0
M  V30 3679 H 345.024 5.03078 3.39113 0
M  V30 3680 H 343.763 3.81628 3.03663 0
M  V30 3681 H 342.768 5.34027 1.3075 0
M  V30 3682 H 343.993 6.57801 1.68746 0
M  V30 3683 H 341.939 5.46148 3.63399 0
M  V30 3684 H 341.856 7.00343 2.84704 0
M  V30 3685 H 343.124 6.69338 3.99508 0
M  V30 3686 N 347.353 -0.0568162 1.57498 0
M  V30 3687 C 348.578 -0.769402 1.92601 0
M  V30 3688 C 349.003 -1.69559 0.814336 0
M  V30 3689 O 348.361 -1.79811 -0.231903 0
M  V30 3690 C 348.409 -1.52634 3.26704 0
M  V30 3691 O 347.513 -2.63797 3.16994 0
M  V30 3692 H 346.854 -0.208909 0.63028 0
M  V30 3693 H 349.384 -0.0205798 2.0459 0
M  V30 3694 H 349.394 -1.90234 3.60936 0
M  V30 3695 H 348.069 -0.846875 4.07186 0
M  V30 3696 H 346.646 -2.28943 2.94346 0
M  V30 3697 N 348.832 -1.54138 -0.328536 0
M  V30 3698 C 350.081 -1.71318 -1.06456 0
M  V30 3699 C 350.394 -0.491109 -1.89334 0
M  V30 3700 O 351.6 -0.54416 -2.65991 0
M  V30 3701 C 350.056 -3.03 -1.94214 0
M  V30 3702 C 349.664 -4.32595 -1.16471 0
M  V30 3703 C 351.408 -3.29544 -2.67583 0
M  V30 3704 C 349.315 -5.55341 -2.03347 0
M  V30 3705 H 348.245 -0.638429 -0.401155 0
M  V30 3706 H 350.896 -1.80633 -0.323106 0
M  V30 3707 H 349.278 -2.87579 -2.72239 0
M  V30 3708 H 350.452 -4.58766 -0.432525 0
M  V30 3709 H 348.767 -4.12777 -0.548063 0
M  V30 3710 H 351.364 -4.18444 -3.3288 0
M  V30 3711 H 351.707 -2.47206 -3.34955 0
M  V30 3712 H 352.24 -3.45809 -1.96623 0
M  V30 3713 H 348.979 -6.40268 -1.40491 0
M  V30 3714 H 348.499 -5.33397 -2.74313 0
M  V30 3715 H 350.178 -5.91557 -2.62049 0
M  V30 3716 N 350.31 0.590341 -1.46126 0
M  V30 3717 C 351.273 1.68194 -1.55703 0
M  V30 3718 C 352.273 1.54808 -0.434868 0
M  V30 3719 O 353.463 1.59564 -0.698928 0
M  V30 3720 C 350.595 3.07575 -1.47005 0
M  V30 3721 H 351.788 1.61064 -2.52979 0
M  V30 3722 H 349.341 0.807541 -1.33823 0
M  V30 3723 H 350.076 3.20268 -0.509785 0
M  V30 3724 H 349.861 3.187 -2.28414 0
M  V30 3725 H 351.351 3.87055 -1.56776 0
M  V30 3726 N 351.788 1.33704 0.83433 0
M  V30 3727 C 352.698 1.26382 1.97648 0
M  V30 3728 C 353.714 0.173548 1.73132 0
M  V30 3729 O 354.89 0.397962 1.97429 0
M  V30 3730 C 351.955 1.00769 3.31733 0
M  V30 3731 C 351.016 2.1884 3.69334 0
M  V30 3732 C 350.249 1.9444 4.9702 0
M  V30 3733 O 350.472 0.896961 5.63303 0
M  V30 3734 O 349.406 2.81093 5.32231 0
M  V30 3735 H 353.232 2.22444 2.06767 0
M  V30 3736 H 350.817 1.13795 0.968037 0
M  V30 3737 H 352.699 0.882186 4.12062 0
M  V30 3738 H 351.374 0.0773783 3.23608 0
M  V30 3739 H 350.281 2.36946 2.89495 0
M  V30 3740 H 351.614 3.10221 3.82131 0
M  V30 3741 N 353.266 -1.05314 1.17247 0
M  V30 3742 C 354.515 -1.77685 0.954521 0
M  V30 3743 C 354.828 -1.88616 -0.518025 0
M  V30 3744 O 356.034 -2.57714 -0.854144 0
M  V30 3745 C 354.49 -3.19402 1.65863 0
M  V30 3746 C 354.098 -3.16605 3.16963 0
M  V30 3747 C 355.842 -3.96237 1.52303 0
M  V30 3748 C 353.749 -4.53103 3.80068 0
M  V30 3749 H 352.679 -0.666 0.353496 0
M  V30 3750 H 355.33 -1.1805 1.40486 0
M  V30 3751 H 353.712 -3.79355 1.13602 0
M  V30 3752 H 354.886 -2.66176 3.76148 0
M  V30 3753 H 353.201 -2.53268 3.30521 0
M  V30 3754 H 355.798 -4.97157 1.96822 0
M  V30 3755 H 356.141 -4.136 0.473401 0
M  V30 3756 H 356.674 -3.42829 2.01775 0
M  V30 3757 H 353.413 -4.40946 4.85023 0
M  V30 3758 H 352.933 -5.03686 3.2567 0
M  V30 3759 H 354.612 -5.22045 3.82202 0
M  V30 3760 N 354.744 -0.972509 -1.24016 0
M  V30 3761 C 355.99 -0.637978 -1.92504 0
M  V30 3762 C 356.323 0.825383 -1.75787 0
M  V30 3763 O 355.598 1.59442 -1.11393 0
M  V30 3764 C 355.881 -1.01942 -3.45369 0
M  V30 3765 C 355.734 -2.53983 -3.71231 0
M  V30 3766 C 357.053 -0.55751 -4.36555 0
M  V30 3767 H 354.172 -0.233248 -0.699117 0
M  V30 3768 H 356.814 -1.21238 -1.46292 0
M  V30 3769 H 354.964 -0.530656 -3.84859 0
M  V30 3770 H 356.636 -3.10374 -3.41271 0
M  V30 3771 H 354.879 -2.96968 -3.16216 0
M  V30 3772 H 355.55 -2.75723 -4.78206 0
M  V30 3773 H 358.026 -0.977029 -4.04467 0
M  V30 3774 H 356.902 -0.85292 -5.42233 0
M  V30 3775 H 357.163 0.542328 -4.38761 0
M  V30 3776 N 356.222 1.38976 -0.743202 0
M  V30 3777 C 357.172 2.27843 -0.084513 0
M  V30 3778 C 358.156 1.44677 0.704094 0
M  V30 3779 O 359.348 1.67511 0.571755 0
M  V30 3780 C 356.477 3.33466 0.815781 0
M  V30 3781 C 355.563 4.24095 0.0208844 0
M  V30 3782 N 355.954 4.95609 -1.0102 0
M  V30 3783 C 354.252 4.45303 0.249293 0
M  V30 3784 C 354.953 5.62287 -1.49024 0
M  V30 3785 N 353.929 5.37571 -0.807377 0
M  V30 3786 H 357.731 2.80593 -0.87436 0
M  V30 3787 H 355.245 1.51755 -0.578283 0
M  V30 3788 H 357.242 3.96008 1.30321 0
M  V30 3789 H 355.902 2.82276 1.6047 0
M  V30 3790 H 356.913 4.98849 -1.39176 0
M  V30 3791 H 353.59 4.0504 1.01237 0
M  V30 3792 H 354.98 6.29519 -2.34853 0
M  V30 3793 N 357.7 0.491464 1.49741 0
M  V30 3794 C 358.61 -0.296835 2.32715 0
M  V30 3795 C 359.626 -0.976536 1.44013 0
M  V30 3796 O 360.802 -0.960023 1.77047 0
M  V30 3797 C 357.867 -1.35288 3.19215 0
M  V30 3798 C 356.928 -0.687632 4.23757 0
M  V30 3799 C 356.161 -1.69336 5.06123 0
M  V30 3800 O 356.384 -2.92219 4.89861 0
M  V30 3801 O 355.318 -1.25394 5.88693 0
M  V30 3802 H 359.144 0.382048 3.01287 0
M  V30 3803 H 356.729 0.252953 1.47243 0
M  V30 3804 H 358.611 -1.96411 3.72828 0
M  V30 3805 H 357.286 -2.01487 2.53347 0
M  V30 3806 H 356.193 -0.0369159 3.74082 0
M  V30 3807 H 357.526 -0.0682566 4.92153 0
M  V30 3808 N 359.178 -1.55987 0.224894 0
M  V30 3809 C 360.111 -2.16413 -0.723929 0
M  V30 3810 C 361.089 -1.10952 -1.18863 0
M  V30 3811 O 362.273 -1.39225 -1.27077 0
M  V30 3812 C 359.4 -2.74711 -1.98121 0
M  V30 3813 C 358.446 -3.9303 -1.6562 0
M  V30 3814 S 359.279 -5.29817 -0.778058 0
M  V30 3815 C 360.435 -5.91555 -2.04483 0
M  V30 3816 H 360.668 -2.96555 -0.210347 0
M  V30 3817 H 358.201 -1.54397 0.00955457 0
M  V30 3818 H 360.159 -3.08938 -2.70311 0
M  V30 3819 H 358.82 -1.94555 -2.46591 0
M  V30 3820 H 358.013 -4.32334 -2.59043 0
M  V30 3821 H 357.615 -3.59966 -1.01491 0
M  V30 3822 H 359.907 -6.07732 -2.99446 0
M  V30 3823 H 360.85 -6.87498 -1.69563 0
M  V30 3824 H 361.258 -5.20419 -2.18688 0
M  V30 3825 N 360.656 0.0484629 -1.57525 0
M  V30 3826 C 361.903 0.743125 -1.88372 0
M  V30 3827 C 362.231 1.76383 -0.819715 0
M  V30 3828 O 361.486 1.94855 0.181659 0
M  V30 3829 C 361.785 1.46632 -3.25935 0
M  V30 3830 C 361.451 0.583427 -4.4711 0
M  V30 3831 C 360.113 0.340191 -4.79996 0
M  V30 3832 C 362.465 -0.0273345 -5.21193 0
M  V30 3833 C 359.793 -0.522903 -5.84365 0
M  V30 3834 C 362.145 -0.878017 -6.26477 0
M  V30 3835 C 360.809 -1.1309 -6.5785 0
M  V30 3836 H 360.079 0.271929 -0.689301 0
M  V30 3837 H 362.726 0.00336166 -1.915 0
M  V30 3838 H 361.031 2.2789 -3.18706 0
M  V30 3839 H 362.728 2.00902 -3.47044 0
M  V30 3840 H 359.318 0.783151 -4.21384 0
M  V30 3841 H 363.502 0.147654 -4.9608 0
M  V30 3842 H 358.758 -0.727335 -6.07058 0
M  V30 3843 H 362.932 -1.35789 -6.83033 0
M  V30 3844 H 360.559 -1.80144 -7.38547 0
M  V30 3845 N 362.134 1.5431 0.320358 0
M  V30 3846 C 363.359 1.76954 1.08175 0
M  V30 3847 C 363.784 0.518193 1.80821 0
M  V30 3848 O 363.142 -0.530411 1.73368 0
M  V30 3849 C 363.19 2.96451 2.05303 0
M  V30 3850 O 362.294 2.68221 3.13259 0
M  V30 3851 H 361.635 0.586275 0.311733 0
M  V30 3852 H 364.165 2.01342 0.363676 0
M  V30 3853 H 364.175 3.23887 2.48116 0
M  V30 3854 H 362.85 3.87196 1.51829 0
M  V30 3855 H 361.427 2.51744 2.75099 0
M  V30 3856 N 363.613 -0.582584 1.46437 0
M  V30 3857 C 364.843 -1.36484 1.55099 0
M  V30 3858 C 365.251 -1.88233 0.191056 0
M  V30 3859 O 364.594 -1.6429 -0.821858 0
M  V30 3860 C 364.656 -2.588 2.49525 0
M  V30 3861 C 364.32 -2.28517 3.95764 0
M  V30 3862 C 365.317 -1.87346 4.84972 0
M  V30 3863 C 363.002 -2.40658 4.40896 0
M  V30 3864 C 364.996 -1.5871 6.17325 0
M  V30 3865 C 362.683 -2.11635 5.73284 0
M  V30 3866 C 363.681 -1.70725 6.61318 0
M  V30 3867 O 363.369 -1.42057 7.91249 0
M  V30 3868 H 363.101 -0.423297 0.527063 0
M  V30 3869 H 365.655 -0.715188 1.92547 0
M  V30 3870 H 363.885 -3.26571 2.07095 0
M  V30 3871 H 365.574 -3.20868 2.48593 0
M  V30 3872 H 366.34 -1.77481 4.5136 0
M  V30 3873 H 362.219 -2.71463 3.72598 0
M  V30 3874 H 365.763 -1.26704 6.85997 0
M  V30 3875 H 361.66 -2.21124 6.06444 0
M  V30 3876 H 362.428 -1.55901 8.03515 0
M  V30 3877 N 365.091 -1.34144 -0.827227 0
M  V30 3878 C 366.054 -1.25264 -1.91942 0
M  V30 3879 C 367.054 -0.168866 -1.59911 0
M  V30 3880 O 368.244 -0.421198 -1.69031 0
M  V30 3881 C 365.376 -0.932952 -3.27885 0
M  V30 3882 H 366.569 -2.22357 -2.0124 0
M  V30 3883 H 364.122 -1.1837 -1.0207 0
M  V30 3884 H 364.857 0.0349917 -3.24281 0
M  V30 3885 H 364.642 -1.71682 -3.52516 0
M  V30 3886 H 366.132 -0.895874 -4.07877 0
M  V30 3887 N 366.569 1.04691 -1.17803 0
M  V30 3888 C 367.846 1.7472 -0.879328 0
M  V30 3889 C 368.226 2.01812 0.619271 0
M  V30 3890 O 367.574 1.65824 1.57209 0
M  V30 3891 C 367.784 3.03686 -1.71976 0
M  V30 3892 C 369.132 3.77542 -1.94286 0
M  V30 3893 O 370.156 3.13569 -1.68976 0
M  V30 3894 O 369.015 4.92506 -2.36855 0
M  V30 3895 H 366.109 0.760011 -0.326056 0
M  V30 3896 H 368.655 1.10813 -1.28525 0
M  V30 3897 H 367.427 2.79754 -2.73594 0
M  V30 3898 H 367.05 3.75332 -1.31194 0
M  V30 3899 N 368.047 0.979072 1.23499 0
M  V30 3900 C 369.295 0.645941 1.91499 0
M  V30 3901 C 369.616 -0.822948 1.76784 0
M  V30 3902 O 368.886 -1.58854 1.14639 0
M  V30 3903 H 367.466 0.235919 0.708767 0
M  V30 3904 H 370.128 1.2426 1.50152 0
M  V30 3905 H 369.224 0.896411 2.9895 0
M  V30 3906 N 369.525 -1.3858 0.750561 0
M  V30 3907 C 370.765 -2.02032 0.310258 0
M  V30 3908 C 371.129 -1.58288 -1.08668 0
M  V30 3909 O 372.33 -2.14049 -1.62593 0
M  V30 3910 C 370.601 -3.54856 0.425647 0
M  V30 3911 S 372.16 -4.38748 0.0674797 0
M  V30 3912 H 368.978 -0.700705 0.120554 0
M  V30 3913 H 371.58 -1.69134 0.980512 0
M  V30 3914 H 370.284 -3.84182 1.44335 0
M  V30 3915 H 369.815 -3.92527 -0.261894 0
M  V30 3916 H 371.83 -4.82835 -1.14388 0
M  V30 3917 N 371.003 -0.499398 -1.49478 0
M  V30 3918 C 372.231 0.0425456 -2.06856 0
M  V30 3919 C 372.646 1.30964 -1.35992 0
M  V30 3920 O 372.003 1.77172 -0.437762 0
M  V30 3921 C 372.054 0.301735 -3.60239 0
M  V30 3922 O 371.775 -0.915127 -4.28436 0
M  V30 3923 C 373.276 0.887499 -4.34325 0
M  V30 3924 H 370.496 -0.0197482 -0.670709 0
M  V30 3925 H 373.04 -0.696297 -1.92281 0
M  V30 3926 H 371.195 0.990556 -3.74522 0
M  V30 3927 H 371.609 -0.676993 -5.20113 0
M  V30 3928 H 373.083 1.01845 -5.42523 0
M  V30 3929 H 373.56 1.88488 -3.96698 0
M  V30 3930 H 374.166 0.236196 -4.24644 0
M  V30 3931 N 372.481 1.55866 -0.233164 0
M  V30 3932 C 373.414 2.16794 0.712442 0
M  V30 3933 C 374.392 1.1158 1.18273 0
M  V30 3934 O 375.576 1.39897 1.26337 0
M  V30 3935 C 372.703 2.75757 1.96661 0
M  V30 3936 C 371.749 3.93902 1.63533 0
M  V30 3937 S 372.582 5.30223 0.74995 0
M  V30 3938 C 373.738 5.92631 2.01343 0
M  V30 3939 H 373.971 2.96662 0.194617 0
M  V30 3940 H 371.504 1.5439 -0.0177425 0
M  V30 3941 H 373.462 3.10367 2.68668 0
M  V30 3942 H 372.123 1.9586 2.45556 0
M  V30 3943 H 371.316 4.33702 2.56747 0
M  V30 3944 H 370.918 3.60499 0.995804 0
M  V30 3945 H 373.21 6.09312 2.96219 0
M  V30 3946 H 374.153 6.88388 1.65915 0
M  V30 3947 H 374.561 5.21571 2.15925 0
M  V30 3948 N 373.959 -0.0401083 1.57549 0
M  V30 3949 C 375.184 -0.748931 1.93406 0
M  V30 3950 C 375.609 -1.68686 0.832274 0
M  V30 3951 O 374.967 -1.80047 -0.212818 0
M  V30 3952 C 375.015 -1.4916 3.28304 0
M  V30 3953 O 374.119 -2.6042 3.19774 0
M  V30 3954 H 373.46 -0.202212 0.63246 0
M  V30 3955 H 375.99 0.00112086 2.046 0
M  V30 3956 H 376 -1.86395 3.62934 0
M  V30 3957 H 374.675 -0.80364 4.08062 0
M  V30 3958 H 373.252 -2.25808 2.96758 0
M  V30 3959 N 375.437 -1.54477 -0.31217 0
M  V30 3960 C 376.685 -1.72884 -1.04668 0
M  V30 3961 C 377.006 -0.511477 -1.88173 0
M  V30 3962 O 376.276 0.474407 -1.90069 0
M  V30 3963 H 374.856 -0.637461 -0.389425 0
M  V30 3964 H 377.518 -1.91807 -0.345852 0
M  V30 3965 H 376.614 -2.61334 -1.70619 0
M  V30 3966 N 376.915 0.57481 -1.46744 0
M  V30 3967 C 377.862 1.68329 -1.57905 0
M  V30 3968 C 378.832 1.60625 -0.422927 0
M  V30 3969 O 380.017 1.79721 -0.640711 0
M  V30 3970 C 377.157 3.06665 -1.58274 0
M  V30 3971 C 376.27 3.24935 -2.84678 0
M  V30 3972 C 375.405 4.53566 -2.76499 0
M  V30 3973 C 374.444 4.65207 -3.97806 0
M  V30 3974 N 373.581 5.85172 -3.87967 0
M  V30 3975 H 378.421 1.58127 -2.52587 0
M  V30 3976 H 375.958 0.770552 -1.25303 0
M  V30 3977 H 377.916 3.86745 -1.56473 0
M  V30 3978 H 376.546 3.15745 -0.671194 0
M  V30 3979 H 375.598 2.38405 -2.96424 0
M  V30 3980 H 376.91 3.29403 -3.7456 0
M  V30 3981 H 376.064 5.41885 -2.72848 0
M  V30 3982 H 374.803 4.51548 -1.8427 0
M  V30 3983 H 373.808 3.75304 -4.0178 0
M  V30 3984 H 375.033 4.68997 -4.9114 0
M  V30 3985 H 372.979 5.84137 -2.98529 0
M  V30 3986 H 372.896 5.90943 -4.71511 0
M  V30 3987 H 374.164 6.759 -3.88303 0
M  V30 3988 N 378.394 1.34581 0.820102 0
M  V30 3989 C 379.341 1.2639 1.93117 0
M  V30 3990 C 380.311 0.138554 1.65521 0
M  V30 3991 O 381.496 0.320004 1.88097 0
M  V30 3992 C 378.636 1.02812 3.29429 0
M  V30 3993 C 377.749 2.24146 3.693 0
M  V30 3994 C 376.884 1.93829 4.94574 0
M  V30 3995 C 375.923 3.1129 5.27034 0
M  V30 3996 N 375.06 2.80838 6.43486 0
M  V30 3997 H 379.9 2.21408 1.99455 0
M  V30 3998 H 377.437 1.10077 0.975784 0
M  V30 3999 H 379.395 0.871788 4.0799 0
M  V30 4000 H 378.025 0.114612 3.22596 0
M  V30 4001 H 377.077 2.50691 2.86109 0
M  V30 4002 H 378.389 3.11899 3.89257 0
M  V30 4003 H 377.543 1.74948 5.80929 0
M  V30 4004 H 376.282 1.03341 4.76626 0
M  V30 4005 H 375.287 3.30764 4.39175 0
M  V30 4006 H 376.512 4.02561 5.4692 0
M  V30 4007 H 374.458 1.92929 6.26988 0
M  V30 4008 H 374.375 3.62123 6.63629 0
M  V30 4009 H 375.643 2.65467 7.32903 0
M  V30 4010 N 379.872 -1.04064 1.18357 0
M  V30 4011 C 381.149 -1.74252 0.888581 0
M  V30 4012 C 381.529 -2.02138 -0.60856 0
M  V30 4013 O 380.877 -1.66656 -1.56327 0
M  V30 4014 C 381.087 -3.0277 1.73584 0
M  V30 4015 C 382.435 -3.76506 1.96286 0
M  V30 4016 O 383.459 -3.12668 1.70637 0
M  V30 4017 O 382.318 -4.91243 2.39464 0
M  V30 4018 H 379.412 -0.758271 0.330082 0
M  V30 4019 H 381.958 -1.1013 1.2911 0
M  V30 4020 H 380.73 -2.78299 2.75073 0
M  V30 4021 H 380.353 -3.74631 1.33183 0
M  V30 4022 N 381.35 -0.985608 -1.22978 0
M  V30 4023 C 382.59 -0.665487 -1.93263 0
M  V30 4024 C 382.954 0.78706 -1.75127 0
M  V30 4025 O 384.155 1.21826 -2.39608 0
M  V30 4026 C 382.426 -1.0515 -3.41582 0
M  V30 4027 S 383.985 -0.848637 -4.30516 0
M  V30 4028 H 380.803 -0.24355 -0.667985 0
M  V30 4029 H 383.405 -1.26635 -1.48942 0
M  V30 4030 H 382.109 -2.10517 -3.52293 0
M  V30 4031 H 381.64 -0.442134 -3.90908 0
M  V30 4032 H 383.655 0.264717 -4.95493 0
M  V30 4033 N 382.828 1.3818 -0.7579 0
M  V30 4034 C 383.758 2.33027 -0.148597 0
M  V30 4035 C 384.739 1.55085 0.69875 0
M  V30 4036 O 385.924 1.83384 0.639053 0
M  V30 4037 C 383.054 3.3928 0.742034 0
M  V30 4038 C 382.008 4.28 -0.00291946 0
M  V30 4039 C 381.334 5.25146 1.00625 0
M  V30 4040 C 382.634 5.08938 -1.17385 0
M  V30 4041 H 384.328 2.84231 -0.940909 0
M  V30 4042 H 381.874 1.36659 -0.453908 0
M  V30 4043 H 383.827 4.046 1.17799 0
M  V30 4044 H 382.551 2.86569 1.56671 0
M  V30 4045 H 381.21 3.64192 -0.419504 0
M  V30 4046 H 380.858 4.68721 1.8251 0
M  V30 4047 H 380.558 5.85361 0.512428 0
M  V30 4048 H 382.082 5.93342 1.44143 0
M  V30 4049 H 383.496 5.67474 -0.815224 0
M  V30 4050 H 381.893 5.7841 -1.59882 0
M  V30 4051 H 382.963 4.42424 -1.98468 0
M  V30 4052 N 384.306 0.507319 1.49211 0
M  V30 4053 C 385.552 -0.0350047 2.0277 0
M  V30 4054 C 385.885 -1.3606 1.38569 0
M  V30 4055 O 385.16 -1.87321 0.523542 0
M  V30 4056 C 385.443 -0.180916 3.59645 0
M  V30 4057 C 385.296 1.16825 4.34364 0
M  V30 4058 C 386.615 -0.918558 4.30407 0
M  V30 4059 H 383.734 -0.0112473 0.736914 0
M  V30 4060 H 386.376 0.659956 1.7817 0
M  V30 4061 H 384.526 -0.772826 3.80736 0
M  V30 4062 H 386.198 1.79952 4.24753 0
M  V30 4063 H 384.441 1.75594 3.96673 0
M  V30 4064 H 385.112 1.01939 5.42506 0
M  V30 4065 H 387.588 -0.41649 4.1401 0
M  V30 4066 H 386.464 -0.989505 5.39907 0
M  V30 4067 H 386.725 -1.96373 3.96093 0
M  V30 4068 N 385.784 -1.5574 0.241426 0
M  V30 4069 C 386.732 -2.22538 -0.676718 0
M  V30 4070 C 387.726 -1.21117 -1.18436 0
M  V30 4071 O 388.932 -1.39144 -1.14188 0
M  V30 4072 H 385.307 -0.713776 -0.236701 0
M  V30 4073 H 387.278 -2.98264 -0.0901187 0
M  V30 4074 C 386.027 -2.93439 -1.86518 0
M  V30 4075 H 385.35 -3.7125 -1.4837 0
M  V30 4076 H 386.79 -3.43549 -2.48495 0
M  V30 4077 C 385.249 -1.97008 -2.73294 0
M  V30 4078 O 385.779 -1.49965 -3.72657 0
M  V30 4079 N 383.985 -1.64227 -2.39745 0
M  V30 4080 H 383.532 -2.02677 -1.58996 0
M  V30 4081 H 383.49 -0.999708 -2.98083 0
M  V30 4082 N 387.262 0.0317525 -1.57568 0
M  V30 4083 C 388.511 0.722131 -1.8833 0
M  V30 4084 C 388.824 1.76664 -0.839587 0
M  V30 4085 O 390.03 2.50942 -1.03635 0
M  V30 4086 C 388.486 1.33544 -3.34207 0
M  V30 4087 C 388.094 0.327415 -4.46802 0
M  V30 4088 C 389.838 2.00585 -3.7412 0
M  V30 4089 C 387.745 0.948915 -5.83738 0
M  V30 4090 H 386.675 0.273466 -0.702661 0
M  V30 4091 H 389.326 -0.0235811 -1.83485 0
M  V30 4092 H 387.708 2.13077 -3.33788 0
M  V30 4093 H 388.882 -0.441006 -4.58685 0
M  V30 4094 H 387.197 -0.240758 -4.15703 0
M  V30 4095 H 389.794 2.47932 -4.73744 0
M  V30 4096 H 390.137 2.82285 -3.05975 0
M  V30 4097 H 390.67 1.27831 -3.76702 0
M  V30 4098 H 387.409 0.171387 -6.55276 0
M  V30 4099 H 386.929 1.68724 -5.7558 0
M  V30 4100 H 388.608 1.45705 -6.3038 0
M  V30 4101 N 388.74 1.54641 0.303973 0
M  V30 4102 C 389.988 1.73437 1.0375 0
M  V30 4103 C 390.309 0.521449 1.87899 0
M  V30 4104 O 389.579 -0.46432 1.90318 0
M  V30 4105 H 388.159 0.639518 0.386039 0
M  V30 4106 H 390.821 1.91988 0.335675 0
M  V30 4107 H 389.917 2.62235 1.69231 0
M  V30 4108 N 390.218 -0.567019 1.47046 0
M  V30 4109 C 391.466 -1.322 1.52864 0
M  V30 4110 C 391.787 -1.94088 0.188388 0
M  V30 4111 O 391.057 -1.7941 -0.786693 0
M  V30 4112 H 389.637 -0.490894 0.563056 0
M  V30 4113 H 392.299 -0.662879 1.83281 0
M  V30 4114 H 391.395 -2.12062 2.2899 0
M  V30 4115 N 391.696 -1.35014 -0.812953 0
M  V30 4116 C 392.943 -1.27931 -1.56971 0
M  V30 4117 C 393.271 0.148034 -1.93936 0
M  V30 4118 O 392.526 1.11175 -1.61054 0
M  V30 4119 C 392.825 -2.12524 -2.87347 0
M  V30 4120 C 392.491 -3.61401 -2.6963 0
M  V30 4121 C 391.153 -4.01983 -2.64506 0
M  V30 4122 C 393.505 -4.55894 -2.52607 0
M  V30 4123 C 390.833 -5.35235 -2.40293 0
M  V30 4124 C 393.185 -5.89336 -2.29925 0
M  V30 4125 C 391.849 -6.2907 -2.23219 0
M  V30 4126 H 391.119 -0.468131 -0.574399 0
M  V30 4127 H 393.766 -1.66851 -0.939836 0
M  V30 4128 H 392.071 -1.66463 -3.54679 0
M  V30 4129 H 393.768 -2.04383 -3.45005 0
M  V30 4130 H 390.358 -3.29193 -2.74463 0
M  V30 4131 H 394.542 -4.25431 -2.55583 0
M  V30 4132 H 389.798 -5.65028 -2.33566 0
M  V30 4133 H 393.972 -6.62139 -2.15743 0
M  V30 4134 H 391.599 -7.32256 -2.04219 0
M  V30 4135 N 393.175 1.03435 -1.18907 0
M  V30 4136 C 394.105 2.13503 -0.945448 0
M  V30 4137 C 395.086 1.69682 0.119189 0
M  V30 4138 O 396.271 1.94169 -0.034707 0
M  V30 4139 C 393.401 3.44004 -0.477316 0
M  V30 4140 C 392.355 4.0148 -1.48316 0
M  V30 4141 C 391.681 5.27537 -0.872311 0
M  V30 4142 C 392.981 4.36921 -2.86177 0
M  V30 4143 H 394.675 2.34141 -1.86597 0
M  V30 4144 H 392.221 1.12523 -0.898584 0
M  V30 4145 H 394.174 4.20372 -0.294204 0
M  V30 4146 H 392.898 3.23072 0.478786 0
M  V30 4147 H 391.557 3.27201 -1.65332 0
M  V30 4148 H 391.205 5.02917 0.0911752 0
M  V30 4149 H 390.905 5.66954 -1.54393 0
M  V30 4150 H 392.429 6.06576 -0.699871 0
M  V30 4151 H 393.843 5.04248 -2.72776 0
M  V30 4152 H 392.24 4.87405 -3.50081 0
M  V30 4153 H 393.31 3.46466 -3.39248 0
M  V30 4154 N 394.653 0.992116 1.22453 0
M  V30 4155 C 395.893 0.675727 1.92907 0
M  V30 4156 C 396.257 -0.777762 1.75542 0
M  V30 4157 O 397.458 -1.20553 2.40251 0
M  V30 4158 C 395.729 1.0696 3.4102 0
M  V30 4159 S 397.288 0.871456 4.30059 0
M  V30 4160 H 394.106 0.247089 0.666684 0
M  V30 4161 H 396.708 1.27423 1.48269 0
M  V30 4162 H 395.412 2.12383 3.51172 0
M  V30 4163 H 394.943 0.462858 3.90668 0
M  V30 4164 H 396.958 -0.238436 4.95627 0
M  V30 4165 N 396.131 -1.37776 0.765217 0
M  V30 4166 C 397.064 -2.28008 0.0935025 0
M  V30 4167 C 398.042 -1.45985 -0.716047 0
M  V30 4168 O 399.226 -1.75331 -0.692203 0
M  V30 4169 C 396.353 -3.27228 -0.874052 0
M  V30 4170 C 395.399 -4.26239 -0.149307 0
M  V30 4171 S 396.232 -5.22827 1.15809 0
M  V30 4172 C 397.388 -6.256 0.193906 0
M  V30 4173 H 397.621 -2.84631 0.858637 0
M  V30 4174 H 395.154 -1.43952 0.558313 0
M  V30 4175 H 397.112 -3.84902 -1.42691 0
M  V30 4176 H 395.773 -2.69565 -1.61225 0
M  V30 4177 H 394.966 -4.96213 -0.88254 0
M  V30 4178 H 394.568 -3.7252 0.332366 0
M  V30 4179 H 396.86 -6.74508 -0.636011 0
M  V30 4180 H 397.803 -7.02838 0.861638 0
M  V30 4181 H 398.211 -5.64173 -0.191975 0
M  V30 4182 N 397.609 -0.515225 -1.4894 0
M  V30 4183 C 398.557 0.269115 -2.31038 0
M  V30 4184 C 399.551 0.949443 -1.40292 0
M  V30 4185 O 400.757 0.87551 -1.57273 0
M  V30 4186 H 397.132 0.10565 -0.744542 0
M  V30 4187 H 399.103 -0.443096 -2.95092 0
M  V30 4188 C 397.852 1.31213 -3.21991 0
M  V30 4189 H 397.175 0.798034 -3.91754 0
M  V30 4190 H 398.615 1.83263 -3.82349 0
M  V30 4191 C 397.074 2.33791 -2.42576 0
M  V30 4192 O 397.604 3.3995 -2.14003 0
M  V30 4193 N 395.81 2.06625 -2.0434 0
M  V30 4194 H 395.357 1.20314 -2.27777 0
M  V30 4195 H 395.315 2.75483 -1.51514 0
M  V30 4196 N 399.087 1.5561 -0.249682 0
M  V30 4197 C 400.364 1.90932 0.424761 0
M  V30 4198 C 400.744 1.17078 1.75658 0
M  V30 4199 O 400.092 0.289176 2.26663 0
M  V30 4200 C 400.302 3.43975 0.590109 0
M  V30 4201 C 401.65 4.15281 0.884714 0
M  V30 4202 O 402.674 3.49729 0.67587 0
M  V30 4203 O 401.533 5.31236 1.28259 0
M  V30 4204 H 398.627 0.794815 0.228468 0
M  V30 4205 H 401.173 1.67135 -0.293954 0
M  V30 4206 H 399.945 3.89748 -0.34818 0
M  V30 4207 H 399.568 3.73644 1.35926 0
M  V30 4208 N 400.565 -0.0233959 1.57583 0
M  V30 4209 C 401.842 -0.748794 1.807 0
M  V30 4210 C 402.222 -1.9327 0.849106 0
M  V30 4211 O 401.57 -2.28247 -0.107468 0
M  V30 4212 C 401.78 -1.17651 3.28571 0
M  V30 4213 C 403.128 -1.59008 3.93702 0
M  V30 4214 O 404.152 -1.27094 3.32755 0
M  V30 4215 O 403.011 -2.18264 5.01022 0
M  V30 4216 H 400.105 -0.362578 0.743281 0
M  V30 4217 H 402.651 0.000261958 1.697 0
M  V30 4218 H 401.423 -0.331603 3.89892 0
M  V30 4219 H 401.046 -1.98541 3.44481 0
M  V30 4220 N 402.043 -1.548 -0.295768 0
M  V30 4221 C 402.953 -1.89177 -1.38742 0
M  V30 4222 C 403.969 -0.786481 -1.55211 0
M  V30 4223 O 405.145 -1.08344 -1.69775 0
M  V30 4224 C 402.21 -2.13663 -2.73036 0
M  V30 4225 C 401.271 -3.37349 -2.65508 0
M  V30 4226 C 400.504 -3.60658 -3.93398 0
M  V30 4227 O 400.727 -2.86882 -4.93006 0
M  V30 4228 O 399.661 -4.54179 -3.94975 0
M  V30 4229 H 403.487 -2.82059 -1.12589 0
M  V30 4230 H 401.072 -1.41056 -0.492295 0
M  V30 4231 H 402.954 -2.3094 -3.52484 0
M  V30 4232 H 401.629 -1.23967 -2.99022 0
M  V30 4233 H 400.536 -3.25431 -1.84514 0
M  V30 4234 H 401.869 -4.27192 -2.44474 0
M  V30 4235 N 403.521 0.559213 -1.47345 0
M  V30 4236 C 404.454 1.68201 -1.5422 0
M  V30 4237 C 405.432 1.57742 -0.394497 0
M  V30 4238 O 406.616 1.78628 -0.60201 0
M  V30 4239 C 403.743 3.0643 -1.44285 0
M  V30 4240 C 402.789 3.3534 -2.63532 0
M  V30 4241 S 403.622 3.24816 -4.25741 0
M  V30 4242 C 404.778 4.65542 -4.18355 0
M  V30 4243 H 405.011 1.62114 -2.49211 0
M  V30 4244 H 402.544 0.739871 -1.35519 0
M  V30 4245 H 404.502 3.86164 -1.3924 0
M  V30 4246 H 403.163 3.09984 -0.506816 0
M  V30 4247 H 402.356 4.36107 -2.52639 0
M  V30 4248 H 401.958 2.63221 -2.65689 0
M  V30 4249 H 404.25 5.56449 -3.86485 0
M  V30 4250 H 405.193 4.81493 -5.19202 0
M  V30 4251 H 405.601 4.43495 -3.49246 0
M  V30 4252 N 404.999 1.35443 0.805782 0
M  V30 4253 C 406.246 1.28761 1.56291 0
M  V30 4254 C 406.574 -0.137747 1.94012 0
M  V30 4255 O 405.829 -1.1032 1.61642 0
M  V30 4256 C 406.128 2.14045 2.86216 0
M  V30 4257 C 405.794 3.62826 2.67709 0
M  V30 4258 C 404.456 4.0338 2.6237 0
M  V30 4259 C 406.808 4.57227 2.50186 0
M  V30 4260 C 404.136 5.36501 2.37451 0
M  V30 4261 C 406.488 5.90547 2.26797 0
M  V30 4262 C 405.152 6.30245 2.1988 0
M  V30 4263 H 404.422 0.471171 0.571908 0
M  V30 4264 H 407.069 1.67347 0.930974 0
M  V30 4265 H 405.374 1.68342 3.53791 0
M  V30 4266 H 407.071 2.0621 3.43917 0
M  V30 4267 H 403.661 3.30644 2.72713 0
M  V30 4268 H 407.845 4.2678 2.53323 0
M  V30 4269 H 403.101 5.66259 2.30567 0
M  V30 4270 H 407.275 6.63274 2.12228 0
M  V30 4271 H 404.902 7.33328 2.00333 0
M  V30 4272 N 406.477 -1.02803 1.19454 0
M  V30 4273 C 407.702 -1.80378 1.02364 0
M  V30 4274 C 408.127 -1.83282 -0.423007 0
M  V30 4275 O 407.485 -1.25945 -1.30413 0
M  V30 4276 C 407.533 -3.23248 1.59821 0
M  V30 4277 O 406.637 -4.04 0.828105 0
M  V30 4278 H 405.978 -0.556799 0.361761 0
M  V30 4279 H 408.508 -1.29385 1.58495 0
M  V30 4280 H 408.518 -3.73994 1.63073 0
M  V30 4281 H 407.193 -3.2045 2.65113 0
M  V30 4282 H 405.77 -3.62635 0.86891 0
M  V30 4283 N 407.956 -0.998596 -1.21925 0
M  V30 4284 C 409.181 -0.696015 -1.95372 0
M  V30 4285 C 409.606 0.733826 -1.73195 0
M  V30 4286 O 408.964 1.50242 -1.01474 0
M  V30 4287 C 409.012 -1.01466 -3.4603 0
M  V30 4288 O 408.116 -0.116415 -4.12236 0
M  V30 4289 H 407.457 -0.259938 -0.611006 0
M  V30 4290 H 409.987 -1.33711 -1.54863 0
M  V30 4291 H 409.997 -0.958855 -3.96573 0
M  V30 4292 H 408.672 -2.05653 -3.61497 0
M  V30 4293 H 407.249 -0.228193 -3.72201 0
M  V30 4294 N 409.434 1.37368 -0.772513 0
M  V30 4295 C 410.397 2.28601 -0.165541 0
M  V30 4296 C 411.397 1.48062 0.627238 0
M  V30 4297 O 412.587 1.68268 0.450715 0
M  V30 4298 C 409.719 3.32023 0.772897 0
M  V30 4299 H 410.912 2.83787 -0.969787 0
M  V30 4300 H 408.465 1.46647 -0.540775 0
M  V30 4301 H 409.2 2.81962 1.60212 0
M  V30 4302 H 408.985 3.91555 0.206585 0
M  V30 4303 H 410.475 4.00197 1.19298 0
M  V30 4304 N 410.912 0.523116 1.48665 0
M  V30 4305 C 411.859 -0.243398 2.29513 0
M  V30 4306 C 412.829 -0.940139 1.36933 0
M  V30 4307 O 414.014 -0.942503 1.65896 0
M  V30 4308 C 411.154 -1.28855 3.20141 0
M  V30 4309 C 410.267 -0.60135 4.27794 0
M  V30 4310 C 409.402 -1.62884 5.05611 0
M  V30 4311 C 408.441 -0.924726 6.05075 0
M  V30 4312 N 407.578 -1.89744 6.75975 0
M  V30 4313 H 412.418 0.452234 2.94549 0
M  V30 4314 H 409.955 0.234858 1.45213 0
M  V30 4315 H 411.913 -1.90674 3.71079 0
M  V30 4316 H 410.543 -1.95266 2.57043 0
M  V30 4317 H 409.595 0.130623 3.80176 0
M  V30 4318 H 410.907 -0.0481585 4.98777 0
M  V30 4319 H 410.061 -2.32149 5.60528 0
M  V30 4320 H 408.8 -2.21592 4.34452 0
M  V30 4321 H 407.805 -0.217966 5.49368 0
M  V30 4322 H 409.03 -0.343851 6.78229 0
M  V30 4323 H 406.976 -2.47373 6.07571 0
M  V30 4324 H 406.893 -1.3955 7.43009 0
M  V30 4325 H 408.161 -2.58229 7.35485 0
M  V30 4326 N 412.39 -1.55475 0.257931 0
M  V30 4327 C 413.3 -2.2549 -0.647425 0
M  V30 4328 C 414.316 -1.2748 -1.18427 0
M  V30 4329 O 415.492 -1.6038 -1.2182 0
M  V30 4330 C 412.557 -2.94916 -1.82278 0
M  V30 4331 C 411.618 -4.08363 -1.32432 0
M  V30 4332 C 410.851 -4.74469 -2.44366 0
M  V30 4333 O 411.074 -4.39701 -3.63344 0
M  V30 4334 O 410.008 -5.62763 -2.13497 0
M  V30 4335 H 413.834 -3.03593 -0.0807707 0
M  V30 4336 H 411.419 -1.49377 0.0259962 0
M  V30 4337 H 413.301 -3.38606 -2.50846 0
M  V30 4338 H 411.976 -2.19744 -2.37685 0
M  V30 4339 H 410.883 -3.69166 -0.605605 0
M  V30 4340 H 412.216 -4.85385 -0.816211 0
M  V30 4341 N 413.868 0.0150385 -1.57593 0
M  V30 4342 C 414.798 1.01047 -2.10503 0
M  V30 4343 C 415.779 1.36816 -1.01071 0
M  V30 4344 O 416.964 1.45455 -1.28672 0
M  V30 4345 C 414.094 2.30708 -2.59598 0
M  V30 4346 C 413.048 2.09142 -3.73421 0
M  V30 4347 C 412.374 3.44685 -4.08774 0
M  V30 4348 C 413.674 1.46619 -5.01298 0
M  V30 4349 H 415.368 0.569978 -2.93925 0
M  V30 4350 H 412.914 0.272724 -1.41394 0
M  V30 4351 H 414.867 3.00687 -2.95238 0
M  V30 4352 H 413.591 2.76843 -1.73279 0
M  V30 4353 H 412.25 1.41592 -3.38153 0
M  V30 4354 H 411.898 3.88495 -3.195 0
M  V30 4355 H 411.598 3.31077 -4.8545 0
M  V30 4356 H 413.122 4.16004 -4.4696 0
M  V30 4357 H 414.536 2.06535 -5.34805 0
M  V30 4358 H 412.933 1.43544 -5.82679 0
M  V30 4359 H 414.003 0.433611 -4.82957 0
M  V30 4360 N 415.346 1.54954 0.287554 0
M  V30 4361 C 416.592 1.75132 1.02257 0
M  V30 4362 C 416.925 0.542858 1.86458 0
M  V30 4363 O 416.2 -0.459856 1.88986 0
M  V30 4364 C 416.483 3.04812 1.91733 0
M  V30 4365 C 416.336 4.35985 1.10622 0
M  V30 4366 C 417.655 3.30438 2.90687 0
M  V30 4367 H 414.774 0.637194 0.370341 0
M  V30 4368 H 417.416 1.87678 0.296111 0
M  V30 4369 H 415.566 2.94247 2.53675 0
M  V30 4370 H 417.238 4.58487 0.508636 0
M  V30 4371 H 415.481 4.31865 0.409271 0
M  V30 4372 H 416.152 5.23017 1.76513 0
M  V30 4373 H 418.628 3.40701 2.38877 0
M  V30 4374 H 417.504 4.22467 3.50447 0
M  V30 4375 H 417.765 2.49377 3.65053 0
M  V30 4376 N 416.824 -0.551391 1.4764 0
M  V30 4377 C 418.07 -1.31024 1.54792 0
M  V30 4378 C 418.403 -1.9304 0.211967 0
M  V30 4379 O 417.678 -1.78175 -0.77999 0
M  V30 4380 C 417.961 -2.41593 2.67029 0
M  V30 4381 C 417.814 -1.84408 4.10261 0
M  V30 4382 C 419.133 -3.43488 2.75143 0
M  V30 4383 H 416.252 -0.475031 0.563485 0
M  V30 4384 H 418.894 -0.616454 1.79722 0
M  V30 4385 H 417.044 -3.00772 2.45904 0
M  V30 4386 H 418.716 -1.29445 4.42766 0
M  V30 4387 H 416.959 -1.15051 4.18265 0
M  V30 4388 H 417.63 -2.64367 4.84576 0
M  V30 4389 H 420.106 -2.94236 2.94218 0
M  V30 4390 H 418.982 -4.18274 3.55441 0
M  V30 4391 H 419.243 -4.02703 1.82435 0
M  V30 4392 N 418.302 -1.35869 -0.798587 0
M  V30 4393 C 419.548 -1.2978 -1.55836 0
M  V30 4394 C 419.881 0.125322 -1.93795 0
M  V30 4395 O 419.156 1.07658 -1.61987 0
M  V30 4396 C 419.439 -2.21188 -2.84162 0
M  V30 4397 C 419.292 -3.72155 -2.52628 0
M  V30 4398 C 420.611 -2.11545 -3.85923 0
M  V30 4399 H 417.73 -0.472769 -0.565383 0
M  V30 4400 H 420.372 -1.66341 -0.918192 0
M  V30 4401 H 418.522 -1.90139 -3.38791 0
M  V30 4402 H 420.194 -4.13682 -2.04121 0
M  V30 4403 H 418.437 -3.92042 -1.85704 0
M  V30 4404 H 419.108 -4.31511 -3.44242 0
M  V30 4405 H 421.584 -2.38855 -3.40716 0
M  V30 4406 H 420.46 -2.77688 -4.73477 0
M  V30 4407 H 420.721 -1.09987 -4.282 0
M  V30 4408 N 419.78 1.02168 -1.19998 0
M  V30 4409 C 421.01 1.79036 -1.031 0
M  V30 4410 C 421.418 1.84409 0.423078 0
M  V30 4411 O 420.761 1.29228 1.30559 0
M  V30 4412 C 420.823 3.25185 -1.53281 0
M  V30 4413 C 420.487 3.43431 -3.01503 0
M  V30 4414 C 421.484 3.33063 -3.99206 0
M  V30 4415 C 419.169 3.69412 -3.40353 0
M  V30 4416 C 421.163 3.48413 -5.33748 0
M  V30 4417 C 418.85 3.84406 -4.75053 0
M  V30 4418 C 419.848 3.7391 -5.71559 0
M  V30 4419 O 419.536 3.88452 -7.03818 0
M  V30 4420 H 419.268 0.570043 -0.363355 0
M  V30 4421 H 421.822 1.29524 -1.59414 0
M  V30 4422 H 420.052 3.75756 -0.913483 0
M  V30 4423 H 421.741 3.83671 -1.32481 0
M  V30 4424 H 422.507 3.12934 -3.70537 0
M  V30 4425 H 418.386 3.76671 -2.65782 0
M  V30 4426 H 421.93 3.40137 -6.09059 0
M  V30 4427 H 417.827 4.04035 -5.03415 0
M  V30 4428 H 418.595 4.055 -7.10993 0
M  V30 4429 N 421.258 1.00505 1.21394 0
M  V30 4430 C 422.168 0.574806 2.27449 0
M  V30 4431 C 423.184 -0.382206 1.6975 0
M  V30 4432 O 424.36 -0.246027 1.99892 0
M  V30 4433 C 421.425 -0.0917414 3.46579 0
M  V30 4434 C 420.486 0.909758 4.1955 0
M  V30 4435 C 419.719 0.274924 5.32991 0
M  V30 4436 O 419.942 -0.928254 5.62796 0
M  V30 4437 O 418.876 0.985877 5.93771 0
M  V30 4438 H 422.702 1.45744 2.66444 0
M  V30 4439 H 420.287 0.773923 1.27792 0
M  V30 4440 H 422.169 -0.464551 4.18832 0
M  V30 4441 H 420.844 -0.948755 3.09484 0
M  V30 4442 H 419.751 1.33372 3.49518 0
M  V30 4443 H 421.084 1.73636 4.60555 0
M  V30 4444 N 422.737 -1.36956 0.779787 0
M  V30 4445 C 423.985 -1.99097 0.347079 0
M  V30 4446 C 424.306 -1.62206 -1.08232 0
M  V30 4447 O 423.576 -0.891373 -1.74446 0
M  V30 4448 H 422.156 -0.736409 0.125342 0
M  V30 4449 H 424.818 -1.67308 0.999696 0
M  V30 4450 H 423.914 -3.09107 0.431162 0
M  V30 4451 N 424.215 -0.530993 -1.48385 0
M  V30 4452 C 425.148 0.278511 -2.26494 0
M  V30 4453 C 426.126 0.943905 -1.32398 0
M  V30 4454 O 427.31 0.968098 -1.61741 0
M  V30 4455 C 424.437 1.39453 -3.08659 0
M  V30 4456 C 423.483 0.840434 -4.18137 0
M  V30 4457 S 424.316 -0.292496 -5.34701 0
M  V30 4458 C 425.472 0.825973 -6.20426 0
M  V30 4459 H 425.705 -0.384365 -2.94805 0
M  V30 4460 H 423.238 -0.316799 -1.51115 0
M  V30 4461 H 425.196 2.03382 -3.56575 0
M  V30 4462 H 423.857 2.02913 -2.3976 0
M  V30 4463 H 423.05 1.67769 -4.75257 0
M  V30 4464 H 422.652 0.277819 -3.72967 0
M  V30 4465 H 424.944 1.72438 -6.55188 0
M  V30 4466 H 425.887 0.292728 -7.07495 0
M  V30 4467 H 426.295 1.10683 -5.53543 0
M  V30 4468 N 425.693 1.55336 -0.266172 0
M  V30 4469 C 427.104 1.85236 0.233315 0
M  V30 4470 C 427.455 1.18816 1.56132 0
M  V30 4471 O 426.58 0.473307 2.11161 0
M  V30 4472 C 427.175 3.36059 0.430113 0
M  V30 4473 C 425.734 3.66116 0.873842 0
M  V30 4474 C 424.881 2.77274 -0.0380016 0
M  V30 4475 H 427.832 1.51004 -0.488214 0
M  V30 4476 H 427.853 3.58681 1.26998 0
M  V30 4477 H 427.365 3.84373 -0.536588 0
M  V30 4478 H 425.466 3.23295 1.85233 0
M  V30 4479 H 425.579 4.73699 0.717358 0
M  V30 4480 H 423.943 2.50198 0.476759 0
M  V30 4481 H 424.726 3.284 -1.00042 0
M  V30 4482 N 427.171 -0.0066808 1.57599 0
M  V30 4483 C 428.396 -0.707738 1.94951 0
M  V30 4484 C 428.821 -1.66882 0.867868 0
M  V30 4485 O 428.179 -1.80457 -0.17458 0
M  V30 4486 C 428.227 -1.42162 3.31394 0
M  V30 4487 O 427.331 -2.53578 3.25226 0
M  V30 4488 H 426.672 -0.188752 0.636607 0
M  V30 4489 H 429.202 0.0445193 2.04552 0
M  V30 4490 H 429.212 -1.78655 3.66806 0
M  V30 4491 H 427.887 -0.716903 4.09675 0
M  V30 4492 H 426.464 -2.19463 3.01481 0
M  V30 4493 N 428.649 -1.55105 -0.279332 0
M  V30 4494 C 429.879 -1.7917 -1.02867 0
M  V30 4495 C 430.287 -0.56204 -1.80659 0
M  V30 4496 O 429.63 0.478266 -1.77365 0
M  V30 4497 C 429.692 -2.96061 -2.03932 0
M  V30 4498 C 429.356 -4.33341 -1.45137 0
M  V30 4499 C 430.353 -5.12565 -0.870266 0
M  V30 4500 C 428.038 -4.79987 -1.48048 0
M  V30 4501 C 430.032 -6.36565 -0.326097 0
M  V30 4502 C 427.719 -6.03944 -0.932443 0
M  V30 4503 C 428.717 -6.8207 -0.356247 0
M  V30 4504 O 428.405 -8.03691 0.183412 0
M  V30 4505 H 428.137 -0.600796 -0.309872 0
M  V30 4506 H 430.691 -2.02932 -0.317468 0
M  V30 4507 H 428.921 -2.67975 -2.78794 0
M  V30 4508 H 430.61 -3.07506 -2.64943 0
M  V30 4509 H 431.376 -4.77661 -0.840521 0
M  V30 4510 H 427.255 -4.1919 -1.91835 0
M  V30 4511 H 430.799 -6.97489 0.124286 0
M  V30 4512 H 426.696 -6.3833 -0.959407 0
M  V30 4513 H 427.464 -8.18468 0.0721681 0
M  V30 4514 N 430.127 0.543554 -1.4793 0
M  V30 4515 C 431.375 1.29752 -1.54948 0
M  V30 4516 C 431.696 1.93764 -0.219242 0
M  V30 4517 O 430.966 1.80639 0.75805 0
M  V30 4518 H 429.546 0.481874 -0.570795 0
M  V30 4519 H 432.208 0.633636 -1.84312 0
M  V30 4520 H 431.304 2.08392 -2.32334 0
M  V30 4521 N 431.605 1.3629 0.791371 0
M  V30 4522 C 432.853 1.30154 1.5461 0
M  V30 4523 C 433.174 -0.119409 1.94634 0
M  V30 4524 O 432.444 -1.05924 1.64794 0
M  V30 4525 H 431.024 0.478784 0.573389 0
M  V30 4526 H 433.686 1.70565 0.94306 0
M  V30 4527 H 432.782 1.92762 2.45457 0
M  V30 4528 N 433.083 -1.0153 1.20538 0
M  V30 4529 C 434.013 -2.11972 0.979295 0
M  V30 4530 C 434.994 -1.6985 -0.0921787 0
M  V30 4531 O 436.179 -1.94089 0.0655932 0
M  V30 4532 C 433.309 -3.43201 0.531984 0
M  V30 4533 C 432.263 -3.9907 1.54685 0
M  V30 4534 C 431.589 -5.26082 0.956127 0
M  V30 4535 C 432.889 -4.32313 2.93092 0
M  V30 4536 H 434.583 -2.31143 1.90298 0
M  V30 4537 H 432.129 -1.11079 0.916372 0
M  V30 4538 H 434.082 -4.1985 0.361044 0
M  V30 4539 H 432.806 -3.23792 -0.427327 0
M  V30 4540 H 431.465 -3.2453 1.70517 0
M  V30 4541 H 431.113 -5.02999 -0.0111538 0
M  V30 4542 H 430.813 -5.64426 1.63393 0
M  V30 4543 H 432.337 -6.05386 0.796284 0
M  V30 4544 H 433.751 -4.99845 2.80763 0
M  V30 4545 H 432.148 -4.81774 3.57791 0
M  V30 4546 H 433.218 -3.41025 3.44717 0
M  V30 4547 N 434.561 -1.01147 -1.20859 0
M  V30 4548 C 435.524 -0.582224 -2.21682 0
M  V30 4549 C 436.524 0.344887 -1.57058 0
M  V30 4550 O 437.714 0.134281 -1.73682 0
M  V30 4551 C 434.846 0.150496 -3.40568 0
M  V30 4552 H 436.039 -1.47408 -2.61172 0
M  V30 4553 H 433.592 -0.800695 -1.34233 0
M  V30 4554 H 434.327 1.0575 -3.06574 0
M  V30 4555 H 434.112 -0.515444 -3.88697 0
M  V30 4556 H 435.602 0.438344 -4.15293 0
M  V30 4557 N 436.039 1.36541 -0.78704 0
M  V30 4558 C 437.287 1.98911 -0.357633 0
M  V30 4559 C 437.608 1.62778 1.07371 0
M  V30 4560 O 436.878 0.900612 1.73971 0
M  V30 4561 H 435.458 0.735734 -0.129246 0
M  V30 4562 H 438.12 1.66776 -1.00855 0
M  V30 4563 H 437.216 3.08874 -0.447549 0
M  V30 4564 N 437.518 0.538854 1.48102 0
M  V30 4565 C 438.934 0.19732 1.58376 0
M  V30 4566 C 439.134 -1.29971 1.5398 0
M  V30 4567 O 438.19 -2.07861 1.43352 0
M  V30 4568 C 439.503 0.807716 2.89649 0
M  V30 4569 C 441.051 0.77726 3.03196 0
M  V30 4570 C 441.526 1.36639 4.37143 0
M  V30 4571 N 443.017 1.32875 4.43732 0
M  V30 4572 C 443.752 1.7544 5.45901 0
M  V30 4573 N 443.248 2.25776 6.54979 0
M  V30 4574 N 445.041 1.66623 5.36836 0
M  V30 4575 H 437.192 1.5117 1.49202 0
M  V30 4576 H 439.455 0.629327 0.708979 0
M  V30 4577 H 439.161 1.85909 2.98548 0
M  V30 4578 H 439.035 0.289975 3.76084 0
M  V30 4579 H 441.422 -0.265374 2.93904 0
M  V30 4580 H 441.503 1.33256 2.18349 0
M  V30 4581 H 441.147 2.408 4.47189 0
M  V30 4582 H 441.077 0.786689 5.20691 0
M  V30 4583 H 443.568 0.96037 3.65493 0
M  V30 4584 H 443.881 2.56226 7.29087 0
M  V30 4585 H 442.226 2.29775 6.55918 0
M  V30 4586 H 445.417 1.27089 4.50517 0
M  V30 4587 H 445.59 2.00115 6.16326 0
M  V30 4588 N 438.996 -1.55193 0.274407 0
M  V30 4589 C 440.273 -1.91584 -0.394331 0
M  V30 4590 C 440.653 -1.19858 -1.73774 0
M  V30 4591 O 440.001 -0.3252 -2.26174 0
M  V30 4592 C 440.211 -3.4487 -0.535311 0
M  V30 4593 C 441.559 -4.16636 -0.818534 0
M  V30 4594 O 442.583 -3.5076 -0.620146 0
M  V30 4595 O 441.442 -5.33209 -1.19792 0
M  V30 4596 H 438.536 -0.798349 -0.215794 0
M  V30 4597 H 441.082 -1.66646 0.320507 0
M  V30 4598 H 439.854 -3.89145 0.410141 0
M  V30 4599 H 439.477 -3.75759 -1.29964 0
M  V30 4600 N 440.474 -0.00167713 -1.576 0
M  V30 4601 C 441.407 1.02317 -2.03977 0
M  V30 4602 C 442.385 1.33381 -0.929963 0
M  V30 4603 O 443.569 1.45517 -1.19822 0
M  V30 4604 C 440.696 2.35035 -2.43878 0
M  V30 4605 C 439.742 2.19621 -3.65607 0
M  V30 4606 S 440.575 1.52068 -5.13455 0
M  V30 4607 C 441.731 2.86212 -5.56627 0
M  V30 4608 H 441.964 0.628285 -2.90585 0
M  V30 4609 H 439.497 0.209239 -1.52976 0
M  V30 4610 H 441.455 3.11345 -2.67534 0
M  V30 4611 H 440.116 2.71663 -1.57665 0
M  V30 4612 H 439.309 3.1767 -3.91282 0
M  V30 4613 H 438.911 1.51455 -3.41961 0
M  V30 4614 H 441.203 3.82509 -5.59189 0
M  V30 4615 H 442.146 2.65235 -6.56549 0
M  V30 4616 H 442.554 2.90199 -4.84195 0
M  V30 4617 N 441.952 1.55251 0.271103 0
M  V30 4618 C 442.862 1.9136 1.35714 0
M  V30 4619 C 443.878 0.811075 1.5394 0
M  V30 4620 O 445.054 1.11031 1.6803 0
M  V30 4621 C 442.119 2.1798 2.69603 0
M  V30 4622 C 441.18 3.4153 2.60107 0
M  V30 4623 C 440.413 3.66871 3.8761 0
M  V30 4624 O 440.636 2.94689 4.8838 0
M  V30 4625 O 439.57 4.60405 3.87699 0
M  V30 4626 H 443.396 2.83815 1.08088 0
M  V30 4627 H 440.981 1.41821 0.469792 0
M  V30 4628 H 442.863 2.36518 3.48765 0
M  V30 4629 H 441.538 1.28708 2.97012 0
M  V30 4630 H 440.445 3.28325 1.79314 0
M  V30 4631 H 441.778 4.31027 2.37647 0
M  V30 4632 N 443.43 -0.535701 1.48216 0
M  V30 4633 C 444.393 -1.623 1.61838 0
M  V30 4634 C 445.393 -1.53087 0.492024 0
M  V30 4635 O 446.583 -1.5686 0.757668 0
M  V30 4636 C 443.715 -3.01907 1.58319 0
M  V30 4637 H 444.908 -1.51564 2.58783 0
M  V30 4638 H 442.461 -0.757317 1.36727 0
M  V30 4639 H 443.196 -3.18155 0.628299 0
M  V30 4640 H 442.981 -3.10003 2.40085 0
M  V30 4641 H 444.471 -3.80969 1.71033 0
M  V30 4642 N 444.908 -1.36708 -0.784132 0
M  V30 4643 C 445.841 -1.25827 -1.90375 0
M  V30 4644 C 446.819 -0.141331 -1.61985 0
M  V30 4645 O 448.003 -0.313389 -1.85877 0
M  V30 4646 C 445.13 -0.942621 -3.25319 0
M  V30 4647 C 444.176 -2.07474 -3.72635 0
M  V30 4648 S 445.009 -3.69317 -3.8777 0
M  V30 4649 C 446.165 -3.39876 -5.25581 0
M  V30 4650 H 446.398 -2.20593 -1.99314 0
M  V30 4651 H 443.931 -1.22186 -0.943926 0
M  V30 4652 H 445.889 -0.767321 -4.03265 0
M  V30 4653 H 444.55 -0.0126566 -3.14097 0
M  V30 4654 H 443.743 -1.80858 -4.70432 0
M  V30 4655 H 443.345 -2.20953 -3.01754 0
M  V30 4656 H 445.637 -2.94097 -6.10339 0
M  V30 4657 H 446.58 -4.36956 -5.57203 0
M  V30 4658 H 446.988 -2.75098 -4.92931 0
M  V30 4659 N 446.386 1.0089 -1.21074 0
M  V30 4660 C 447.349 2.0775 -0.968129 0
M  V30 4661 C 448.349 1.6069 0.0593445 0
M  V30 4662 O 449.539 1.73293 -0.177525 0
M  V30 4663 C 446.671 3.37794 -0.459108 0
M  V30 4664 H 447.864 2.30707 -1.9161 0
M  V30 4665 H 445.417 1.17807 -1.02719 0
M  V30 4666 H 446.152 3.20516 0.49397 0
M  V30 4667 H 445.937 3.7328 -1.20019 0
M  V30 4668 H 447.427 4.16454 -0.309099 0
M  V30 4669 N 447.864 1.01787 1.20321 0
M  V30 4670 C 449.113 0.703249 1.89043 0
M  V30 4671 C 449.426 -0.770445 1.79787 0
M  V30 4672 O 450.632 -1.19767 2.43656 0
M  V30 4673 C 449.088 1.20749 3.3904 0
M  V30 4674 C 448.696 2.70817 3.56878 0
M  V30 4675 C 450.44 0.968352 4.13308 0
M  V30 4676 C 448.347 3.14716 5.00708 0
M  V30 4677 H 447.277 0.259354 0.707991 0
M  V30 4678 H 449.928 1.23072 1.36108 0
M  V30 4679 H 448.31 0.607989 3.91305 0
M  V30 4680 H 449.484 3.36327 3.14993 0
M  V30 4681 H 447.799 2.92888 2.95983 0
M  V30 4682 H 450.396 1.27173 5.19356 0
M  V30 4683 H 450.739 -0.095149 4.16191 0
M  V30 4684 H 451.272 1.53129 3.67146 0
M  V30 4685 H 448.011 4.20347 5.02979 0
M  V30 4686 H 447.531 2.53927 5.43398 0
M  V30 4687 H 449.21 3.07426 5.69296 0
M  V30 4688 N 449.342 -1.36122 0.79427 0
M  V30 4689 C 450.59 -1.98718 0.368177 0
M  V30 4690 C 450.911 -1.63345 -1.06506 0
M  V30 4691 O 450.181 -0.909825 -1.73491 0
M  V30 4692 H 448.761 -0.735038 0.133146 0
M  V30 4693 H 451.423 -1.66239 1.01739 0
M  V30 4694 H 450.519 -3.08633 0.463923 0
M  V30 4695 N 450.82 -0.546701 -1.47814 0
M  V30 4696 C 451.75 0.195317 -2.32682 0
M  V30 4697 C 452.731 0.918981 -1.43139 0
M  V30 4698 O 453.916 0.901501 -1.72008 0
M  V30 4699 C 451.046 1.23237 -3.247 0
M  V30 4700 C 450 0.625818 -4.234 0
M  V30 4701 C 449.326 1.76674 -5.04669 0
M  V30 4702 C 450.626 -0.413515 -5.2066 0
M  V30 4703 H 452.32 -0.513184 -2.94969 0
M  V30 4704 H 449.866 -0.248241 -1.41844 0
M  V30 4705 H 451.819 1.75955 -3.82907 0
M  V30 4706 H 450.543 1.97067 -2.60446 0
M  V30 4707 H 449.202 0.120023 -3.66403 0
M  V30 4708 H 448.85 2.49383 -4.36826 0
M  V30 4709 H 448.55 1.36673 -5.71484 0
M  V30 4710 H 450.074 2.29738 -5.65732 0
M  V30 4711 H 451.488 0.0272042 -5.73294 0
M  V30 4712 H 449.885 -0.731825 -5.95621 0
M  V30 4713 H 450.955 -1.31325 -4.66778 0
M  V30 4714 N 452.299 1.55045 -0.282633 0
M  V30 4715 C 453.715 1.59441 0.0712997 0
M  V30 4716 C 453.915 1.2998 1.53972 0
M  V30 4717 O 452.971 1.06431 2.28973 0
M  V30 4718 C 454.284 2.99097 -0.310104 0
M  V30 4719 C 455.832 3.1194 -0.257343 0
M  V30 4720 C 456.307 4.53875 -0.613297 0
M  V30 4721 N 457.798 4.5974 -0.565134 0
M  V30 4722 C 458.533 5.67603 -0.81326 0
M  V30 4723 N 458.029 6.83582 -1.1264 0
M  V30 4724 N 459.822 5.57187 -0.741553 0
M  V30 4725 H 451.973 1.72458 -1.23984 0
M  V30 4726 H 454.236 0.804549 -0.501403 0
M  V30 4727 H 453.942 3.25516 -1.33163 0
M  V30 4728 H 453.816 3.75616 0.345366 0
M  V30 4729 H 456.203 2.85281 0.754905 0
M  V30 4730 H 456.284 2.37618 -0.947178 0
M  V30 4731 H 455.928 4.81261 -1.62327 0
M  V30 4732 H 455.858 5.26508 0.09841 0
M  V30 4733 H 458.349 3.76427 -0.333294 0
M  V30 4734 H 458.662 7.6175 -1.30219 0
M  V30 4735 H 457.007 6.85179 -1.16425 0
M  V30 4736 H 460.198 4.65457 -0.496705 0
M  V30 4737 H 460.371 6.41171 -0.938306 0
M  V30 4738 N 453.777 0.010035 1.57597 0
M  V30 4739 C 454.687 -0.994226 2.12491 0
M  V30 4740 C 455.703 -1.37013 1.07254 0
M  V30 4741 O 456.879 -1.45542 1.3921 0
M  V30 4742 C 453.944 -2.2642 2.62555 0
M  V30 4743 C 453.005 -1.95049 3.82432 0
M  V30 4744 C 452.238 -3.15991 4.30099 0
M  V30 4745 O 452.461 -4.28015 3.7704 0
M  V30 4746 O 451.395 -2.99403 5.22151 0
M  V30 4747 H 455.221 -0.557549 2.98538 0
M  V30 4748 H 452.806 -0.209413 1.47925 0
M  V30 4749 H 454.688 -3.01009 2.9491 0
M  V30 4750 H 453.363 -2.69306 1.796 0
M  V30 4751 H 452.27 -1.17904 3.55034 0
M  V30 4752 H 453.603 -1.56992 4.66491 0
M  V30 4753 N 455.255 -1.55392 -0.262866 0
M  V30 4754 C 456.218 -1.88181 -1.30846 0
M  V30 4755 C 457.218 -0.757079 -1.41862 0
M  V30 4756 O 458.408 -1.02519 -1.40838 0
M  V30 4757 C 455.54 -2.09609 -2.68844 0
M  V30 4758 H 456.733 -2.81659 -1.02997 0
M  V30 4759 H 454.286 -1.48039 -0.501414 0
M  V30 4760 H 455.021 -1.18547 -3.01856 0
M  V30 4761 H 454.806 -2.91508 -2.62231 0
M  V30 4762 H 456.296 -2.36215 -3.44372 0
M  V30 4763 N 456.733 0.527833 -1.48498 0
M  V30 4764 C 457.666 1.64892 -1.57753 0
M  V30 4765 C 458.644 1.5687 -0.427867 0
M  V30 4766 O 459.828 1.77311 -0.639764 0
M  V30 4767 C 456.955 3.03301 -1.50752 0
M  V30 4768 C 456.001 3.29675 -2.70586 0
M  V30 4769 S 456.834 3.15712 -4.32535 0
M  V30 4770 C 457.99 4.56564 -4.28136 0
M  V30 4771 H 458.223 1.56792 -2.52594 0
M  V30 4772 H 455.756 0.710959 -1.37057 0
M  V30 4773 H 457.714 3.83123 -1.474 0
M  V30 4774 H 456.375 3.08839 -0.572454 0
M  V30 4775 H 455.568 4.3065 -2.61833 0
M  V30 4776 H 455.17 2.57526 -2.71212 0
M  V30 4777 H 457.462 5.48126 -3.98201 0
M  V30 4778 H 458.405 4.70371 -5.29298 0
M  V30 4779 H 458.813 4.35987 -3.58574 0
M  V30 4780 N 458.211 1.37122 0.776871 0
M  V30 4781 C 459.143 1.28342 1.89897 0
M  V30 4782 C 460.156 0.200277 1.61563 0
M  V30 4783 O 461.345 0.456012 1.72577 0
M  V30 4784 C 458.445 0.960427 3.25006 0
M  V30 4785 C 457.618 2.148 3.81025 0
M  V30 4786 C 456.677 1.79608 4.94598 0
M  V30 4787 O 455.703 2.51845 5.10454 0
M  V30 4788 N 456.905 0.737171 5.758 0
M  V30 4789 H 459.67 2.25027 1.97947 0
M  V30 4790 H 457.231 1.3068 0.955739 0
M  V30 4791 H 459.223 0.705942 3.98495 0
M  V30 4792 H 457.793 0.0823066 3.12492 0
M  V30 4793 H 457.013 2.56454 2.99374 0
M  V30 4794 H 458.301 2.9411 4.15183 0
M  V30 4795 H 457.699 0.137637 5.65533 0
M  V30 4796 H 456.256 0.542534 6.49538 0
M  V30 4797 N 459.689 -1.00246 1.21608 0
M  V30 4798 C 460.919 -1.77373 1.05935 0
M  V30 4799 C 461.327 -1.85059 -0.393686 0
M  V30 4800 O 460.67 -1.31289 -1.28487 0
M  V30 4801 C 460.732 -3.22705 1.58435 0
M  V30 4802 C 460.396 -3.38591 3.06929 0
M  V30 4803 C 461.393 -3.2667 4.04454 0
M  V30 4804 C 459.078 -3.6395 3.46187 0
M  V30 4805 C 461.072 -3.39877 5.39224 0
M  V30 4806 C 458.759 -3.768 4.81108 0
M  V30 4807 C 459.757 -3.6477 5.77436 0
M  V30 4808 O 459.445 -3.77206 7.09909 0
M  V30 4809 H 459.177 -0.56419 0.372378 0
M  V30 4810 H 461.731 -1.26971 1.61454 0
M  V30 4811 H 459.961 -3.74255 0.973147 0
M  V30 4812 H 461.65 -3.81515 1.38568 0
M  V30 4813 H 462.416 -3.06999 3.75468 0
M  V30 4814 H 458.295 -3.72395 2.71741 0
M  V30 4815 H 461.839 -3.30404 6.14393 0
M  V30 4816 H 457.736 -3.95975 5.09779 0
M  V30 4817 H 458.504 -3.94138 7.17355 0
M  V30 4818 N 461.167 -1.02423 -1.1978 0
M  V30 4819 C 462.077 -0.610919 -2.26506 0
M  V30 4820 C 463.093 0.355152 -1.70337 0
M  V30 4821 O 464.269 0.214195 -2.00258 0
M  V30 4822 C 461.334 0.0365921 -3.46681 0
M  V30 4823 C 460.395 -0.976389 -4.18049 0
M  V30 4824 C 459.628 -0.359683 -5.32487 0
M  V30 4825 O 459.851 0.838601 -5.64202 0
M  V30 4826 O 458.785 -1.08022 -5.92127 0
M  V30 4827 H 462.611 -1.49965 -2.64091 0
M  V30 4828 H 460.196 -0.794156 -1.26545 0
M  V30 4829 H 462.078 0.39786 -4.19518 0
M  V30 4830 H 460.753 0.899398 -3.10954 0
M  V30 4831 H 459.66 -1.38916 -3.47352 0
M  V30 4832 H 460.993 -1.80941 -4.57735 0
M  V30 4833 N 462.645 1.35699 -0.801477 0
M  V30 4834 C 463.875 2.02862 -0.3912 0
M  V30 4835 C 464.283 1.60552 1.00099 0
M  V30 4836 O 463.626 0.796215 1.65548 0
M  V30 4837 C 463.688 3.57386 -0.389299 0
M  V30 4838 C 463.352 4.22943 -1.73113 0
M  V30 4839 C 464.349 4.44984 -2.68859 0
M  V30 4840 C 462.034 4.60167 -2.01373 0
M  V30 4841 C 464.028 5.03345 -3.91053 0
M  V30 4842 C 461.715 5.18243 -3.23832 0
M  V30 4843 C 462.713 5.39773 -4.1849 0
M  V30 4844 O 462.401 5.96626 -5.38788 0
M  V30 4845 H 462.133 0.657341 -0.157732 0
M  V30 4846 H 464.687 1.74407 -1.08496 0
M  V30 4847 H 462.917 3.85011 0.361031 0
M  V30 4848 H 464.606 4.059 -0.0020365 0
M  V30 4849 H 465.372 4.1661 -2.48316 0
M  V30 4850 H 461.251 4.42726 -1.28508 0
M  V30 4851 H 464.795 5.20065 -4.64949 0
M  V30 4852 H 460.692 5.46044 -3.44248 0
M  V30 4853 H 461.46 6.15082 -5.40015 0
M  V30 4854 N 464.123 0.554532 1.47522 0
M  V30 4855 C 465.372 0.0273458 2.01681 0
M  V30 4856 C 465.685 -1.32962 1.43459 0
M  V30 4857 O 466.891 -1.94657 1.89265 0
M  V30 4858 C 465.347 -0.00159057 3.599 0
M  V30 4859 C 464.955 1.35197 4.27113 0
M  V30 4860 C 466.699 -0.476311 4.21819 0
M  V30 4861 C 464.606 1.28229 5.77331 0
M  V30 4862 H 463.536 0.00645269 0.753972 0
M  V30 4863 H 466.187 0.701985 1.69542 0
M  V30 4864 H 464.569 -0.741821 3.8899 0
M  V30 4865 H 465.743 2.1097 4.09668 0
M  V30 4866 H 464.058 1.76441 3.77171 0
M  V30 4867 H 466.655 -0.5468 5.31897 0
M  V30 4868 H 466.998 -1.4877 3.8881 0
M  V30 4869 H 467.531 0.20898 3.97251 0
M  V30 4870 H 464.27 2.26959 6.14955 0
M  V30 4871 H 463.79 0.566314 5.97121 0
M  V30 4872 H 465.469 0.983226 6.39485 0
M  V30 4873 N 465.601 -1.54893 0.290851 0
M  V30 4874 C 466.511 -2.26812 -0.59945 0
M  V30 4875 C 467.527 -1.29963 -1.15696 0
M  V30 4876 O 468.703 -1.62928 -1.18391 0
M  V30 4877 C 465.768 -2.98716 -1.75982 0
M  V30 4878 C 464.829 -4.1108 -1.2374 0
M  V30 4879 C 464.062 -4.79546 -2.34246 0
M  V30 4880 O 464.285 -4.47309 -3.53936 0
M  V30 4881 O 463.219 -5.67165 -2.01512 0
M  V30 4882 H 467.045 -3.03696 -0.0163561 0
M  V30 4883 H 464.63 -1.49289 0.0576755 0
M  V30 4884 H 466.512 -3.43851 -2.43607 0
M  V30 4885 H 465.187 -2.24737 -2.3297 0
M  V30 4886 H 464.094 -3.70367 -0.527163 0
M  V30 4887 H 465.427 -4.87007 -0.71307 0
M  V30 4888 N 467.08 -0.0183926 -1.57589 0
M  V30 4889 C 468.03 0.975944 -2.06057 0
M  V30 4890 C 469.014 1.29204 -0.958908 0
M  V30 4891 O 470.206 1.27995 -1.22255 0
M  V30 4892 C 467.335 2.26194 -2.58247 0
M  V30 4893 C 466.421 1.97467 -3.75323 0
M  V30 4894 N 466.812 1.38968 -4.86335 0
M  V30 4895 C 465.11 2.27515 -3.83605 0
M  V30 4896 C 465.811 1.27131 -5.67638 0
M  V30 4897 N 464.787 1.76319 -5.14211 0
M  V30 4898 H 468.589 0.518444 -2.89291 0
M  V30 4899 H 466.103 0.18688 -1.61321 0
M  V30 4900 H 468.1 2.98289 -2.91255 0
M  V30 4901 H 466.76 2.7258 -1.76438 0
M  V30 4902 H 467.771 1.06608 -5.06809 0
M  V30 4903 H 464.448 2.76649 -3.12684 0
M  V30 4904 H 465.838 0.819882 -6.66879 0
M  V30 4905 N 468.558 1.5553 0.254621 0
M  V30 4906 C 469.974 1.4778 0.602753 0
M  V30 4907 C 470.174 0.707047 1.88688 0
M  V30 4908 O 469.23 0.233288 2.5142 0
M  V30 4909 C 470.543 2.92133 0.712648 0
M  V30 4910 C 472.091 3.02458 0.805488 0
M  V30 4911 C 472.566 4.48102 0.947009 0
M  V30 4912 N 474.057 4.52008 1.01207 0
M  V30 4913 C 474.792 5.61939 1.1407 0
M  V30 4914 N 474.288 6.81697 1.23536 0
M  V30 4915 N 476.081 5.49719 1.17325 0
M  V30 4916 H 468.232 2.04085 -0.588463 0
M  V30 4917 H 470.495 0.926229 -0.202001 0
M  V30 4918 H 470.201 3.51332 -0.160766 0
M  V30 4919 H 470.075 3.42187 1.58707 0
M  V30 4920 H 472.462 2.43344 1.66936 0
M  V30 4921 H 472.543 2.55627 -0.0939266 0
M  V30 4922 H 472.187 5.07824 0.087725 0
M  V30 4923 H 472.117 4.92607 1.86135 0
M  V30 4924 H 474.608 3.65749 0.950577 0
M  V30 4925 H 474.921 7.61228 1.33236 0
M  V30 4926 H 473.266 6.84473 1.20508 0
M  V30 4927 H 476.457 4.55095 1.09573 0
M  V30 4928 H 476.63 6.35432 1.27005 0
M  V30 4929 N 470.036 -0.519951 1.48776 0
M  V30 4930 C 471.282 -1.27711 1.57536 0
M  V30 4931 C 471.615 -1.92547 0.252866 0
M  V30 4932 O 470.89 -1.7979 -0.742021 0
M  V30 4933 C 471.173 -2.35875 2.72094 0
M  V30 4934 C 471.026 -1.75664 4.1408 0
M  V30 4935 C 472.345 -3.37575 2.82367 0
M  V30 4936 H 469.464 -0.462971 0.573434 0
M  V30 4937 H 472.106 -0.578194 1.80989 0
M  V30 4938 H 470.256 -2.95488 2.52228 0
M  V30 4939 H 471.928 -1.20025 4.45412 0
M  V30 4940 H 470.171 -1.06154 4.20611 0
M  V30 4941 H 470.842 -2.54029 4.90075 0
M  V30 4942 H 473.318 -2.87929 3.00393 0
M  V30 4943 H 472.194 -4.1064 3.64233 0
M  V30 4944 H 472.455 -3.98743 1.90936 0
M  V30 4945 N 471.514 -1.37532 -0.769588 0
M  V30 4946 C 472.461 -1.3347 -1.88293 0
M  V30 4947 C 473.431 -0.199891 -1.64893 0
M  V30 4948 O 474.616 -0.389594 -1.8678 0
M  V30 4949 C 471.756 -1.14968 -3.25387 0
M  V30 4950 C 470.869 -2.37698 -3.60727 0
M  V30 4951 C 470.004 -2.12051 -4.8704 0
M  V30 4952 C 469.043 -3.30636 -5.15117 0
M  V30 4953 N 468.18 -3.04527 -6.3262 0
M  V30 4954 H 473.02 -2.28658 -1.911 0
M  V30 4955 H 470.557 -1.13622 -0.934257 0
M  V30 4956 H 472.515 -1.02261 -4.04473 0
M  V30 4957 H 471.145 -0.234263 -3.21949 0
M  V30 4958 H 470.197 -2.61137 -2.76608 0
M  V30 4959 H 471.509 -3.26131 -3.77413 0
M  V30 4960 H 470.663 -1.96388 -5.74035 0
M  V30 4961 H 469.402 -1.20959 -4.72462 0
M  V30 4962 H 468.407 -3.46836 -4.26597 0
M  V30 4963 H 469.632 -4.22582 -5.31603 0
M  V30 4964 H 467.578 -2.16067 -6.19396 0
M  V30 4965 H 467.495 -3.86503 -6.49732 0
M  V30 4966 H 468.763 -2.92485 -7.22546 0
M  V30 4967 N 472.992 0.995999 -1.22138 0
M  V30 4968 C 473.924 2.08745 -0.946485 0
M  V30 4969 C 474.937 1.62633 0.0737356 0
M  V30 4970 O 476.126 1.77782 -0.159886 0
M  V30 4971 C 473.226 3.36516 -0.401305 0
M  V30 4972 C 472.399 4.11672 -1.47801 0
M  V30 4973 C 471.458 5.17728 -0.940461 0
M  V30 4974 O 470.484 5.45482 -1.62596 0
M  V30 4975 N 471.686 5.80005 0.239723 0
M  V30 4976 H 474.451 2.32908 -1.88611 0
M  V30 4977 H 472.012 1.16152 -1.12785 0
M  V30 4978 H 474.004 4.04691 -0.0270837 0
M  V30 4979 H 472.574 3.0944 0.443354 0
M  V30 4980 H 471.794 3.38171 -2.02568 0
M  V30 4981 H 473.082 4.58657 -2.20253 0
M  V30 4982 H 472.48 5.5982 0.813518 0
M  V30 4983 H 471.037 6.4943 0.555361 0
M  V30 4984 N 474.47 1.03057 1.19235 0
M  V30 4985 C 475.716 0.729098 1.89241 0
M  V30 4986 C 476.049 -0.740573 1.79525 0
M  V30 4987 O 475.324 -1.53946 1.18874 0
M  V30 4988 C 475.607 1.18304 3.40112 0
M  V30 4989 C 475.46 2.71406 3.5869 0
M  V30 4990 C 476.779 0.765161 4.33397 0
M  V30 4991 H 473.898 0.266338 0.687192 0
M  V30 4992 H 476.54 1.28079 1.40341 0
M  V30 4993 H 474.69 0.713672 3.81889 0
M  V30 4994 H 476.362 3.26303 3.26074 0
M  V30 4995 H 474.605 3.11717 3.01687 0
M  V30 4996 H 475.276 2.98225 4.64506 0
M  V30 4997 H 477.752 1.16889 3.99345 0
M  V30 4998 H 476.628 1.11065 5.37546 0
M  V30 4999 H 476.889 -0.332372 4.40849 0
M  V30 5000 N 475.948 -1.35272 0.808662 0
M  V30 5001 C 477.364 -1.51806 0.492653 0
M  V30 5002 C 477.564 -1.7574 -0.985778 0
M  V30 5003 O 476.62 -1.80003 -1.77074 0
M  V30 5004 C 477.933 -2.69202 1.33981 0
M  V30 5005 C 479.481 -2.8308 1.33547 0
M  V30 5006 C 479.956 -4.03502 2.16679 0
M  V30 5007 N 481.447 -4.10684 2.14227 0
M  V30 5008 C 482.182 -5.02984 2.75308 0
M  V30 5009 N 481.678 -6.00603 3.45323 0
M  V30 5010 N 483.471 -4.95746 2.64938 0
M  V30 5011 H 475.622 -1.17993 1.76611 0
M  V30 5012 H 477.885 -0.577476 0.751814 0
M  V30 5013 H 477.591 -2.581 2.38909 0
M  V30 5014 H 477.465 -3.63854 0.994491 0
M  V30 5015 H 479.852 -2.93631 0.294036 0
M  V30 5016 H 479.933 -1.89278 1.72068 0
M  V30 5017 H 479.577 -3.93711 3.20864 0
M  V30 5018 H 479.507 -4.96489 1.75517 0
M  V30 5019 H 481.998 -3.40802 1.63285 0
M  V30 5020 H 482.311 -6.67633 3.89212 0
M  V30 5021 H 480.656 -6.0077 3.49428 0
M  V30 5022 H 483.847 -4.18439 2.09825 0
M  V30 5023 H 484.02 -5.67487 3.12829 0
M  V30 5024 N 477.426 -0.562348 -1.47226 0
M  V30 5025 C 478.656 -0.0451619 -2.06551 0
M  V30 5026 C 479.064 1.25626 -1.41473 0
M  V30 5027 O 478.407 1.76563 -0.507061 0
M  V30 5028 C 478.469 0.216068 -3.5885 0
M  V30 5029 C 478.133 -0.996691 -4.45999 0
M  V30 5030 C 479.13 -1.90358 -4.83797 0
M  V30 5031 C 476.815 -1.21281 -4.87438 0
M  V30 5032 C 478.809 -3.01023 -5.6184 0
M  V30 5033 C 476.496 -2.32255 -5.65244 0
M  V30 5034 C 477.494 -3.21956 -6.02356 0
M  V30 5035 O 477.182 -4.31005 -6.78594 0
M  V30 5036 H 476.914 -0.0451646 -0.67449 0
M  V30 5037 H 479.468 -0.776842 -1.90143 0
M  V30 5038 H 477.698 1.00212 -3.7349 0
M  V30 5039 H 479.387 0.679264 -4.00176 0
M  V30 5040 H 480.153 -1.74868 -4.52378 0
M  V30 5041 H 476.032 -0.523767 -4.58015 0
M  V30 5042 H 479.576 -3.71064 -5.90726 0
M  V30 5043 H 475.473 -2.47715 -5.96077 0
M  V30 5044 H 476.241 -4.29118 -6.96994 0
M  V30 5045 N 478.904 1.54736 -0.299062 0
M  V30 5046 C 479.834 2.26409 0.571085 0
M  V30 5047 C 480.815 1.2629 1.13951 0
M  V30 5048 O 482 1.55059 1.16921 0
M  V30 5049 C 479.13 3.00338 1.74396 0
M  V30 5050 C 478.084 4.07588 1.30599 0
M  V30 5051 C 477.41 4.69222 2.56387 0
M  V30 5052 C 478.71 5.20455 0.438645 0
M  V30 5053 H 480.404 2.99388 -0.0266991 0
M  V30 5054 H 477.95 1.43993 -0.0142812 0
M  V30 5055 H 479.903 3.49198 2.35878 0
M  V30 5056 H 478.627 2.24934 2.36796 0
M  V30 5057 H 477.286 3.59575 0.71424 0
M  V30 5058 H 476.934 3.9046 3.17097 0
M  V30 5059 H 476.634 5.41653 2.27784 0
M  V30 5060 H 478.158 5.20844 3.18675 0
M  V30 5061 H 479.572 5.65221 0.959085 0
M  V30 5062 H 477.969 5.99594 0.246466 0
M  V30 5063 H 479.039 4.8192 -0.536738 0
M  V30 5064 N 480.382 0.0267497 1.57577 0
M  V30 5065 C 481.63 -0.651116 1.91324 0
M  V30 5066 C 481.951 -1.72804 0.90353 0
M  V30 5067 O 481.221 -1.95822 -0.0552946 0
M  V30 5068 H 479.801 -0.243491 0.706202 0
M  V30 5069 H 482.463 0.0739935 1.94759 0
M  V30 5070 H 481.559 -1.10536 2.9187 0
M  V30 5071 N 481.861 -1.55662 -0.24637 0
M  V30 5072 C 483.138 -1.68272 -0.997198 0
M  V30 5073 C 483.518 -0.566785 -2.03349 0
M  V30 5074 O 482.866 0.429688 -2.24424 0
M  V30 5075 C 483.076 -3.08594 -1.63006 0
M  V30 5076 C 484.424 -3.6721 -2.13171 0
M  V30 5077 O 485.448 -3.11397 -1.72946 0
M  V30 5078 O 484.307 -4.65054 -2.87031 0
M  V30 5079 H 481.401 -0.684429 -0.464205 0
M  V30 5080 H 483.947 -1.67993 -0.240114 0
M  V30 5081 H 482.719 -3.81264 -0.880527 0
M  V30 5082 H 482.342 -3.12886 -2.45333 0
M  V30 5083 N 483.339 0.512053 -1.4905 0
M  V30 5084 C 484.286 1.6148 -1.64902 0
M  V30 5085 C 485.256 1.58687 -0.490673 0
M  V30 5086 O 486.441 1.76842 -0.71636 0
M  V30 5087 C 483.581 2.99676 -1.71139 0
M  V30 5088 C 482.694 3.12568 -2.98203 0
M  V30 5089 C 481.829 4.4143 -2.95487 0
M  V30 5090 C 480.868 4.47916 -4.17179 0
M  V30 5091 N 480.005 5.68191 -4.12437 0
M  V30 5092 H 484.845 1.47271 -2.59066 0
M  V30 5093 H 482.382 0.716713 -1.28459 0
M  V30 5094 H 484.34 3.79761 -1.72736 0
M  V30 5095 H 482.97 3.12614 -0.804508 0
M  V30 5096 H 482.022 2.25618 -3.06269 0
M  V30 5097 H 483.334 3.1322 -3.88194 0
M  V30 5098 H 482.488 5.29825 -2.95585 0
M  V30 5099 H 481.227 4.43326 -2.03256 0
M  V30 5100 H 480.232 3.57925 -4.17337 0
M  V30 5101 H 481.457 4.47744 -5.1059 0
M  V30 5102 H 479.403 5.7095 -3.23036 0
M  V30 5103 H 479.32 5.70413 -4.96151 0
M  V30 5104 H 480.588 6.58823 -4.16621 0
M  V30 5105 N 484.817 1.37938 0.762283 0
M  V30 5106 C 485.747 1.37176 1.88958 0
M  V30 5107 C 486.728 0.238945 1.68413 0
M  V30 5108 O 487.913 0.440726 1.89133 0
M  V30 5109 C 485.043 1.18742 3.2637 0
M  V30 5110 C 483.997 2.29136 3.61498 0
M  V30 5111 C 483.323 1.95816 4.97554 0
M  V30 5112 C 484.623 3.71363 3.6727 0
M  V30 5113 H 486.317 2.31509 1.89853 0
M  V30 5114 H 483.863 1.11438 0.912005 0
M  V30 5115 H 485.816 1.16837 4.04879 0
M  V30 5116 H 484.54 0.208683 3.25933 0
M  V30 5117 H 483.199 2.30213 2.85303 0
M  V30 5118 H 482.847 0.964475 4.93667 0
M  V30 5119 H 482.547 2.69745 5.22026 0
M  V30 5120 H 484.071 1.95513 5.78452 0
M  V30 5121 H 485.485 3.72364 4.35911 0
M  V30 5122 H 483.882 4.44425 4.03245 0
M  V30 5123 H 484.952 4.04305 2.67704 0
M  V30 5124 N 486.295 -0.989507 1.22664 0
M  V30 5125 C 487.242 -2.08024 0.999733 0
M  V30 5126 C 488.212 -1.65909 -0.0797047 0
M  V30 5127 O 489.397 -1.90669 0.0705715 0
M  V30 5128 C 486.537 -3.40067 0.587234 0
M  V30 5129 C 485.65 -3.95505 1.73781 0
M  V30 5130 C 484.785 -5.15722 1.27297 0
M  V30 5131 C 483.824 -5.63305 2.39488 0
M  V30 5132 N 482.961 -6.74758 1.94026 0
M  V30 5133 H 487.801 -2.26768 1.9334 0
M  V30 5134 H 485.338 -1.11171 0.963297 0
M  V30 5135 H 487.296 -4.15899 0.329227 0
M  V30 5136 H 485.926 -3.21314 -0.309426 0
M  V30 5137 H 484.978 -3.16513 2.11006 0
M  V30 5138 H 486.29 -4.26797 2.58158 0
M  V30 5139 H 485.444 -5.98854 0.972546 0
M  V30 5140 H 484.183 -4.86061 0.399445 0
M  V30 5141 H 483.188 -4.78759 2.70315 0
M  V30 5142 H 484.413 -5.94988 3.27362 0
M  V30 5143 H 482.359 -6.46874 1.09041 0
M  V30 5144 H 482.276 -7.05386 2.71968 0
M  V30 5145 H 483.544 -7.61387 1.67062 0
M  V30 5146 N 487.773 -1.03688 -1.18687 0
M  V30 5147 C 488.736 -0.629115 -2.20397 0
M  V30 5148 C 489.736 0.311495 -1.57754 0
M  V30 5149 O 490.926 0.0974107 -1.73927 0
M  V30 5150 C 488.058 0.0782231 -3.4081 0
M  V30 5151 H 489.251 -1.52915 -2.57987 0
M  V30 5152 H 486.804 -0.828988 -1.32505 0
M  V30 5153 H 487.539 0.992233 -3.08748 0
M  V30 5154 H 487.324 -0.597776 -3.87517 0
M  V30 5155 H 488.814 0.350156 -4.16129 0
M  V30 5156 N 489.251 1.34841 -0.815825 0
M  V30 5157 C 490.214 2.27959 -0.238185 0
M  V30 5158 C 491.214 1.49983 0.579816 0
M  V30 5159 O 492.404 1.69617 0.396953 0
M  V30 5160 C 489.536 3.34314 0.666876 0
M  V30 5161 H 490.729 2.80558 -1.05958 0
M  V30 5162 H 488.282 1.44852 -0.587156 0
M  V30 5163 H 489.017 2.86916 1.5116 0
M  V30 5164 H 488.802 3.92014 0.0819106 0
M  V30 5165 H 490.292 4.0379 1.06506 0
M  V30 5166 N 490.729 0.570148 1.46925 0
M  V30 5167 C 491.977 0.0508523 2.02036 0
M  V30 5168 C 492.298 -1.30885 1.44548 0
M  V30 5169 O 491.568 -1.85647 0.625453 0
M  V30 5170 H 490.148 0.0158088 0.746833 0
M  V30 5171 H 492.81 0.743086 1.80178 0
M  V30 5172 H 491.906 -0.027575 3.12088 0
M  V30 5173 N 492.207 -1.54576 0.307264 0
M  V30 5174 C 493.453 -2.0056 -0.300612 0
M  V30 5175 C 493.786 -1.1953 -1.53057 0
M  V30 5176 O 493.061 -0.27337 -1.92569 0
M  V30 5177 C 493.344 -3.54167 -0.650987 0
M  V30 5178 C 493.197 -4.45933 0.588539 0
M  V30 5179 C 494.516 -4.14645 -1.47506 0
M  V30 5180 H 491.635 -0.729075 -0.107788 0
M  V30 5181 H 494.277 -1.85286 0.420606 0
M  V30 5182 H 492.427 -3.67313 -1.26544 0
M  V30 5183 H 494.099 -4.44683 1.22697 0
M  V30 5184 H 492.342 -4.16274 1.22058 0
M  V30 5185 H 493.013 -5.51189 0.299153 0
M  V30 5186 H 495.489 -4.04973 -0.955821 0
M  V30 5187 H 494.365 -5.22269 -1.68899 0
M  V30 5188 H 494.626 -3.66921 -2.4662 0
M  V30 5189 N 493.685 -0.035106 -1.57561 0
M  V30 5190 C 495.096 0.502885 -1.798 0
M  V30 5191 C 495.447 1.71892 -0.945921 0
M  V30 5192 O 494.572 2.15822 -0.157991 0
M  V30 5193 C 495.167 0.919097 -3.26095 0
M  V30 5194 C 493.726 1.40216 -3.49308 0
M  V30 5195 C 492.873 0.369709 -2.74824 0
M  V30 5196 H 495.824 -0.261102 -1.56537 0
M  V30 5197 H 495.845 1.78308 -3.36135 0
M  V30 5198 H 495.357 0.0338526 -3.88085 0
M  V30 5199 H 493.458 2.30714 -2.92578 0
M  V30 5200 H 493.571 1.40541 -4.58023 0
M  V30 5201 H 491.935 0.839113 -2.40481 0
M  V30 5202 H 492.718 -0.507173 -3.39533 0
M  V30 5203 N 495.163 1.55791 0.238111 0
M  V30 5204 C 496.412 1.77234 0.962868 0
M  V30 5205 C 496.725 0.600661 1.86149 0
M  V30 5206 O 497.931 0.698315 2.62366 0
M  V30 5207 C 496.387 3.13808 1.76218 0
M  V30 5208 C 495.995 4.3865 0.910518 0
M  V30 5209 C 497.739 3.44585 2.47914 0
M  V30 5210 C 495.646 5.66252 1.70623 0
M  V30 5211 H 494.576 0.660731 0.36325 0
M  V30 5212 H 497.227 1.8221 0.217242 0
M  V30 5213 H 495.609 3.02963 2.55009 0
M  V30 5214 H 496.783 4.60507 0.164316 0
M  V30 5215 H 495.098 4.15271 0.30647 0
M  V30 5216 H 497.695 4.3714 3.07917 0
M  V30 5217 H 498.038 2.66314 3.19973 0
M  V30 5218 H 498.571 3.56685 1.76127 0
M  V30 5219 H 495.31 6.47369 1.02923 0
M  V30 5220 H 494.83 5.48483 2.42748 0
M  V30 5221 H 496.509 6.05829 2.27114 0
M  V30 5222 N 496.642 -0.504142 1.49319 0
M  V30 5223 C 497.888 -1.26033 1.58882 0
M  V30 5224 C 498.221 -1.92268 0.273274 0
M  V30 5225 O 497.496 -1.80567 -0.72291 0
M  V30 5226 C 497.779 -2.32976 2.7458 0
M  V30 5227 C 497.632 -1.71263 4.1592 0
M  V30 5228 C 498.951 -3.34561 2.85932 0
M  V30 5229 H 496.07 -0.456863 0.578312 0
M  V30 5230 H 498.712 -0.558965 1.81592 0
M  V30 5231 H 496.862 -2.92796 2.55348 0
M  V30 5232 H 498.534 -1.15294 4.4666 0
M  V30 5233 H 496.777 -1.01686 4.21714 0
M  V30 5234 H 497.448 -2.48816 4.92742 0
M  V30 5235 H 499.924 -2.84727 3.0343 0
M  V30 5236 H 498.8 -4.06754 3.68568 0
M  V30 5237 H 499.061 -3.96695 1.95154 0
M  V30 5238 N 498.12 -1.38341 -0.754957 0
M  V30 5239 C 499.03 -1.3769 -1.89944 0
M  V30 5240 C 500.046 -0.274194 -1.71826 0
M  V30 5241 O 501.222 -0.512391 -1.94773 0
M  V30 5242 C 498.287 -1.19938 -3.25293 0
M  V30 5243 C 497.348 -2.40001 -3.55946 0
M  V30 5244 C 496.581 -2.23087 -4.84838 0
M  V30 5245 O 496.804 -1.22386 -5.57116 0
M  V30 5246 O 495.738 -3.11646 -5.14937 0
M  V30 5247 H 499.564 -2.3412 -1.93446 0
M  V30 5248 H 497.149 -1.19246 -0.900044 0
M  V30 5249 H 499.031 -1.12093 -4.06218 0
M  V30 5250 H 497.706 -0.265919 -3.22606 0
M  V30 5251 H 496.613 -2.53421 -2.75188 0
M  V30 5252 H 497.946 -3.31973 -3.63394 0
M  V30 5253 N 499.598 0.982988 -1.23187 0
M  V30 5254 C 501.009 1.53847 -1.05773 0
M  V30 5255 C 501.36 1.92568 0.375744 0
M  V30 5256 O 500.485 1.75783 1.26211 0
M  V30 5257 C 501.08 2.79567 -1.91384 0
M  V30 5258 C 499.639 3.31524 -1.78238 0
M  V30 5259 C 498.786 2.04534 -1.87246 0
M  V30 5260 H 501.737 0.802962 -1.36888 0
M  V30 5261 H 501.758 3.52317 -1.43711 0
M  V30 5262 H 501.27 2.51353 -2.95708 0
M  V30 5263 H 499.371 3.64623 -0.766875 0
M  V30 5264 H 499.484 4.01457 -2.61475 0
M  V30 5265 H 497.848 2.1855 -1.30797 0
M  V30 5266 H 498.631 1.78706 -2.9312 0
M  V30 5267 N 501.076 1.04316 1.18135 0
M  V30 5268 C 502.322 0.749128 1.88457 0
M  V30 5269 C 502.655 -0.72149 1.803 0
M  V30 5270 O 501.93 -1.52676 1.205 0
M  V30 5271 C 502.213 1.21905 3.38838 0
M  V30 5272 C 502.066 2.75195 3.55792 0
M  V30 5273 C 503.385 0.811085 4.32561 0
M  V30 5274 H 500.504 0.273611 0.684329 0
M  V30 5275 H 503.146 1.29561 1.38975 0
M  V30 5276 H 501.296 0.754137 3.8111 0
M  V30 5277 H 502.968 3.29743 3.22595 0
M  V30 5278 H 501.211 3.14899 2.98364 0
M  V30 5279 H 501.882 3.03135 4.61317 0
M  V30 5280 H 504.358 1.21118 3.98082 0
M  V30 5281 H 503.234 1.16761 5.36338 0
M  V30 5282 H 503.495 -0.285596 4.41177 0
M  V30 5283 N 502.554 -1.34406 0.822964 0
M  V30 5284 C 503.802 -1.97892 0.410245 0
M  V30 5285 C 504.123 -1.65567 -1.03017 0
M  V30 5286 O 503.393 -0.94642 -1.71522 0
M  V30 5287 H 501.973 -0.732049 0.148707 0
M  V30 5288 H 504.635 -1.64043 1.05242 0
M  V30 5289 H 503.731 -3.07579 0.529284 0
M  V30 5290 N 504.032 -0.577932 -1.46621 0
M  V30 5291 C 505.28 -0.061566 -2.02006 0
M  V30 5292 C 505.601 1.30117 -1.4524 0
M  V30 5293 O 504.871 1.85313 -0.63529 0
M  V30 5294 H 503.451 -0.0197692 -0.746738 0
M  V30 5295 H 506.113 -0.752631 -1.79782 0
M  V30 5296 H 505.209 0.0110238 -3.12098 0
M  V30 5297 N 505.51 1.54411 -0.315457 0
M  V30 5298 C 506.46 2.20772 0.569549 0
M  V30 5299 C 507.444 1.18551 1.08787 0
M  V30 5300 O 508.636 1.44213 1.02624 0
M  V30 5301 C 505.765 2.96293 1.73394 0
M  V30 5302 C 504.851 4.05844 1.2309 0
M  V30 5303 N 505.242 5.03822 0.446927 0
M  V30 5304 C 503.54 4.19648 1.51035 0
M  V30 5305 C 504.241 5.8143 0.17725 0
M  V30 5306 N 503.217 5.38245 0.761118 0
M  V30 5307 H 507.019 2.93877 -0.0368076 0
M  V30 5308 H 504.533 1.61949 -0.120915 0
M  V30 5309 H 506.53 3.42313 2.37965 0
M  V30 5310 H 505.19 2.24708 2.34386 0
M  V30 5311 H 506.201 5.17821 0.0905027 0
M  V30 5312 H 502.878 3.59274 2.1267 0
M  V30 5313 H 504.268 6.70369 -0.45335 0
M  V30 5314 N 506.988 0.0434614 1.5754 0
M  V30 5315 C 507.951 -0.918696 2.09982 0
M  V30 5316 C 508.951 -1.24488 1.01781 0
M  V30 5317 O 510.141 -1.18284 1.27885 0
M  V30 5318 C 507.273 -2.23093 2.57764 0
M  V30 5319 H 508.466 -0.464229 2.96285 0
M  V30 5320 H 506.019 -0.204818 1.54952 0
M  V30 5321 H 506.754 -2.73137 1.74832 0
M  V30 5322 H 506.539 -2.00724 3.36827 0
M  V30 5323 H 508.029 -2.92028 2.98512 0
M  V30 5324 N 508.466 -1.55915 -0.229846 0
M  V30 5325 C 509.712 -1.78807 -0.956868 0
M  V30 5326 C 510.045 -0.611687 -1.84315 0
M  V30 5327 O 509.32 0.389398 -1.90562 0
M  V30 5328 C 509.603 -3.11718 -1.80288 0
M  V30 5329 C 509.456 -4.3979 -0.943649 0
M  V30 5330 C 510.775 -3.40999 -2.78222 0
M  V30 5331 H 507.894 -0.6505 -0.346437 0
M  V30 5332 H 510.536 -1.88648 -0.226252 0
M  V30 5333 H 508.686 -3.03459 -2.42579 0
M  V30 5334 H 510.358 -4.60059 -0.338121 0
M  V30 5335 H 508.601 -4.33086 -0.248705 0
M  V30 5336 H 509.272 -5.29208 -1.5698 0
M  V30 5337 H 511.748 -3.49332 -2.26067 0
M  V30 5338 H 510.624 -4.35183 -3.34526 0
M  V30 5339 H 510.885 -2.62754 -3.55546 0
M  V30 5340 N 509.944 0.496216 -1.49584 0
M  V30 5341 C 511.191 1.25003 -1.59312 0
M  V30 5342 C 511.519 1.92445 -0.28198 0
M  V30 5343 O 510.774 1.81557 0.730452 0
M  V30 5344 C 511.073 2.3359 -2.705 0
M  V30 5345 C 510.739 1.83574 -4.11839 0
M  V30 5346 C 509.401 1.69653 -4.50302 0
M  V30 5347 C 511.753 1.46193 -5.00277 0
M  V30 5348 C 509.081 1.16736 -5.74969 0
M  V30 5349 C 511.433 0.947265 -6.25468 0
M  V30 5350 C 510.097 0.794485 -6.62755 0
M  V30 5351 H 509.367 0.45742 -0.582965 0
M  V30 5352 H 512.014 0.549996 -1.83432 0
M  V30 5353 H 510.319 3.09401 -2.40371 0
M  V30 5354 H 512.016 2.91627 -2.75235 0
M  V30 5355 H 508.606 1.9537 -3.81482 0
M  V30 5356 H 512.79 1.55793 -4.71214 0
M  V30 5357 H 508.046 1.03623 -6.02555 0
M  V30 5358 H 512.22 0.648846 -6.93371 0
M  V30 5359 H 509.847 0.382271 -7.59238 0
M  V30 5360 N 511.423 1.38739 0.74761 0
M  V30 5361 C 512.353 1.39173 1.87492 0
M  V30 5362 C 513.334 0.256794 1.6815 0
M  V30 5363 O 514.519 0.460762 1.88655 0
M  V30 5364 C 511.649 1.22197 3.25093 0
M  V30 5365 C 510.603 2.32957 3.59047 0
M  V30 5366 C 509.929 2.01082 4.95449 0
M  V30 5367 C 511.229 3.75237 3.6331 0
M  V30 5368 H 512.923 2.3351 1.87386 0
M  V30 5369 H 510.469 1.12399 0.900134 0
M  V30 5370 H 512.422 1.21124 4.03617 0
M  V30 5371 H 511.146 0.243241 3.25693 0
M  V30 5372 H 509.805 2.33226 2.82845 0
M  V30 5373 H 509.453 1.01678 4.92616 0
M  V30 5374 H 509.153 2.75267 5.19136 0
M  V30 5375 H 510.677 2.01638 5.76346 0
M  V30 5376 H 512.091 3.76966 4.31937 0
M  V30 5377 H 510.488 4.48677 3.98509 0
M  V30 5378 H 511.558 4.07122 2.634 0
M  V30 5379 N 512.901 -0.976442 1.23707 0
M  V30 5380 C 514.178 -1.69296 0.979699 0
M  V30 5381 C 514.558 -2.0508 -0.500555 0
M  V30 5382 O 513.906 -1.74708 -1.47273 0
M  V30 5383 C 514.116 -2.93143 1.89389 0
M  V30 5384 C 515.464 -3.65572 2.15968 0
M  V30 5385 O 516.488 -3.03184 1.86971 0
M  V30 5386 O 515.347 -4.77859 2.65167 0
M  V30 5387 H 512.441 -0.739708 0.369812 0
M  V30 5388 H 514.987 -1.03131 1.34767 0
M  V30 5389 H 513.759 -2.63327 2.89439 0
M  V30 5390 H 513.382 -3.67044 1.52854 0
M  V30 5391 N 514.379 -1.04941 -1.1758 0
M  V30 5392 C 515.342 -0.652456 -2.19717 0
M  V30 5393 C 516.342 0.294745 -1.58076 0
M  V30 5394 O 517.532 0.0789579 -1.74021 0
M  V30 5395 C 514.664 0.0420712 -3.40874 0
M  V30 5396 H 515.857 -1.55642 -2.5635 0
M  V30 5397 H 513.41 -0.842995 -1.31618 0
M  V30 5398 H 514.145 0.95943 -3.09783 0
M  V30 5399 H 513.93 -0.638844 -3.86861 0
M  V30 5400 H 515.42 0.306 -4.16477 0
M  V30 5401 N 515.857 1.33968 -0.830081 0
M  V30 5402 C 517.273 1.51003 -0.516742 0
M  V30 5403 C 517.473 1.77286 0.957694 0
M  V30 5404 O 516.529 1.82797 1.74188 0
M  V30 5405 C 517.842 2.67036 -1.38247 0
M  V30 5406 C 519.39 2.80919 -1.38034 0
M  V30 5407 C 519.865 4.00004 -2.23071 0
M  V30 5408 N 521.356 4.07224 -2.20733 0
M  V30 5409 C 522.091 4.98541 -2.83275 0
M  V30 5410 N 521.587 5.95033 -3.54835 0
M  V30 5411 N 523.38 4.91469 -2.72791 0
M  V30 5412 H 515.531 1.15168 -1.78466 0
M  V30 5413 H 517.794 0.565443 -0.760906 0
M  V30 5414 H 517.5 2.54266 -2.42985 0
M  V30 5415 H 517.374 3.62226 -1.05225 0
M  V30 5416 H 519.761 2.93127 -0.340713 0
M  V30 5417 H 519.842 1.86517 -1.75057 0
M  V30 5418 H 519.486 3.88557 -3.27087 0
M  V30 5419 H 519.416 4.93634 -1.83394 0
M  V30 5420 H 521.907 3.38162 -1.68687 0
M  V30 5421 H 522.22 6.61357 -3.99784 0
M  V30 5422 H 520.565 5.95135 -3.58942 0
M  V30 5423 H 523.756 4.15048 -2.16456 0
M  V30 5424 H 523.929 5.62439 -3.21818 0
M  V30 5425 N 517.335 0.585699 1.46312 0
M  V30 5426 C 518.751 0.247607 1.57668 0
M  V30 5427 C 518.951 -1.25007 1.58037 0
M  V30 5428 O 518.007 -2.03196 1.49893 0
M  V30 5429 C 519.32 0.899456 2.86933 0
M  V30 5430 C 520.868 0.873326 3.00569 0
M  V30 5431 C 521.343 1.50477 4.32574 0
M  V30 5432 N 522.834 1.46925 4.3928 0
M  V30 5433 C 523.569 1.92719 5.40044 0
M  V30 5434 N 523.065 2.46499 6.47464 0
M  V30 5435 N 524.858 1.83617 5.31264 0
M  V30 5436 H 517.009 1.55841 1.44317 0
M  V30 5437 H 519.272 0.651564 0.688599 0
M  V30 5438 H 518.978 1.95313 2.92482 0
M  V30 5439 H 518.852 0.409476 3.74971 0
M  V30 5440 H 521.239 -0.171736 2.946 0
M  V30 5441 H 521.32 1.40136 2.13999 0
M  V30 5442 H 520.964 2.54905 4.39302 0
M  V30 5443 H 520.894 0.951944 5.17924 0
M  V30 5444 H 523.385 1.07616 3.62253 0
M  V30 5445 H 523.698 2.79291 7.20567 0
M  V30 5446 H 522.043 2.50526 6.48276 0
M  V30 5447 H 525.234 1.41358 4.46246 0
M  V30 5448 H 525.407 2.19622 6.09648 0
M  V30 5449 N 518.813 -1.54241 0.323641 0
M  V30 5450 C 520.06 -2.0057 -0.27891 0
M  V30 5451 C 520.388 -1.21181 -1.52136 0
M  V30 5452 O 519.643 -0.282043 -1.93657 0
M  V30 5453 C 519.942 -3.5129 -0.658031 0
M  V30 5454 C 519.608 -4.48281 0.485252 0
M  V30 5455 C 518.27 -4.74519 0.799055 0
M  V30 5456 C 520.622 -5.05909 1.25322 0
M  V30 5457 C 517.95 -5.55643 1.88354 0
M  V30 5458 C 520.302 -5.88215 2.32779 0
M  V30 5459 C 518.966 -6.12755 2.64741 0
M  V30 5460 H 518.236 -0.733938 -0.10206 0
M  V30 5461 H 520.883 -1.862 0.447435 0
M  V30 5462 H 519.188 -3.63388 -1.4648 0
M  V30 5463 H 520.885 -3.84578 -1.1358 0
M  V30 5464 H 517.475 -4.27979 0.230593 0
M  V30 5465 H 521.659 -4.8562 1.02404 0
M  V30 5466 H 516.915 -5.72888 2.13564 0
M  V30 5467 H 521.089 -6.31888 2.92729 0
M  V30 5468 H 518.716 -6.75404 3.48904 0
M  V30 5469 N 520.291 -0.0518155 -1.57515 0
M  V30 5470 C 521.531 0.625712 -1.94587 0
M  V30 5471 C 521.895 1.6797 -0.930053 0
M  V30 5472 O 523.096 2.41135 -1.18774 0
M  V30 5473 C 521.367 1.20574 -3.36447 0
M  V30 5474 S 522.926 1.90118 -3.95475 0
M  V30 5475 H 519.744 0.205434 -0.680675 0
M  V30 5476 H 522.346 -0.120906 -1.95126 0
M  V30 5477 H 521.05 0.426521 -4.08178 0
M  V30 5478 H 520.581 1.98916 -3.39405 0
M  V30 5479 H 522.596 3.18184 -3.80753 0
M  V30 5480 N 521.769 1.56035 0.221574 0
M  V30 5481 C 522.679 1.95581 1.29558 0
M  V30 5482 C 523.695 0.859639 1.51282 0
M  V30 5483 O 524.871 1.16321 1.64413 0
M  V30 5484 C 521.936 2.26447 2.62531 0
M  V30 5485 C 520.997 3.49632 2.4911 0
M  V30 5486 C 520.23 3.79017 3.75742 0
M  V30 5487 O 520.453 3.10077 4.78757 0
M  V30 5488 O 519.387 4.72507 3.72855 0
M  V30 5489 H 523.213 2.8711 0.990035 0
M  V30 5490 H 520.798 1.43244 0.424434 0
M  V30 5491 H 522.68 2.47494 3.41064 0
M  V30 5492 H 521.355 1.38092 2.92766 0
M  V30 5493 H 520.262 3.33864 1.68777 0
M  V30 5494 H 521.595 4.3837 2.23814 0
M  V30 5495 N 523.247 -0.488276 1.49845 0
M  V30 5496 C 524.197 -1.58556 1.63842 0
M  V30 5497 C 525.181 -1.53142 0.493586 0
M  V30 5498 O 526.373 -1.60457 0.747169 0
M  V30 5499 C 523.502 -2.97101 1.72005 0
M  V30 5500 C 522.588 -3.07463 2.92108 0
M  V30 5501 N 522.979 -2.87681 4.16021 0
M  V30 5502 C 521.277 -3.3858 2.90309 0
M  V30 5503 C 521.978 -3.0256 4.96822 0
M  V30 5504 N 520.954 -3.32002 4.30437 0
M  V30 5505 H 524.756 -1.41935 2.57355 0
M  V30 5506 H 522.27 -0.694668 1.46793 0
M  V30 5507 H 524.267 -3.75976 1.80132 0
M  V30 5508 H 522.927 -3.14782 0.796375 0
M  V30 5509 H 523.938 -2.63603 4.45796 0
M  V30 5510 H 520.615 -3.62357 2.07372 0
M  V30 5511 H 522.005 -2.9165 6.05301 0
M  V30 5512 N 524.725 -1.39134 -0.740242 0
M  V30 5513 C 525.655 -1.40165 -1.86751 0
M  V30 5514 C 526.636 -0.265708 -1.68012 0
M  V30 5515 O 527.821 -0.47076 -1.88408 0
M  V30 5516 C 524.951 -1.2392 -3.2444 0
M  V30 5517 C 523.905 -2.34858 -3.57807 0
M  V30 5518 C 523.231 -2.03707 -4.94376 0
M  V30 5519 C 524.531 -3.77159 -3.61315 0
M  V30 5520 H 526.225 -2.345 -1.86145 0
M  V30 5521 H 523.771 -1.12875 -0.89416 0
M  V30 5522 H 525.724 -1.23263 -4.02969 0
M  V30 5523 H 524.448 -0.26051 -3.25559 0
M  V30 5524 H 523.107 -2.34723 -2.81604 0
M  V30 5525 H 522.755 -1.04289 -4.9207 0
M  V30 5526 H 522.455 -2.78016 -5.17669 0
M  V30 5527 H 523.979 -2.04691 -5.75268 0
M  V30 5528 H 525.393 -3.79252 -4.29931 0
M  V30 5529 H 523.79 -4.50784 -3.96124 0
M  V30 5530 H 524.86 -4.08513 -2.61238 0
M  V30 5531 N 526.204 0.969867 -1.24223 0
M  V30 5532 C 527.432 1.74756 -1.10761 0
M  V30 5533 C 527.847 1.85713 0.340041 0
M  V30 5534 O 527.204 1.34389 1.23474 0
M  V30 5535 C 527.255 3.16915 -1.73917 0
M  V30 5536 O 526.976 3.06511 -3.13021 0
M  V30 5537 C 528.477 4.11032 -1.66036 0
M  V30 5538 H 525.697 0.548092 -0.387087 0
M  V30 5539 H 528.241 1.2178 -1.64286 0
M  V30 5540 H 526.396 3.66884 -1.244 0
M  V30 5541 H 526.81 3.96079 -3.43834 0
M  V30 5542 H 528.284 5.08446 -2.14911 0
M  V30 5543 H 528.761 4.34785 -0.621159 0
M  V30 5544 H 529.367 3.66972 -2.14969 0
M  V30 5545 N 527.682 1.05563 1.17022 0
M  V30 5546 C 528.614 0.617888 2.20714 0
M  V30 5547 C 529.627 -0.320303 1.59618 0
M  V30 5548 O 530.816 -0.112449 1.78145 0
M  V30 5549 C 527.916 -0.115333 3.38704 0
M  V30 5550 C 527.089 0.834493 4.29366 0
M  V30 5551 C 526.148 0.141855 5.26009 0
M  V30 5552 O 525.174 0.777151 5.6387 0
M  V30 5553 N 526.376 -1.11934 5.69606 0
M  V30 5554 H 529.141 1.50981 2.58892 0
M  V30 5555 H 526.702 0.938008 1.31958 0
M  V30 5556 H 528.694 -0.588918 4.00392 0
M  V30 5557 H 527.264 -0.908967 2.99093 0
M  V30 5558 H 526.484 1.48762 3.65053 0
M  V30 5559 H 527.772 1.4791 4.86827 0
M  V30 5560 H 527.17 -1.65574 5.40927 0
M  V30 5561 H 525.727 -1.53692 6.33421 0
M  V30 5562 N 529.16 -1.33526 0.837174 0
M  V30 5563 C 530.437 -1.92369 0.354065 0
M  V30 5564 C 530.817 -1.76348 -1.16038 0
M  V30 5565 O 530.165 -1.15083 -1.97403 0
M  V30 5566 C 530.375 -3.39728 0.799101 0
M  V30 5567 C 531.723 -4.16877 0.806139 0
M  V30 5568 O 532.747 -3.48373 0.742597 0
M  V30 5569 O 531.606 -5.39166 0.892345 0
M  V30 5570 H 528.7 -0.820952 0.0998378 0
M  V30 5571 H 531.246 -1.42409 0.922913 0
M  V30 5572 H 530.018 -3.45254 1.84162 0
M  V30 5573 H 529.641 -3.97062 0.206731 0
M  V30 5574 N 530.638 -0.59345 -1.46 0
M  V30 5575 C 531.548 0.135817 -2.34207 0
M  V30 5576 C 532.564 0.875008 -1.50398 0
M  V30 5577 O 533.74 0.835778 -1.83239 0
M  V30 5578 C 530.805 1.12977 -3.27776 0
M  V30 5579 C 529.866 0.394081 -4.27487 0
M  V30 5580 C 529.099 1.34068 -5.16586 0
M  V30 5581 O 529.322 2.5778 -5.08828 0
M  V30 5582 O 528.256 0.845426 -5.95933 0
M  V30 5583 H 532.082 -0.588691 -2.9794 0
M  V30 5584 H 529.667 -0.353784 -1.45151 0
M  V30 5585 H 531.549 1.70261 -3.85473 0
M  V30 5586 H 530.224 1.83556 -2.66625 0
M  V30 5587 H 529.131 -0.220869 -3.73447 0
M  V30 5588 H 530.464 -0.270939 -4.91454 0
M  V30 5589 N 532.116 1.54067 -0.331816 0
M  V30 5590 C 533.363 2.00715 0.268269 0
M  V30 5591 C 533.691 1.21986 1.51491 0
M  V30 5592 O 532.946 0.292309 1.93505 0
M  V30 5593 C 533.245 3.51634 0.639392 0
M  V30 5594 C 532.911 4.48018 -0.509019 0
M  V30 5595 C 531.573 4.74089 -0.824209 0
M  V30 5596 C 533.925 5.05237 -1.28003 0
M  V30 5597 C 531.253 5.54637 -1.91298 0
M  V30 5598 C 533.605 5.86972 -2.35895 0
M  V30 5599 C 532.269 6.11342 -2.67987 0
M  V30 5600 H 531.539 0.734469 0.0981667 0
M  V30 5601 H 534.186 1.8596 -0.457304 0
M  V30 5602 H 532.491 3.6416 1.44551 0
M  V30 5603 H 534.188 3.85175 1.11539 0
M  V30 5604 H 530.778 4.27851 -0.253287 0
M  V30 5605 H 534.962 4.8507 -1.04978 0
M  V30 5606 H 530.218 5.71747 -2.16599 0
M  V30 5607 H 534.392 6.30327 -2.96076 0
M  V30 5608 H 532.019 6.73544 -3.5248 0
M  V30 5609 N 533.594 0.0601682 1.57485 0
M  V30 5610 C 535.005 -0.474217 1.80577 0
M  V30 5611 C 535.356 -1.70365 0.973147 0
M  V30 5612 O 534.481 -2.15544 0.192306 0
M  V30 5613 C 535.076 -0.867102 3.27516 0
M  V30 5614 C 533.635 -1.34642 3.51495 0
M  V30 5615 C 532.782 -0.32594 2.75378 0
M  V30 5616 H 535.733 0.285973 1.56102 0
M  V30 5617 H 535.754 -1.72938 3.38929 0
M  V30 5618 H 535.266 0.0278927 3.8809 0
M  V30 5619 H 533.367 -2.2603 2.96212 0
M  V30 5620 H 533.48 -1.33237 4.60201 0
M  V30 5621 H 531.844 -0.800749 2.41785 0
M  V30 5622 H 532.627 0.561125 3.38683 0
M  V30 5623 N 535.072 -1.5615 -0.213296 0
M  V30 5624 C 536.035 -1.92249 -1.24792 0
M  V30 5625 C 537.035 -0.801828 -1.39382 0
M  V30 5626 O 538.225 -1.06948 -1.37506 0
M  V30 5627 C 535.357 -2.18056 -2.62039 0
M  V30 5628 H 536.55 -2.84793 -0.939845 0
M  V30 5629 H 534.103 -1.49559 -0.454062 0
M  V30 5630 H 534.838 -1.2809 -2.97932 0
M  V30 5631 H 534.623 -2.99703 -2.52825 0
M  V30 5632 H 536.113 -2.47051 -3.36683 0
M  V30 5633 N 536.55 0.480323 -1.50102 0
M  V30 5634 C 537.482 1.59669 -1.64433 0
M  V30 5635 C 538.495 1.54063 -0.52615 0
M  V30 5636 O 539.684 1.59619 -0.798992 0
M  V30 5637 C 536.784 2.98527 -1.6042 0
M  V30 5638 C 535.957 3.291 -2.88117 0
M  V30 5639 C 535.016 4.47468 -2.76873 0
M  V30 5640 O 534.042 4.4823 -3.50825 0
M  V30 5641 N 535.244 5.48593 -1.89806 0
M  V30 5642 H 538.009 1.47795 -2.60723 0
M  V30 5643 H 535.57 0.66858 -1.4745 0
M  V30 5644 H 537.562 3.75666 -1.50523 0
M  V30 5645 H 536.132 3.04218 -0.719036 0
M  V30 5646 H 535.352 2.40662 -3.12211 0
M  V30 5647 H 536.64 3.46334 -3.72734 0
M  V30 5648 H 536.038 5.50791 -1.2902 0
M  V30 5649 H 534.595 6.24752 -1.85819 0
M  V30 5650 N 538.028 1.39524 0.732853 0
M  V30 5651 C 539.253 1.40329 1.52717 0
M  V30 5652 C 539.678 0.000286574 1.881 0
M  V30 5653 O 539.036 -0.987262 1.52062 0
M  V30 5654 C 539.084 2.28464 2.78992 0
M  V30 5655 O 538.188 1.716 3.75003 0
M  V30 5656 H 537.529 0.47778 0.461109 0
M  V30 5657 H 540.059 1.83546 0.903996 0
M  V30 5658 H 540.069 2.43051 3.27705 0
M  V30 5659 H 538.744 3.30425 2.52572 0
M  V30 5660 H 537.321 1.66267 3.33781 0
M  V30 5661 N 539.506 -0.963266 1.24736 0
M  V30 5662 C 540.436 -2.07628 1.06832 0
M  V30 5663 C 541.417 -1.70088 -0.0200566 0
M  V30 5664 O 542.602 -1.93636 0.147854 0
M  V30 5665 C 539.732 -3.40636 0.677069 0
M  V30 5666 C 538.686 -3.9215 1.71471 0
M  V30 5667 C 538.012 -5.21553 1.1784 0
M  V30 5668 C 539.312 -4.19493 3.11164 0
M  V30 5669 H 541.006 -2.22864 1.9993 0
M  V30 5670 H 538.552 -1.07093 0.96266 0
M  V30 5671 H 540.505 -4.17941 0.538792 0
M  V30 5672 H 539.229 -3.25313 -0.289612 0
M  V30 5673 H 537.888 -3.17005 1.84128 0
M  V30 5674 H 537.536 -5.02593 0.202195 0
M  V30 5675 H 537.236 -5.56988 1.87185 0
M  V30 5676 H 538.76 -6.01463 1.05233 0
M  V30 5677 H 540.174 -4.87487 3.01711 0
M  V30 5678 H 538.571 -4.66165 3.77902 0
M  V30 5679 H 539.641 -3.26097 3.58871 0
M  V30 5680 N 540.985 -1.06182 -1.16461 0
M  V30 5681 C 541.948 -0.675723 -2.19013 0
M  V30 5682 C 542.948 0.277963 -1.58379 0
M  V30 5683 O 544.138 0.0604962 -1.74095 0
M  V30 5684 C 541.27 0.00591459 -3.40899 0
M  V30 5685 H 542.463 -1.58353 -2.54685 0
M  V30 5686 H 540.016 -0.856908 -1.30716 0
M  V30 5687 H 540.751 0.92652 -3.10783 0
M  V30 5688 H 540.536 -0.67984 -3.86161 0
M  V30 5689 H 542.026 0.26181 -4.16778 0
M  V30 5690 N 542.463 1.3308 -0.844243 0
M  V30 5691 C 543.426 2.27403 -0.286485 0
M  V30 5692 C 544.426 1.51179 0.547872 0
M  V30 5693 O 545.616 1.70421 0.360886 0
M  V30 5694 C 542.748 3.35653 0.595813 0
M  V30 5695 H 543.941 2.78248 -1.11885 0
M  V30 5696 H 541.494 1.43574 -0.617749 0
M  V30 5697 H 542.229 2.90058 1.4504 0
M  V30 5698 H 542.014 3.921 -0.00125994 0
M  V30 5699 H 543.504 4.05958 0.979168 0
M  V30 5700 N 543.941 0.601185 1.45683 0
M  V30 5701 C 545.166 0.0982245 2.07167 0
M  V30 5702 C 545.591 -1.20546 1.44396 0
M  V30 5703 O 544.949 -1.73247 0.534347 0
M  V30 5704 C 544.997 -0.0346976 3.60583 0
M  V30 5705 O 544.101 -1.08657 3.97828 0
M  V30 5706 H 543.442 0.0711618 0.660176 0
M  V30 5707 H 545.972 0.829376 1.87036 0
M  V30 5708 H 545.982 -0.234969 4.07323 0
M  V30 5709 H 544.657 0.917265 4.05659 0
M  V30 5710 H 543.234 -0.863275 3.6277 0
M  V30 5711 N 545.419 -1.53889 0.339982 0
M  V30 5712 C 546.668 -2.00035 -0.258604 0
M  V30 5713 C 546.981 -1.23179 -1.51942 0
M  V30 5714 O 548.187 -1.59784 -2.19503 0
M  V30 5715 C 546.643 -3.56249 -0.511359 0
M  V30 5716 C 546.251 -4.41957 0.733349 0
M  V30 5717 C 547.995 -4.1082 -1.069 0
M  V30 5718 C 545.902 -5.89673 0.451591 0
M  V30 5719 H 544.832 -0.747284 -0.10041 0
M  V30 5720 H 547.483 -1.77776 0.454758 0
M  V30 5721 H 545.865 -3.7456 -1.28533 0
M  V30 5722 H 547.039 -4.35421 1.50815 0
M  V30 5723 H 545.354 -3.9836 1.21237 0
M  V30 5724 H 547.951 -5.18789 -1.2947 0
M  V30 5725 H 548.294 -3.63817 -2.02343 0
M  V30 5726 H 548.827 -3.96205 -0.355817 0
M  V30 5727 H 545.566 -6.40903 1.37565 0
M  V30 5728 H 545.086 -5.99122 -0.285193 0
M  V30 5729 H 546.765 -6.46965 0.0675067 0
M  V30 5730 N 546.897 -0.0685191 -1.57451 0
M  V30 5731 C 548.127 0.609577 -1.97402 0
M  V30 5732 C 548.535 1.63882 -0.945489 0
M  V30 5733 O 547.878 1.8354 0.0766052 0
M  V30 5734 C 547.94 1.3385 -3.33653 0
M  V30 5735 C 547.604 0.463103 -4.54648 0
M  V30 5736 C 548.601 -0.277964 -5.19156 0
M  V30 5737 C 546.286 0.388941 -5.00792 0
M  V30 5738 C 548.28 -1.08145 -6.28159 0
M  V30 5739 C 545.967 -0.418217 -6.09667 0
M  V30 5740 C 546.965 -1.15208 -6.73213 0
M  V30 5741 O 546.653 -1.94594 -7.79993 0
M  V30 5742 H 546.385 0.170197 -0.654224 0
M  V30 5743 H 548.939 -0.13647 -2.04946 0
M  V30 5744 H 547.169 2.13055 -3.22714 0
M  V30 5745 H 548.858 1.90851 -3.58233 0
M  V30 5746 H 549.624 -0.230241 -4.84453 0
M  V30 5747 H 545.503 0.949769 -4.5111 0
M  V30 5748 H 549.047 -1.65476 -6.7769 0
M  V30 5749 H 544.944 -0.467515 -6.43805 0
M  V30 5750 H 545.712 -1.8699 -7.96854 0
M  V30 5751 N 548.375 1.56261 0.205012 0
M  V30 5752 C 549.621 1.80306 0.9283 0
M  V30 5753 C 549.954 0.640932 1.83319 0
M  V30 5754 O 549.229 -0.359032 1.91158 0
M  V30 5755 C 549.512 3.14547 1.75306 0
M  V30 5756 C 549.365 4.41236 0.873562 0
M  V30 5757 C 550.684 3.45382 2.72762 0
M  V30 5758 H 547.803 0.655929 0.336044 0
M  V30 5759 H 550.445 1.88984 0.196211 0
M  V30 5760 H 548.595 3.0728 2.37721 0
M  V30 5761 H 550.267 4.60539 0.264887 0
M  V30 5762 H 548.51 4.33427 0.179773 0
M  V30 5763 H 549.181 5.31639 1.48541 0
M  V30 5764 H 551.657 3.52884 2.20481 0
M  V30 5765 H 550.533 4.40449 3.2756 0
M  V30 5766 H 550.794 2.68377 3.51321 0
M  V30 5767 N 549.853 -0.472356 1.50355 0
M  V30 5768 C 550.763 -1.59637 1.7191 0
M  V30 5769 C 551.779 -1.63247 0.602195 0
M  V30 5770 O 552.955 -1.81139 0.880369 0
M  V30 5771 C 550.02 -2.9586 1.80742 0
M  V30 5772 C 549.081 -3.02649 3.04471 0
M  V30 5773 C 548.314 -4.32374 3.12872 0
M  V30 5774 O 548.537 -5.22807 2.28099 0
M  V30 5775 O 547.471 -4.44728 4.05587 0
M  V30 5776 H 551.297 -1.44373 2.67189 0
M  V30 5777 H 548.882 -0.651717 1.34436 0
M  V30 5778 H 550.764 -3.7677 1.88739 0
M  V30 5779 H 549.439 -3.11325 0.88647 0
M  V30 5780 H 548.346 -2.20821 3.01975 0
M  V30 5781 H 549.679 -2.92119 3.9614 0
M  V30 5782 N 551.331 -1.39911 -0.725443 0
M  V30 5783 C 552.559 -1.40949 -1.51463 0
M  V30 5784 C 552.974 -0.0065242 -1.88799 0
M  V30 5785 O 552.331 0.967163 -1.54765 0
M  V30 5786 C 552.382 -2.29119 -2.79619 0
M  V30 5787 O 552.103 -3.63952 -2.43866 0
M  V30 5788 C 553.604 -2.38642 -3.73584 0
M  V30 5789 H 550.824 -0.481091 -0.467752 0
M  V30 5790 H 553.368 -1.83843 -0.895651 0
M  V30 5791 H 551.523 -1.89612 -3.37826 0
M  V30 5792 H 551.937 -4.10677 -3.26258 0
M  V30 5793 H 553.411 -3.04563 -4.60375 0
M  V30 5794 H 553.888 -1.40846 -4.16004 0
M  V30 5795 H 554.494 -2.78659 -3.21293 0
M  V30 5796 N 552.809 0.956637 -1.25245 0
M  V30 5797 C 554.057 1.69764 -1.09657 0
M  V30 5798 C 554.378 1.91583 0.363464 0
M  V30 5799 O 553.648 1.50149 1.25825 0
M  V30 5800 H 552.228 0.629097 -0.402798 0
M  V30 5801 H 554.89 1.15026 -1.57337 0
M  V30 5802 H 553.986 2.67769 -1.60331 0
M  V30 5803 N 554.287 1.06798 1.15896 0
M  V30 5804 C 555.533 0.788934 1.86825 0
M  V30 5805 C 555.866 -0.683084 1.8179 0
M  V30 5806 O 555.141 -1.50086 1.23711 0
M  V30 5807 C 555.424 1.29065 3.36176 0
M  V30 5808 C 555.277 2.8268 3.49874 0
M  V30 5809 C 556.596 0.902655 4.30744 0
M  V30 5810 H 553.715 0.288066 0.678371 0
M  V30 5811 H 556.357 1.32479 1.36195 0
M  V30 5812 H 554.507 0.834806 3.79425 0
M  V30 5813 H 556.179 3.36511 3.15528 0
M  V30 5814 H 554.422 3.21157 2.91617 0
M  V30 5815 H 555.093 3.12852 4.54783 0
M  V30 5816 H 557.569 1.29535 3.95424 0
M  V30 5817 H 556.445 1.28111 5.3374 0
M  V30 5818 H 556.706 -0.191951 4.41683 0
M  V30 5819 N 555.766 -1.3263 0.851289 0
M  V30 5820 C 557.182 -1.50162 0.5407 0
M  V30 5821 C 557.382 -1.78788 -0.929369 0
M  V30 5822 O 556.438 -1.85545 -1.71258 0
M  V30 5823 C 557.751 -2.64803 1.42478 0
M  V30 5824 C 559.299 -2.78688 1.42485 0
M  V30 5825 C 559.774 -3.96405 2.29407 0
M  V30 5826 N 561.265 -4.0366 2.27184 0
M  V30 5827 C 562 -4.93971 2.9117 0
M  V30 5828 N 561.496 -5.89313 3.64256 0
M  V30 5829 N 563.289 -4.87066 2.80576 0
M  V30 5830 H 555.44 -1.12315 1.80275 0
M  V30 5831 H 557.703 -0.553266 0.769806 0
M  V30 5832 H 557.409 -2.50368 2.46999 0
M  V30 5833 H 557.283 -3.60506 1.10974 0
M  V30 5834 H 559.67 -2.92547 0.387304 0
M  V30 5835 H 559.751 -1.83708 1.78002 0
M  V30 5836 H 559.395 -3.83304 3.33228 0
M  V30 5837 H 559.325 -4.90654 1.91224 0
M  V30 5838 H 561.816 -3.35435 1.74045 0
M  V30 5839 H 562.129 -6.54913 4.10255 0
M  V30 5840 H 560.474 -5.8935 3.68364 0
M  V30 5841 H 563.665 -4.11552 2.23031 0
M  V30 5842 H 563.838 -5.57248 3.30725 0
M  V30 5843 N 557.244 -0.608902 -1.45362 0
M  V30 5844 C 558.469 -0.10921 -2.07112 0
M  V30 5845 C 558.894 1.19779 -1.45033 0
M  V30 5846 O 558.252 1.72961 -0.543527 0
M  V30 5847 C 558.3 0.0155745 -3.60597 0
M  V30 5848 O 557.404 1.06546 -3.98399 0
M  V30 5849 H 556.745 -0.0746619 -0.659789 0
M  V30 5850 H 559.275 -0.839283 -1.86594 0
M  V30 5851 H 559.285 0.213364 -4.07442 0
M  V30 5852 H 557.96 -0.938765 -4.05167 0
M  V30 5853 H 556.537 0.844024 -3.63223 0
M  V30 5854 N 558.722 1.53707 -0.348139 0
M  V30 5855 C 559.655 2.21481 0.549667 0
M  V30 5856 C 560.633 1.20046 1.09671 0
M  V30 5857 O 561.817 1.48883 1.15612 0
M  V30 5858 C 558.944 2.89585 1.75664 0
M  V30 5859 C 557.99 4.04948 1.33864 0
M  V30 5860 S 558.823 5.34325 0.354577 0
M  V30 5861 C 559.979 6.05934 1.56828 0
M  V30 5862 H 560.212 2.97289 -0.0259755 0
M  V30 5863 H 557.745 1.53833 -0.132216 0
M  V30 5864 H 559.703 3.29441 2.44906 0
M  V30 5865 H 558.364 2.13535 2.30351 0
M  V30 5866 H 557.557 4.51552 2.23868 0
M  V30 5867 H 557.159 3.66893 0.725651 0
M  V30 5868 H 559.451 6.29606 2.50205 0
M  V30 5869 H 560.394 6.98799 1.14395 0
M  V30 5870 H 560.802 5.36151 1.76642 0
M  V30 5871 N 560.2 0.0768682 1.57412 0
M  V30 5872 C 561.11 -0.903207 2.16516 0
M  V30 5873 C 562.126 -1.32341 1.12968 0
M  V30 5874 O 563.302 -1.39507 1.45258 0
M  V30 5875 C 560.367 -2.1508 2.71922 0
M  V30 5876 C 559.428 -1.78653 3.90361 0
M  V30 5877 C 558.661 -2.97465 4.43114 0
M  V30 5878 O 558.884 -4.11638 3.94854 0
M  V30 5879 O 557.818 -2.76987 5.3438 0
M  V30 5880 H 561.644 -0.430427 3.00634 0
M  V30 5881 H 559.229 -0.146485 1.4868 0
M  V30 5882 H 561.111 -2.8823 3.07411 0
M  V30 5883 H 559.786 -2.61446 1.9086 0
M  V30 5884 H 558.693 -1.0274 3.59716 0
M  V30 5885 H 560.026 -1.37066 4.7273 0
M  V30 5886 N 561.678 -1.56367 -0.196722 0
M  V30 5887 C 563.094 -1.49916 -0.54749 0
M  V30 5888 C 563.294 -0.77659 -1.85934 0
M  V30 5889 O 562.35 -0.32644 -2.50381 0
M  V30 5890 C 563.663 -2.94577 -0.603734 0
M  V30 5891 C 565.211 -3.05239 -0.692677 0
M  V30 5892 C 565.686 -4.51308 -0.780046 0
M  V30 5893 N 567.177 -4.55453 -0.843616 0
M  V30 5894 C 567.912 -5.65786 -0.931358 0
M  V30 5895 N 567.408 -6.85812 -0.981503 0
M  V30 5896 N 569.201 -5.53695 -0.968421 0
M  V30 5897 H 561.352 -2.01761 0.663803 0
M  V30 5898 H 563.615 -0.918094 0.236238 0
M  V30 5899 H 563.321 -3.50494 0.29105 0
M  V30 5900 H 563.195 -3.47841 -1.45898 0
M  V30 5901 H 565.582 -2.49372 -1.57789 0
M  V30 5902 H 565.663 -2.55103 0.188736 0
M  V30 5903 H 565.307 -5.078 0.100811 0
M  V30 5904 H 565.237 -4.99176 -1.67724 0
M  V30 5905 H 567.728 -3.69025 -0.814176 0
M  V30 5906 H 568.041 -7.65648 -1.04892 0
M  V30 5907 H 566.386 -6.88474 -0.950208 0
M  V30 5908 H 569.577 -4.58848 -0.926072 0
M  V30 5909 H 569.75 -6.39708 -1.03334 0
M  V30 5910 N 563.156 0.464375 -1.50603 0
M  V30 5911 C 564.404 1.21356 -1.61608 0
M  V30 5912 C 564.725 1.92329 -0.321643 0
M  V30 5913 O 563.995 1.84403 0.661232 0
M  V30 5914 H 562.575 0.45094 -0.595535 0
M  V30 5915 H 565.237 0.535046 -1.87412 0
M  V30 5916 H 564.333 1.95783 -2.43054 0
M  V30 5917 N 564.634 1.40294 0.718013 0
M  V30 5918 C 565.883 1.37746 1.4734 0
M  V30 5919 C 566.196 -0.0180754 1.95592 0
M  V30 5920 O 567.402 -0.166166 2.70991 0
M  V30 5921 C 565.858 2.4208 2.66318 0
M  V30 5922 C 565.466 3.87432 2.24945 0
M  V30 5923 C 567.21 2.48635 3.44065 0
M  V30 5924 C 565.117 4.83368 3.40748 0
M  V30 5925 H 564.047 0.512165 0.553356 0
M  V30 5926 H 566.698 1.66019 0.781661 0
M  V30 5927 H 565.08 2.06903 3.3765 0
M  V30 5928 H 566.254 4.3174 1.6105 0
M  V30 5929 H 564.569 3.8433 1.60249 0
M  V30 5930 H 567.166 3.17499 4.30231 0
M  V30 5931 H 567.509 1.51611 3.87711 0
M  V30 5932 H 568.042 2.82791 2.79775 0
M  V30 5933 H 564.781 5.81716 3.02136 0
M  V30 5934 H 564.301 4.43726 4.03568 0
M  V30 5935 H 565.98 5.03074 4.06848 0
M  V30 5936 N 566.112 -0.949982 1.2575 0
M  V30 5937 C 567.361 -1.68956 1.10168 0
M  V30 5938 C 567.674 -1.92327 -0.356309 0
M  V30 5939 O 568.88 -2.64026 -0.632657 0
M  V30 5940 C 567.336 -3.04196 1.92336 0
M  V30 5941 C 566.944 -2.88603 3.42655 0
M  V30 5942 C 568.688 -3.81904 1.85336 0
M  V30 5943 C 566.595 -4.19262 4.17101 0
M  V30 5944 H 565.525 -0.633645 0.408668 0
M  V30 5945 H 568.176 -1.05719 1.49986 0
M  V30 5946 H 566.558 -3.68363 1.45344 0
M  V30 5947 H 567.732 -2.3334 3.97353 0
M  V30 5948 H 566.047 -2.24345 3.50796 0
M  V30 5949 H 568.644 -4.78688 2.38248 0
M  V30 5950 H 568.987 -4.08099 0.822226 0
M  V30 5951 H 569.52 -3.24495 2.30104 0
M  V30 5952 H 566.259 -3.98254 5.20648 0
M  V30 5953 H 565.779 -4.74273 3.67186 0
M  V30 5954 H 567.458 -4.87775 4.25071 0
M  V30 5955 N 567.59 -1.07411 -1.15328 0
M  V30 5956 C 568.815 -0.818856 -1.90551 0
M  V30 5957 C 569.24 0.622194 -1.77512 0
M  V30 5958 O 568.598 1.43484 -1.10824 0
M  V30 5959 C 568.646 -1.23267 -3.38877 0
M  V30 5960 O 567.75 -0.378345 -4.10661 0
M  V30 5961 H 567.091 -0.29827 -0.593238 0
M  V30 5962 H 569.621 -1.43289 -1.46046 0
M  V30 5963 H 569.631 -1.20912 -3.89672 0
M  V30 5964 H 568.306 -2.28226 -3.47686 0
M  V30 5965 H 566.883 -0.464437 -3.69996 0
M  V30 5966 N 569.068 1.32177 -0.85831 0
M  V30 5967 C 570.031 2.27086 -0.310588 0
M  V30 5968 C 571.031 1.51751 0.531806 0
M  V30 5969 O 572.221 1.70794 0.34279 0
M  V30 5970 C 569.353 3.36266 0.560179 0
M  V30 5971 H 570.546 2.77045 -1.1483 0
M  V30 5972 H 568.099 1.42911 -0.632942 0
M  V30 5973 H 568.834 2.9158 1.41956 0
M  V30 5974 H 568.619 3.92077 -0.0428473 0
M  V30 5975 H 570.109 4.06974 0.936056 0
M  V30 5976 N 570.547 0.616602 1.45037 0
M  V30 5977 C 571.795 0.115103 2.01772 0
M  V30 5978 C 572.116 -1.2622 1.48639 0
M  V30 5979 O 571.386 -1.83563 0.684199 0
M  V30 5980 H 569.966 0.0395607 0.745952 0
M  V30 5981 H 572.628 0.800032 1.77723 0
M  V30 5982 H 571.724 0.0717274 3.12018 0
M  V30 5983 N 572.025 -1.5352 0.356285 0
M  V30 5984 C 573.441 -1.59599 0.00485267 0
M  V30 5985 C 573.641 -1.37179 -1.47595 0
M  V30 5986 O 572.697 -1.17234 -2.23635 0
M  V30 5987 C 574.01 -2.97277 0.452454 0
M  V30 5988 C 575.558 -3.10357 0.405881 0
M  V30 5989 C 576.033 -4.50432 0.829148 0
M  V30 5990 N 577.524 -4.5652 0.783838 0
M  V30 5991 C 578.259 -5.63077 1.08315 0
M  V30 5992 N 577.755 -6.77429 1.45126 0
M  V30 5993 N 579.548 -5.53014 1.00655 0
M  V30 5994 H 571.699 -1.66346 1.32071 0
M  V30 5995 H 573.962 -0.77971 0.539218 0
M  V30 5996 H 573.668 -3.18792 1.48542 0
M  V30 5997 H 573.542 -3.76836 -0.165762 0
M  V30 5998 H 575.929 -2.88558 -0.617934 0
M  V30 5999 H 576.01 -2.32828 1.05947 0
M  V30 6000 H 575.654 -4.72968 1.85103 0
M  V30 6001 H 575.584 -5.26378 0.152906 0
M  V30 6002 H 578.075 -3.74408 0.512513 0
M  V30 6003 H 578.388 -7.54669 1.66415 0
M  V30 6004 H 576.733 -6.78844 1.48983 0
M  V30 6005 H 579.924 -4.62557 0.718215 0
M  V30 6006 H 580.097 -6.35964 1.24315 0
M  V30 6007 N 573.503 -0.0852151 -1.57369 0
M  V30 6008 C 574.451 0.894856 -2.14698 0
M  V30 6009 C 575.445 1.29903 -1.08727 0
M  V30 6010 O 576.651 1.27471 -1.27088 0
M  V30 6011 H 573.026 0.306569 -0.686673 0
M  V30 6012 H 574.997 0.386542 -2.95886 0
M  V30 6013 C 573.746 2.14798 -2.73417 0
M  V30 6014 H 573.069 1.84585 -3.54638 0
M  V30 6015 H 574.509 2.81456 -3.1711 0
M  V30 6016 C 572.968 2.91546 -1.68828 0
M  V30 6017 O 573.498 3.85733 -1.12129 0
M  V30 6018 N 571.704 2.54901 -1.39549 0
M  V30 6019 H 571.251 1.7838 -1.85845 0
M  V30 6020 H 571.209 3.06553 -0.698054 0
M  V30 6021 N 574.981 1.5647 0.188427 0
M  V30 6022 C 575.929 1.95971 1.25293 0
M  V30 6023 C 576.923 0.846047 1.4676 0
M  V30 6024 O 578.129 1.03109 1.47542 0
M  V30 6025 H 574.504 0.623253 0.420784 0
M  V30 6026 H 576.475 2.84731 0.892792 0
M  V30 6027 C 575.224 2.32116 2.58877 0
M  V30 6028 H 574.547 3.17341 2.43176 0
M  V30 6029 H 575.987 2.63613 3.3209 0
M  V30 6030 C 574.446 1.15823 3.16365 0
M  V30 6031 O 574.976 0.436785 3.99318 0
M  V30 6032 N 573.182 0.933278 2.75206 0
M  V30 6033 H 572.729 1.52169 2.07852 0
M  V30 6034 H 572.687 0.156976 3.14008 0
M  V30 6035 N 576.459 -0.456382 1.50847 0
M  V30 6036 C 577.705 -1.20914 1.62811 0
M  V30 6037 C 578.038 -1.91301 0.334304 0
M  V30 6038 O 577.313 -1.82775 -0.665098 0
M  V30 6039 C 577.596 -2.24122 2.81853 0
M  V30 6040 C 577.449 -1.57944 4.21158 0
M  V30 6041 C 578.768 -3.25295 2.96431 0
M  V30 6042 H 575.887 -0.438233 0.592554 0
M  V30 6043 H 578.529 -0.50091 1.83278 0
M  V30 6044 H 576.679 -2.84524 2.64534 0
M  V30 6045 H 578.351 -1.01025 4.50102 0
M  V30 6046 H 576.594 -0.882185 4.24735 0
M  V30 6047 H 577.265 -2.33014 5.00408 0
M  V30 6048 H 579.741 -2.7493 3.12335 0
M  V30 6049 H 578.617 -3.94822 3.81322 0
M  V30 6050 H 578.878 -3.90286 2.07676 0
M  V30 6051 N 577.937 -1.40673 -0.710563 0
M  V30 6052 C 579.165 -1.42547 -1.4996 0
M  V30 6053 C 579.58 -0.0265485 -1.88781 0
M  V30 6054 O 578.937 0.950694 -1.55782 0
M  V30 6055 C 578.988 -2.32071 -2.77173 0
M  V30 6056 O 578.709 -3.66518 -2.39992 0
M  V30 6057 C 580.21 -2.42591 -3.71032 0
M  V30 6058 H 577.43 -0.486025 -0.462623 0
M  V30 6059 H 579.974 -1.84783 -0.876102 0
M  V30 6060 H 578.129 -1.93184 -3.35795 0
M  V30 6061 H 578.543 -4.14115 -3.21884 0
M  V30 6062 H 580.017 -3.09429 -4.57119 0
M  V30 6063 H 580.494 -1.4525 -4.14486 0
M  V30 6064 H 581.1 -2.82051 -3.18319 0
M  V30 6065 N 579.415 0.9433 -1.26252 0
M  V30 6066 C 580.663 1.68592 -1.11451 0
M  V30 6067 C 580.984 1.91957 0.343123 0
M  V30 6068 O 580.254 1.51475 1.24226 0
M  V30 6069 H 578.834 0.624789 -0.409448 0
M  V30 6070 H 581.496 1.13351 -1.58548 0
M  V30 6071 H 580.592 2.66054 -1.63162 0
M  V30 6072 N 580.893 1.08022 1.14757 0
M  V30 6073 C 581.803 0.718292 2.23333 0
M  V30 6074 C 582.819 -0.273477 1.71837 0
M  V30 6075 O 583.995 -0.118406 2.01052 0
M  V30 6076 C 581.06 0.128855 3.4646 0
M  V30 6077 C 580.121 1.17473 4.12915 0
M  V30 6078 C 579.354 0.61333 5.30164 0
M  V30 6079 O 579.577 -0.568458 5.6756 0
M  V30 6080 O 578.511 1.3615 5.86299 0
M  V30 6081 H 582.337 1.62394 2.56636 0
M  V30 6082 H 579.922 0.853628 1.22611 0
M  V30 6083 H 581.804 -0.197249 4.20938 0
M  V30 6084 H 580.479 -0.750014 3.14891 0
M  V30 6085 H 579.386 1.5533 3.40328 0
M  V30 6086 H 580.719 2.02574 4.48581 0
M  V30 6087 N 582.371 -1.3172 0.865308 0
M  V30 6088 C 583.321 -2.26157 0.289305 0
M  V30 6089 C 584.305 -1.50428 -0.570977 0
M  V30 6090 O 585.497 -1.71978 -0.418617 0
M  V30 6091 C 582.626 -3.39457 -0.512237 0
M  V30 6092 C 581.712 -4.22561 0.361028 0
M  V30 6093 N 582.103 -4.84501 1.45231 0
M  V30 6094 C 580.401 -4.45739 0.152641 0
M  V30 6095 C 581.102 -5.46586 1.99043 0
M  V30 6096 N 580.078 -5.28119 1.28809 0
M  V30 6097 H 583.88 -2.71581 1.12344 0
M  V30 6098 H 581.394 -1.45932 0.712565 0
M  V30 6099 H 583.391 -4.06133 -0.941379 0
M  V30 6100 H 582.051 -2.95577 -1.34404 0
M  V30 6101 H 583.062 -4.84293 1.83524 0
M  V30 6102 H 579.739 -4.1251 -0.643583 0
M  V30 6103 H 581.129 -6.05817 2.90577 0
M  V30 6104 N 583.85 -0.624285 -1.44708 0
M  V30 6105 C 584.8 0.106466 -2.27751 0
M  V30 6106 C 585.784 0.822703 -1.38277 0
M  V30 6107 O 586.976 0.709939 -1.62138 0
M  V30 6108 C 584.105 1.092 -3.25469 0
M  V30 6109 C 583.191 0.375737 -4.22432 0
M  V30 6110 N 583.582 -0.591881 -5.02325 0
M  V30 6111 C 581.88 0.621093 -4.41654 0
M  V30 6112 C 582.581 -1.01443 -5.72786 0
M  V30 6113 N 581.557 -0.354651 -5.42442 0
M  V30 6114 H 585.359 -0.636464 -2.86926 0
M  V30 6115 H 582.873 -0.44925 -1.56062 0
M  V30 6116 H 584.87 1.63006 -3.83712 0
M  V30 6117 H 583.529 1.8353 -2.67856 0
M  V30 6118 H 584.541 -0.969389 -5.08747 0
M  V30 6119 H 581.218 1.34779 -3.95147 0
M  V30 6120 H 582.608 -1.81345 -6.46965 0
M  V30 6121 N 585.328 1.53329 -0.364422 0
M  V30 6122 C 586.744 1.59594 -0.0133165 0
M  V30 6123 C 586.944 1.37959 1.46865 0
M  V30 6124 O 586 1.18418 2.2301 0
M  V30 6125 C 587.313 2.97032 -0.468213 0
M  V30 6126 C 588.861 3.10138 -0.422334 0
M  V30 6127 C 589.336 4.49986 -0.853024 0
M  V30 6128 N 590.827 4.56098 -0.808037 0
M  V30 6129 C 591.562 5.62495 -1.11299 0
M  V30 6130 N 591.058 6.7665 -1.48717 0
M  V30 6131 N 592.851 5.52473 -1.03586 0
M  V30 6132 H 585.002 1.65644 -1.32951 0
M  V30 6133 H 587.265 0.77684 -0.543345 0
M  V30 6134 H 586.971 3.18 -1.5023 0
M  V30 6135 H 586.845 3.76918 0.145775 0
M  V30 6136 H 589.232 2.88881 0.602622 0
M  V30 6137 H 589.313 2.32263 -1.0718 0
M  V30 6138 H 588.957 4.7198 -1.87609 0
M  V30 6139 H 588.887 5.26289 -0.180819 0
M  V30 6140 H 591.378 3.74131 -0.532361 0
M  V30 6141 H 591.691 7.53776 -1.70415 0
M  V30 6142 H 590.036 6.78044 -1.52581 0
M  V30 6143 H 593.227 4.6217 -0.742736 0
M  V30 6144 H 593.4 6.35295 -1.27686 0
M  V30 6145 N 586.806 0.0935595 1.57322 0
M  V30 6146 C 588.217 -0.435807 1.81542 0
M  V30 6147 C 588.568 -1.68263 1.00907 0
M  V30 6148 O 587.693 -2.15087 0.237983 0
M  V30 6149 C 588.288 -0.797436 3.29282 0
M  V30 6150 C 586.847 -1.27155 3.54272 0
M  V30 6151 C 585.994 -0.267455 2.76007 0
M  V30 6152 H 588.945 0.31902 1.5546 0
M  V30 6153 H 588.966 -1.6571 3.42521 0
M  V30 6154 H 588.478 0.110206 3.87943 0
M  V30 6155 H 586.579 -2.19696 3.00939 0
M  V30 6156 H 586.692 -1.23445 4.62923 0
M  V30 6157 H 585.056 -0.749282 2.43429 0
M  V30 6158 H 585.839 0.632839 3.37417 0
M  V30 6159 N 588.284 -1.56567 -0.180126 0
M  V30 6160 C 589.231 -1.95725 -1.22313 0
M  V30 6161 C 590.201 -0.819911 -1.44453 0
M  V30 6162 O 591.386 -1.07931 -1.57339 0
M  V30 6163 C 588.526 -2.31484 -2.55947 0
M  V30 6164 C 587.639 -3.58354 -2.4126 0
M  V30 6165 C 586.774 -3.83366 -3.67701 0
M  V30 6166 C 585.813 -5.03612 -3.47909 0
M  V30 6167 N 584.95 -5.24802 -4.66398 0
M  V30 6168 H 589.79 -2.84642 -0.882198 0
M  V30 6169 H 587.327 -1.4085 -0.42422 0
M  V30 6170 H 589.285 -2.50237 -3.33822 0
M  V30 6171 H 587.915 -1.45689 -2.88053 0
M  V30 6172 H 586.967 -3.47565 -1.54606 0
M  V30 6173 H 588.279 -4.46386 -2.22577 0
M  V30 6174 H 587.433 -4.02439 -4.54013 0
M  V30 6175 H 586.172 -2.93692 -3.89353 0
M  V30 6176 H 585.177 -4.84447 -2.59983 0
M  V30 6177 H 586.402 -5.94809 -3.27688 0
M  V30 6178 H 584.348 -4.38079 -4.88286 0
M  V30 6179 H 584.265 -6.07041 -4.50596 0
M  V30 6180 H 585.533 -5.48346 -5.54019 0
M  V30 6181 N 589.762 0.448376 -1.51087 0
M  V30 6182 C 590.692 1.55102 -1.74544 0
M  V30 6183 C 591.673 1.59357 -0.594932 0
M  V30 6184 O 592.858 1.75261 -0.836491 0
M  V30 6185 C 589.988 2.93268 -1.86041 0
M  V30 6186 C 588.942 3.03877 -3.01402 0
M  V30 6187 C 588.268 4.43914 -2.98068 0
M  V30 6188 C 589.568 2.7898 -4.41551 0
M  V30 6189 H 591.262 1.35724 -2.66869 0
M  V30 6190 H 588.808 0.651498 -1.28419 0
M  V30 6191 H 590.761 3.70356 -2.01034 0
M  V30 6192 H 589.485 3.13853 -0.903548 0
M  V30 6193 H 588.144 2.29227 -2.86096 0
M  V30 6194 H 587.792 4.6145 -2.00182 0
M  V30 6195 H 587.492 4.51944 -3.75527 0
M  V30 6196 H 589.016 5.22991 -3.1514 0
M  V30 6197 H 590.43 3.45805 -4.57265 0
M  V30 6198 H 588.827 2.98431 -5.20633 0
M  V30 6199 H 589.897 1.74663 -4.5235 0
M  V30 6200 N 591.24 1.41047 0.703093 0
M  V30 6201 C 592.15 1.44645 1.84703 0
M  V30 6202 C 593.166 0.337778 1.7069 0
M  V30 6203 O 594.342 0.584327 1.92737 0
M  V30 6204 C 591.407 1.31928 3.20618 0
M  V30 6205 C 590.468 2.53047 3.46794 0
M  V30 6206 C 589.701 2.40927 4.76224 0
M  V30 6207 O 589.924 1.42978 5.5219 0
M  V30 6208 O 588.858 3.30543 5.03016 0
M  V30 6209 H 592.684 2.41139 1.84624 0
M  V30 6210 H 590.269 1.22504 0.855167 0
M  V30 6211 H 592.151 1.27092 4.01778 0
M  V30 6212 H 590.826 0.385469 3.21397 0
M  V30 6213 H 589.733 2.6346 2.65593 0
M  V30 6214 H 591.066 3.45231 3.50822 0
M  V30 6215 N 592.718 -0.936591 1.26751 0
M  V30 6216 C 593.946 -1.71758 1.15355 0
M  V30 6217 C 594.361 -1.86549 -0.290683 0
M  V30 6218 O 593.718 -1.37616 -1.19868 0
M  V30 6219 C 593.769 -3.12193 1.82258 0
M  V30 6220 O 593.49 -2.98105 3.21038 0
M  V30 6221 C 594.991 -4.06485 1.76875 0
M  V30 6222 H 592.211 -0.537636 0.401483 0
M  V30 6223 H 594.755 -1.17382 1.67457 0
M  V30 6224 H 592.91 -3.63456 1.34083 0
M  V30 6225 H 593.324 -3.86824 3.54214 0
M  V30 6226 H 594.798 -5.02569 2.28316 0
M  V30 6227 H 595.275 -4.32986 0.736216 0
M  V30 6228 H 595.881 -3.61144 2.24623 0
M  V30 6229 N 594.196 -1.08629 -1.14182 0
M  V30 6230 C 595.442 -0.818556 -1.85546 0
M  V30 6231 C 595.775 0.654076 -1.82854 0
M  V30 6232 O 595.05 1.48099 -1.26083 0
M  V30 6233 C 595.333 -1.34397 -3.3408 0
M  V30 6234 C 595.186 -2.8821 -3.45333 0
M  V30 6235 C 596.505 -0.971069 -4.29253 0
M  V30 6236 H 593.624 -0.298821 -0.673702 0
M  V30 6237 H 596.266 -1.34629 -1.34071 0
M  V30 6238 H 594.416 -0.895064 -3.78049 0
M  V30 6239 H 596.088 -3.41488 -3.10134 0
M  V30 6240 H 594.331 -3.25756 -2.86471 0
M  V30 6241 H 595.002 -3.20047 -4.49749 0
M  V30 6242 H 597.478 -1.35809 -3.93313 0
M  V30 6243 H 596.354 -1.36586 -5.31635 0
M  V30 6244 H 596.615 0.121659 -4.41933 0
M  V30 6245 N 595.674 1.31259 -0.872281 0
M  V30 6246 C 597.09 1.49283 -0.564521 0
M  V30 6247 C 597.29 1.80243 0.900807 0
M  V30 6248 O 596.346 1.88246 1.68284 0
M  V30 6249 C 597.659 2.62503 -1.46673 0
M  V30 6250 C 599.207 2.76386 -1.46901 0
M  V30 6251 C 599.682 3.92705 -2.35684 0
M  V30 6252 N 601.173 3.99995 -2.33577 0
M  V30 6253 C 601.908 4.89276 -2.98992 0
M  V30 6254 N 601.404 5.83443 -3.73585 0
M  V30 6255 N 603.197 4.82541 -2.88289 0
M  V30 6256 H 595.348 1.09432 -1.82039 0
M  V30 6257 H 597.611 0.540949 -0.77851 0
M  V30 6258 H 597.317 2.46407 -2.50951 0
M  V30 6259 H 597.191 3.58695 -1.16696 0
M  V30 6260 H 599.578 2.91894 -0.433796 0
M  V30 6261 H 599.659 1.80853 -1.80903 0
M  V30 6262 H 599.303 3.77954 -3.39283 0
M  V30 6263 H 599.233 4.87549 -1.99006 0
M  V30 6264 H 601.724 3.32624 -1.7936 0
M  V30 6265 H 602.037 6.48303 -4.20622 0
M  V30 6266 H 600.382 5.83415 -3.77694 0
M  V30 6267 H 603.573 4.07951 -2.2955 0
M  V30 6268 H 603.746 5.51916 -3.39549 0
M  V30 6269 N 597.152 0.631951 1.44375 0
M  V30 6270 C 598.082 -0.0593243 2.33425 0
M  V30 6271 C 599.063 -0.833964 1.48253 0
M  V30 6272 O 600.248 -0.799682 1.76971 0
M  V30 6273 C 597.378 -1.04096 3.31333 0
M  V30 6274 C 596.332 -0.377899 4.26328 0
M  V30 6275 C 595.658 -1.4695 5.14111 0
M  V30 6276 C 596.958 0.716371 5.17364 0
M  V30 6277 H 598.652 0.684287 2.91475 0
M  V30 6278 H 596.198 0.330518 1.40156 0
M  V30 6279 H 598.151 -1.53331 3.92514 0
M  V30 6280 H 596.875 -1.81547 2.71493 0
M  V30 6281 H 595.534 0.0938054 3.6648 0
M  V30 6282 H 595.182 -2.2349 4.50623 0
M  V30 6283 H 594.882 -1.03121 5.78481 0
M  V30 6284 H 596.406 -1.96363 5.78164 0
M  V30 6285 H 597.82 0.307089 5.72477 0
M  V30 6286 H 596.217 1.07784 5.90341 0
M  V30 6287 H 597.287 1.58316 4.58327 0
M  V30 6288 N 598.631 -1.53133 0.372548 0
M  V30 6289 C 599.859 -2.05774 -0.215515 0
M  V30 6290 C 600.274 -1.24555 -1.41886 0
M  V30 6291 O 599.631 -0.287951 -1.80214 0
M  V30 6292 C 599.682 -3.5645 -0.602161 0
M  V30 6293 O 599.403 -4.34591 0.553359 0
M  V30 6294 C 600.904 -4.25374 -1.24787 0
M  V30 6295 H 598.124 -0.670009 -0.0364529 0
M  V30 6296 H 600.668 -1.97434 0.532934 0
M  V30 6297 H 598.823 -3.64918 -1.30052 0
M  V30 6298 H 599.237 -5.23954 0.239336 0
M  V30 6299 H 600.711 -5.32097 -1.46891 0
M  V30 6300 H 601.188 -3.79531 -2.21026 0
M  V30 6301 H 601.794 -4.21177 -0.590752 0
M  V30 6302 N 600.109 -0.101901 -1.5727 0
M  V30 6303 C 601.358 0.559922 -1.93772 0
M  V30 6304 C 601.671 1.68913 -0.98629 0
M  V30 6305 O 602.877 2.41256 -1.24529 0
M  V30 6306 C 601.333 1.04739 -3.44322 0
M  V30 6307 C 600.941 -0.05243 -4.47969 0
M  V30 6308 C 602.685 1.68157 -3.89774 0
M  V30 6309 C 600.592 0.450781 -5.8968 0
M  V30 6310 H 599.522 0.212931 -0.723309 0
M  V30 6311 H 602.173 -0.179001 -1.82625 0
M  V30 6312 H 600.555 1.84021 -3.50645 0
M  V30 6313 H 601.729 -0.828157 -4.53297 0
M  V30 6314 H 600.044 -0.592202 -4.12167 0
M  V30 6315 H 602.641 2.0689 -4.93052 0
M  V30 6316 H 602.984 2.55338 -3.28798 0
M  V30 6317 H 603.517 0.954453 -3.8618 0
M  V30 6318 H 600.256 -0.38458 -6.54371 0
M  V30 6319 H 599.776 1.19336 -5.87809 0
M  V30 6320 H 601.455 0.917555 -6.40461 0
M  V30 6321 N 601.587 1.56661 0.17182 0
M  V30 6322 C 602.998 1.71652 0.734329 0
M  V30 6323 C 603.349 0.712335 1.82812 0
M  V30 6324 O 602.474 -0.126401 2.16031 0
M  V30 6325 C 603.069 3.11226 1.3388 0
M  V30 6326 C 601.628 3.27904 1.84813 0
M  V30 6327 C 600.775 2.67603 0.726917 0
M  V30 6328 H 603.726 1.5861 -0.0535665 0
M  V30 6329 H 603.747 3.09849 2.20849 0
M  V30 6330 H 603.259 3.8429 0.54249 0
M  V30 6331 H 601.36 2.59796 2.6709 0
M  V30 6332 H 601.473 4.35637 1.99392 0
M  V30 6333 H 599.837 2.274 1.14723 0
M  V30 6334 H 600.62 3.43252 -0.0575334 0
M  V30 6335 N 603.065 -0.440357 1.51323 0
M  V30 6336 C 604.481 -0.7766 1.39431 0
M  V30 6337 C 604.681 -1.95838 0.474296 0
M  V30 6338 O 603.737 -2.52398 -0.0716692 0
M  V30 6339 C 605.05 -1.05981 2.81405 0
M  V30 6340 C 606.598 -1.16442 2.90534 0
M  V30 6341 C 607.073 -1.48058 4.33408 0
M  V30 6342 N 608.564 -1.54988 4.36501 0
M  V30 6343 C 609.299 -1.81017 5.44078 0
M  V30 6344 N 608.795 -2.04858 6.61819 0
M  V30 6345 N 610.588 -1.82774 5.31554 0
M  V30 6346 H 602.739 0.338006 2.09693 0
M  V30 6347 H 605.002 0.0888072 0.943831 0
M  V30 6348 H 604.708 -0.264173 3.50706 0
M  V30 6349 H 604.582 -1.98822 3.20546 0
M  V30 6350 H 606.969 -1.95068 2.21432 0
M  V30 6351 H 607.05 -0.215088 2.54894 0
M  V30 6352 H 606.694 -0.699605 5.03059 0
M  V30 6353 H 606.624 -2.44192 4.66559 0
M  V30 6354 H 609.115 -1.38479 3.51613 0
M  V30 6355 H 609.428 -2.2408 7.396 0
M  V30 6356 H 607.773 -2.02187 6.6494 0
M  V30 6357 H 610.964 -1.63665 4.38556 0
M  V30 6358 H 611.137 -2.02722 6.15474 0
M  V30 6359 N 604.543 -1.41418 -0.695603 0
M  V30 6360 C 605.959 -1.23887 -1.00619 0
M  V30 6361 C 606.159 -0.128206 -2.01092 0
M  V30 6362 O 605.215 0.507408 -2.47349 0
M  V30 6363 C 606.528 -2.58816 -1.53083 0
M  V30 6364 C 608.076 -2.65998 -1.64967 0
M  V30 6365 C 608.551 -4.01244 -2.20833 0
M  V30 6366 N 610.042 -4.0309 -2.28194 0
M  V30 6367 C 610.777 -5.04539 -2.72448 0
M  V30 6368 N 610.273 -6.16378 -3.16306 0
M  V30 6369 N 612.066 -4.91901 -2.72011 0
M  V30 6370 H 604.217 -2.12379 -0.0300061 0
M  V30 6371 H 606.48 -0.944958 -0.0758797 0
M  V30 6372 H 606.186 -3.40842 -0.867147 0
M  V30 6373 H 606.06 -2.81299 -2.51298 0
M  V30 6374 H 608.447 -1.84331 -2.30448 0
M  V30 6375 H 608.528 -2.47325 -0.652982 0
M  V30 6376 H 608.172 -4.83359 -1.55968 0
M  V30 6377 H 608.102 -4.17257 -3.21254 0
M  V30 6378 H 610.593 -3.22341 -1.97242 0
M  V30 6379 H 610.906 -6.89658 -3.487 0
M  V30 6380 H 609.251 -6.19914 -3.14215 0
M  V30 6381 H 612.442 -4.03613 -2.37095 0
M  V30 6382 H 612.615 -5.71102 -3.06181 0
M  V30 6383 N 606.021 0.929856 -1.27246 0
M  V30 6384 C 607.267 1.6798 -1.13625 0
M  V30 6385 C 607.6 1.91586 0.317589 0
M  V30 6386 O 606.875 1.50467 1.23247 0
M  V30 6387 C 607.158 3.04766 -1.91806 0
M  V30 6388 C 607.011 2.88415 -3.45162 0
M  V30 6389 C 608.33 4.05063 -1.72082 0
M  V30 6390 H 605.449 0.609632 -0.414147 0
M  V30 6391 H 608.091 1.0792 -1.56376 0
M  V30 6392 H 606.241 3.56034 -1.55474 0
M  V30 6393 H 607.913 2.44282 -3.91311 0
M  V30 6394 H 606.156 2.23802 -3.71611 0
M  V30 6395 H 606.827 3.85482 -3.95105 0
M  V30 6396 H 609.303 3.62798 -2.03757 0
M  V30 6397 H 608.179 4.98765 -2.29182 0
M  V30 6398 H 608.44 4.37021 -0.668206 0
M  V30 6399 N 607.499 1.09233 1.13605 0
M  V30 6400 C 608.729 0.847677 1.88409 0
M  V30 6401 C 609.137 -0.604524 1.79282 0
M  V30 6402 O 608.48 -1.42773 1.15592 0
M  V30 6403 C 608.542 1.20153 3.38827 0
M  V30 6404 C 608.206 2.65824 3.71735 0
M  V30 6405 C 609.203 3.64072 3.71143 0
M  V30 6406 C 606.888 3.01894 4.01454 0
M  V30 6407 C 608.882 4.96419 3.99808 0
M  V30 6408 C 606.569 4.34433 4.29781 0
M  V30 6409 C 607.567 5.31505 4.28942 0
M  V30 6410 O 607.255 6.61659 4.56576 0
M  V30 6411 H 606.987 0.304813 0.603378 0
M  V30 6412 H 609.541 1.4573 1.44748 0
M  V30 6413 H 607.771 0.534946 3.82982 0
M  V30 6414 H 609.46 0.936349 3.94952 0
M  V30 6415 H 610.226 3.37549 3.4826 0
M  V30 6416 H 606.105 2.26971 4.01255 0
M  V30 6417 H 609.649 5.7218 3.99069 0
M  V30 6418 H 605.546 4.607 4.52135 0
M  V30 6419 H 606.314 6.67102 4.74254 0
M  V30 6420 N 608.977 -1.30795 0.87923 0
M  V30 6421 C 610.205 -2.00527 0.509548 0
M  V30 6422 C 610.62 -1.65944 -0.90045 0
M  V30 6423 O 609.977 -0.893525 -1.5913 0
M  V30 6424 C 610.028 -3.55276 0.667943 0
M  V30 6425 O 609.749 -3.88625 2.02242 0
M  V30 6426 C 611.25 -4.4228 0.300494 0
M  V30 6427 H 608.47 -0.641261 0.197549 0
M  V30 6428 H 611.014 -1.66813 1.18295 0
M  V30 6429 H 609.169 -3.87377 0.0419843 0
M  V30 6430 H 609.583 -4.83334 2.03688 0
M  V30 6431 H 611.057 -5.50061 0.462242 0
M  V30 6432 H 611.534 -4.32556 -0.76106 0
M  V30 6433 H 612.14 -4.15613 0.902536 0
M  V30 6434 N 610.455 -0.639598 -1.44038 0
M  V30 6435 C 611.685 -0.154586 -2.06021 0
M  V30 6436 C 612.093 1.17951 -1.47933 0
M  V30 6437 O 611.436 1.73627 -0.59994 0
M  V30 6438 C 611.498 0.0255459 -3.59491 0
M  V30 6439 C 611.162 -1.2317 -4.40089 0
M  V30 6440 C 612.159 -2.15735 -4.73027 0
M  V30 6441 C 609.844 -1.46949 -4.80324 0
M  V30 6442 C 611.838 -3.30382 -5.45093 0
M  V30 6443 C 609.525 -2.61891 -5.52138 0
M  V30 6444 C 610.523 -3.53433 -5.84443 0
M  V30 6445 O 610.211 -4.6637 -6.54793 0
M  V30 6446 H 609.943 -0.0808543 -0.671147 0
M  V30 6447 H 612.497 -0.876541 -1.85758 0
M  V30 6448 H 610.727 0.802733 -3.78276 0
M  V30 6449 H 612.416 0.466184 -4.03214 0
M  V30 6450 H 613.182 -1.98602 -4.42473 0
M  V30 6451 H 609.061 -0.765815 -4.54595 0
M  V30 6452 H 612.605 -4.01856 -5.70226 0
M  V30 6453 H 608.502 -2.78964 -5.82108 0
M  V30 6454 H 609.27 -4.6546 -6.73267 0
M  V30 6455 N 611.933 1.52934 -0.380664 0
M  V30 6456 C 612.896 2.24809 0.446473 0
M  V30 6457 C 613.896 1.26133 0.997347 0
M  V30 6458 O 615.086 1.50297 0.880714 0
M  V30 6459 C 612.218 2.99649 1.62553 0
M  V30 6460 H 613.411 2.99343 -0.182677 0
M  V30 6461 H 610.964 1.55736 -0.132618 0
M  V30 6462 H 611.699 2.29395 2.29235 0
M  V30 6463 H 611.484 3.72066 1.23732 0
M  V30 6464 H 612.974 3.54246 2.21133 0
M  V30 6465 N 613.412 0.11024 1.57214 0
M  V30 6466 C 614.362 -0.854147 2.11396 0
M  V30 6467 C 615.346 -1.23394 1.03261 0
M  V30 6468 O 616.538 -1.20649 1.2951 0
M  V30 6469 C 613.667 -2.10752 2.70995 0
M  V30 6470 C 612.753 -1.75249 3.86198 0
M  V30 6471 N 613.144 -1.10377 4.9361 0
M  V30 6472 C 611.442 -2.04763 3.96217 0
M  V30 6473 C 612.143 -0.938199 5.74084 0
M  V30 6474 N 611.119 -1.46039 5.23616 0
M  V30 6475 H 614.921 -0.348897 2.91822 0
M  V30 6476 H 612.435 -0.0925071 1.62136 0
M  V30 6477 H 614.432 -2.80801 3.0815 0
M  V30 6478 H 613.092 -2.61829 1.9203 0
M  V30 6479 H 614.103 -0.768785 5.12162 0
M  V30 6480 H 610.78 -2.57948 3.28282 0
M  V30 6481 H 612.17 -0.429678 6.70525 0
M  V30 6482 N 614.89 -1.56749 -0.16351 0
M  V30 6483 C 615.823 -1.9213 -1.23132 0
M  V30 6484 C 616.801 -0.785047 -1.42393 0
M  V30 6485 O 617.985 -1.0391 -1.57273 0
M  V30 6486 C 615.112 -2.17901 -2.59301 0
M  V30 6487 C 614.158 -3.40576 -2.5673 0
M  V30 6488 S 614.991 -4.94689 -2.05045 0
M  V30 6489 C 616.147 -5.23564 -3.42975 0
M  V30 6490 H 616.38 -2.824 -0.929383 0
M  V30 6491 H 613.913 -1.4994 -0.368418 0
M  V30 6492 H 615.871 -2.33429 -3.3767 0
M  V30 6493 H 614.532 -1.28324 -2.86691 0
M  V30 6494 H 613.725 -3.55833 -3.5693 0
M  V30 6495 H 613.327 -3.24204 -1.86462 0
M  V30 6496 H 615.619 -5.16019 -4.3901 0
M  V30 6497 H 616.562 -6.25134 -3.32586 0
M  V30 6498 H 616.97 -4.51113 -3.39348 0
M  V30 6499 N 616.368 0.432326 -1.51554 0
M  V30 6500 C 617.645 1.19288 -1.55015 0
M  V30 6501 C 618.025 2.08701 -0.317375 0
M  V30 6502 O 617.373 2.17602 0.697243 0
M  V30 6503 C 617.583 1.99037 -2.86679 0
M  V30 6504 C 618.931 2.55907 -3.38817 0
M  V30 6505 O 619.955 2.09243 -2.88263 0
M  V30 6506 O 618.814 3.41029 -4.27038 0
M  V30 6507 H 615.908 0.543369 -0.623441 0
M  V30 6508 H 618.454 0.440988 -1.6387 0
M  V30 6509 H 617.226 1.33397 -3.6786 0
M  V30 6510 H 616.849 2.81281 -2.8101 0
M  V30 6511 N 617.846 1.41785 0.688094 0
M  V30 6512 C 619.092 1.41753 1.4503 0
M  V30 6513 C 619.425 0.0290745 1.94178 0
M  V30 6514 O 618.7 -0.944456 1.7003 0
M  V30 6515 C 618.983 2.43069 2.65686 0
M  V30 6516 C 618.836 3.91053 2.22256 0
M  V30 6517 C 620.155 2.41543 3.67893 0
M  V30 6518 H 617.274 0.516202 0.526027 0
M  V30 6519 H 619.916 1.73111 0.783105 0
M  V30 6520 H 618.066 2.1646 3.2261 0
M  V30 6521 H 619.738 4.28594 1.70602 0
M  V30 6522 H 617.981 4.05559 1.53963 0
M  V30 6523 H 618.652 4.57501 3.08863 0
M  V30 6524 H 621.128 2.65175 3.20658 0
M  V30 6525 H 620.004 3.14434 4.49914 0
M  V30 6526 H 620.265 1.43666 4.18106 0
M  V30 6527 N 619.324 -0.923095 1.27737 0
M  V30 6528 C 620.57 -1.67375 1.14514 0
M  V30 6529 C 620.903 -1.91751 -0.307424 0
M  V30 6530 O 620.178 -1.51119 -1.22447 0
M  V30 6531 C 620.461 -3.03745 1.9342 0
M  V30 6532 C 620.314 -2.86581 3.46686 0
M  V30 6533 C 621.633 -4.04144 1.74228 0
M  V30 6534 H 618.752 -0.607427 0.417374 0
M  V30 6535 H 621.394 -1.07089 1.56946 0
M  V30 6536 H 619.544 -3.55204 1.5736 0
M  V30 6537 H 621.216 -2.42203 3.92601 0
M  V30 6538 H 619.459 -2.21829 3.72793 0
M  V30 6539 H 620.13 -3.83381 3.97143 0
M  V30 6540 H 622.606 -3.61712 2.05678 0
M  V30 6541 H 621.482 -4.97543 2.31824 0
M  V30 6542 H 621.743 -4.36661 0.691373 0
M  V30 6543 N 620.802 -1.09834 -1.13024 0
M  V30 6544 C 621.765 -0.745058 -2.16752 0
M  V30 6545 C 622.765 0.227435 -1.59183 0
M  V30 6546 O 623.955 0.0050786 -1.74199 0
M  V30 6547 C 621.087 -0.102543 -3.40746 0
M  V30 6548 H 622.28 -1.66375 -2.49518 0
M  V30 6549 H 619.833 -0.898061 -1.27924 0
M  V30 6550 H 620.568 0.827177 -3.13573 0
M  V30 6551 H 620.353 -0.80235 -3.83803 0
M  V30 6552 H 621.843 0.129082 -4.174 0
M  V30 6553 N 622.28 1.30327 -0.886154 0
M  V30 6554 C 623.557 1.90922 -0.425217 0
M  V30 6555 C 623.937 1.80533 1.09413 0
M  V30 6556 O 623.285 1.2233 1.92996 0
M  V30 6557 C 623.495 3.36529 -0.924638 0
M  V30 6558 C 624.843 4.13598 -0.960305 0
M  V30 6559 O 625.867 3.45377 -0.871382 0
M  V30 6560 O 624.726 5.35482 -1.09184 0
M  V30 6561 H 621.82 0.81668 -0.130238 0
M  V30 6562 H 624.366 1.38886 -0.975132 0
M  V30 6563 H 623.138 3.38181 -1.96849 0
M  V30 6564 H 622.761 3.96021 -0.353955 0
M  V30 6565 N 623.758 0.647228 1.43697 0
M  V30 6566 C 625.006 0.157876 2.01482 0
M  V30 6567 C 625.327 -1.23039 1.51282 0
M  V30 6568 O 624.597 -1.82071 0.722982 0
M  V30 6569 H 623.177 0.0553745 0.744945 0
M  V30 6570 H 625.839 0.83755 1.75986 0
M  V30 6571 H 624.935 0.137895 3.11795 0
M  V30 6572 N 625.236 -1.5273 0.388769 0
M  V30 6573 C 626.485 -2.00757 -0.194833 0
M  V30 6574 C 626.798 -1.27951 -1.47946 0
M  V30 6575 O 628.004 -1.66686 -2.14308 0
M  V30 6576 C 626.46 -3.57695 -0.397762 0
M  V30 6577 C 626.068 -4.394 0.873583 0
M  V30 6578 C 627.812 -4.14012 -0.937759 0
M  V30 6579 C 625.719 -5.87938 0.638962 0
M  V30 6580 H 624.649 -0.750101 -0.0765845 0
M  V30 6581 H 627.3 -1.76239 0.511086 0
M  V30 6582 H 625.682 -3.7846 -1.16552 0
M  V30 6583 H 626.856 -4.30403 1.64591 0
M  V30 6584 H 625.171 -3.94301 1.33849 0
M  V30 6585 H 627.768 -5.22645 -1.12899 0
M  V30 6586 H 628.111 -3.7007 -1.90666 0
M  V30 6587 H 628.644 -3.97137 -0.229588 0
M  V30 6588 H 625.383 -6.36202 1.57885 0
M  V30 6589 H 624.903 -5.99726 -0.094443 0
M  V30 6590 H 626.582 -6.46423 0.273299 0
M  V30 6591 N 626.714 -0.118576 -1.57153 0
M  V30 6592 C 627.963 0.539339 -1.94355 0
M  V30 6593 C 628.276 1.67858 -1.00415 0
M  V30 6594 O 629.482 2.39922 -1.27081 0
M  V30 6595 C 627.938 1.01082 -3.45414 0
M  V30 6596 C 627.546 -0.0999402 -4.47889 0
M  V30 6597 C 629.29 1.64013 -3.91535 0
M  V30 6598 C 627.197 0.388212 -5.90124 0
M  V30 6599 H 626.127 0.205247 -0.725527 0
M  V30 6600 H 628.778 -0.19836 -1.82425 0
M  V30 6601 H 627.16 1.80292 -3.52577 0
M  V30 6602 H 628.334 -0.876189 -4.52393 0
M  V30 6603 H 626.649 -0.635885 -4.11516 0
M  V30 6604 H 629.246 2.01649 -4.95219 0
M  V30 6605 H 629.589 2.51836 -3.31488 0
M  V30 6606 H 630.122 0.913439 -3.87171 0
M  V30 6607 H 626.861 -0.453963 -6.53926 0
M  V30 6608 H 626.381 1.13095 -5.89041 0
M  V30 6609 H 628.06 0.849574 -6.41398 0
M  V30 6610 N 628.193 1.56834 0.155195 0
M  V30 6611 C 629.14 1.97646 1.19184 0
M  V30 6612 C 630.11 0.842788 1.4313 0
M  V30 6613 O 631.295 1.1042 1.55602 0
M  V30 6614 C 628.435 2.35527 2.52232 0
M  V30 6615 C 627.548 3.62147 2.35529 0
M  V30 6616 C 626.683 3.89167 3.61555 0
M  V30 6617 C 625.722 5.09084 3.39853 0
M  V30 6618 N 624.859 5.32156 4.5799 0
M  V30 6619 H 629.699 2.8601 0.836802 0
M  V30 6620 H 627.236 1.41507 0.401758 0
M  V30 6621 H 629.194 2.55516 3.29799 0
M  V30 6622 H 627.824 1.50253 2.85699 0
M  V30 6623 H 626.876 3.4998 1.49057 0
M  V30 6624 H 628.188 4.49871 2.15448 0
M  V30 6625 H 627.342 4.09611 4.47553 0
M  V30 6626 H 626.081 2.9985 3.84632 0
M  V30 6627 H 625.086 4.88522 2.52243 0
M  V30 6628 H 626.311 5.99947 3.18183 0
M  V30 6629 H 624.257 4.45791 4.81255 0
M  V30 6630 H 624.174 6.14133 4.40882 0
M  V30 6631 H 625.442 5.57091 5.45225 0
M  V30 6632 N 629.671 -0.424282 1.51781 0
M  V30 6633 C 630.601 -1.52305 1.7699 0
M  V30 6634 C 631.582 -1.5839 0.620209 0
M  V30 6635 O 632.767 -1.73908 0.864268 0
M  V30 6636 C 629.897 -2.90271 1.90683 0
M  V30 6637 C 628.851 -2.99043 3.06198 0
M  V30 6638 C 628.177 -4.39116 3.05092 0
M  V30 6639 C 629.477 -2.7192 4.45934 0
M  V30 6640 H 631.171 -1.31461 2.68995 0
M  V30 6641 H 628.717 -0.630985 1.29439 0
M  V30 6642 H 630.67 -3.6711 2.06901 0
M  V30 6643 H 629.394 -3.12376 0.953365 0
M  V30 6644 H 628.053 -2.24646 2.89706 0
M  V30 6645 H 627.701 -4.58207 2.07498 0
M  V30 6646 H 627.401 -4.45912 3.82669 0
M  V30 6647 H 628.925 -5.17911 3.2342 0
M  V30 6648 H 630.339 -3.38487 4.62709 0
M  V30 6649 H 628.736 -2.90111 5.25315 0
M  V30 6650 H 629.806 -1.67445 4.55072 0
M  V30 6651 N 631.149 -1.42148 -0.680565 0
M  V30 6652 C 632.379 -1.45485 -1.46689 0
M  V30 6653 C 632.787 -0.0629451 -1.89095 0
M  V30 6654 O 632.13 0.931397 -1.58337 0
M  V30 6655 C 632.192 -2.31397 -2.75129 0
M  V30 6656 C 631.856 -3.79353 -2.54834 0
M  V30 6657 C 632.853 -4.71148 -2.19808 0
M  V30 6658 C 630.538 -4.23557 -2.70008 0
M  V30 6659 C 632.532 -6.05139 -2.00215 0
M  V30 6660 C 630.219 -5.57609 -2.50031 0
M  V30 6661 C 631.217 -6.48216 -2.15187 0
M  V30 6662 O 630.905 -7.79792 -1.95397 0
M  V30 6663 H 630.637 -0.497139 -0.458071 0
M  V30 6664 H 633.191 -1.87252 -0.844139 0
M  V30 6665 H 631.421 -1.84468 -3.39865 0
M  V30 6666 H 633.11 -2.26257 -3.36991 0
M  V30 6667 H 633.876 -4.38282 -2.07686 0
M  V30 6668 H 629.755 -3.53327 -2.96109 0
M  V30 6669 H 633.299 -6.75823 -1.72941 0
M  V30 6670 H 629.196 -5.9005 -2.61748 0
M  V30 6671 H 629.964 -7.91091 -2.10042 0
M  V30 6672 N 632.627 0.916307 -1.28225 0
M  V30 6673 C 633.559 2.02303 -1.07732 0
M  V30 6674 C 634.572 1.62773 -0.0298421 0
M  V30 6675 O 635.761 1.76406 -0.272626 0
M  V30 6676 C 632.861 3.33282 -0.614504 0
M  V30 6677 C 632.034 4.01439 -1.73682 0
M  V30 6678 C 631.093 5.10698 -1.26781 0
M  V30 6679 O 630.119 5.34038 -1.96958 0
M  V30 6680 N 631.321 5.80355 -0.129624 0
M  V30 6681 H 634.086 2.20442 -2.03041 0
M  V30 6682 H 631.647 1.08744 -1.19943 0
M  V30 6683 H 633.639 4.03699 -0.284397 0
M  V30 6684 H 632.209 3.11633 0.245664 0
M  V30 6685 H 631.429 3.24604 -2.23665 0
M  V30 6686 H 632.717 4.43721 -2.48976 0
M  V30 6687 H 632.115 5.6386 0.455847 0
M  V30 6688 H 630.672 6.51647 0.141224 0
M  V30 6689 N 634.105 1.10431 1.1244 0
M  V30 6690 C 635.055 0.722378 2.16254 0
M  V30 6691 C 636.039 -0.268427 1.58645 0
M  V30 6692 O 637.231 -0.077169 1.76832 0
M  V30 6693 C 634.36 0.155763 3.42946 0
M  V30 6694 C 633.446 1.17361 4.07538 0
M  V30 6695 N 633.837 2.36429 4.47141 0
M  V30 6696 C 632.135 1.01412 4.34317 0
M  V30 6697 C 632.836 3.01259 4.97612 0
M  V30 6698 N 631.812 2.28777 4.93115 0
M  V30 6699 H 635.614 1.62876 2.4464 0
M  V30 6700 H 633.128 0.982031 1.29344 0
M  V30 6701 H 635.125 -0.135936 4.16678 0
M  V30 6702 H 633.785 -0.745339 3.1603 0
M  V30 6703 H 634.796 2.73954 4.39511 0
M  V30 6704 H 631.473 0.168574 4.1716 0
M  V30 6705 H 632.863 4.02541 5.37968 0
M  V30 6706 N 635.583 -1.29855 0.893053 0
M  V30 6707 C 636.53 -2.27909 0.364161 0
M  V30 6708 C 637.5 -1.56726 -0.550093 0
M  V30 6709 O 638.685 -1.84747 -0.47677 0
M  V30 6710 C 635.825 -3.42678 -0.408178 0
M  V30 6711 C 634.938 -4.28659 0.536212 0
M  V30 6712 C 634.073 -5.30599 -0.252521 0
M  V30 6713 C 633.112 -6.08234 0.686822 0
M  V30 6714 N 632.249 -7.02068 -0.0670902 0
M  V30 6715 H 637.089 -2.72531 1.20544 0
M  V30 6716 H 634.626 -1.34047 0.605779 0
M  V30 6717 H 636.584 -4.07986 -0.871962 0
M  V30 6718 H 635.214 -2.99103 -1.21397 0
M  V30 6719 H 634.266 -3.63584 1.1185 0
M  V30 6720 H 635.578 -4.8274 1.25552 0
M  V30 6721 H 634.732 -6.01694 -0.777801 0
M  V30 6722 H 633.471 -4.77233 -1.005 0
M  V30 6723 H 632.476 -5.3601 1.22366 0
M  V30 6724 H 633.701 -6.63689 1.43852 0
M  V30 6725 H 631.647 -6.5108 -0.801955 0
M  V30 6726 H 631.564 -7.53675 0.59243 0
M  V30 6727 H 632.832 -7.77392 -0.572851 0
M  V30 6728 N 637.061 -0.65484 -1.43351 0
M  V30 6729 C 637.971 0.0363603 -2.34572 0
M  V30 6730 C 638.987 0.810432 -1.53974 0
M  V30 6731 O 640.163 0.757308 -1.86619 0
M  V30 6732 C 637.228 0.989733 -3.32273 0
M  V30 6733 C 636.289 0.212414 -4.28774 0
M  V30 6734 C 635.522 1.12038 -5.21808 0
M  V30 6735 O 635.745 2.35967 -5.19303 0
M  V30 6736 O 634.679 0.59191 -5.98982 0
M  V30 6737 H 638.505 -0.714527 -2.95175 0
M  V30 6738 H 636.09 -0.415029 -1.4352 0
M  V30 6739 H 637.972 1.53759 -3.92347 0
M  V30 6740 H 636.647 1.72082 -2.74171 0
M  V30 6741 H 635.554 -0.379062 -3.72175 0
M  V30 6742 H 636.887 -0.479138 -4.89862 0
M  V30 6743 N 638.539 1.52521 -0.396863 0
M  V30 6744 C 639.816 1.94112 0.240842 0
M  V30 6745 C 640.196 1.33288 1.637 0
M  V30 6746 O 639.544 0.503901 2.22875 0
M  V30 6747 C 639.754 3.48033 0.259567 0
M  V30 6748 C 641.102 4.21822 0.484866 0
M  V30 6749 O 642.126 3.54579 0.339453 0
M  V30 6750 O 640.985 5.41042 0.770412 0
M  V30 6751 H 638.079 0.812973 0.151671 0
M  V30 6752 H 640.625 1.63572 -0.451918 0
M  V30 6753 H 639.397 3.84655 -0.718078 0
M  V30 6754 H 639.02 3.84899 0.996937 0
M  V30 6755 N 640.017 0.126909 1.57088 0
M  V30 6756 C 641.266 -0.529024 1.94639 0
M  V30 6757 C 641.579 -1.67323 1.01304 0
M  V30 6758 O 642.785 -2.39245 1.28352 0
M  V30 6759 C 641.241 -0.992483 3.45945 0
M  V30 6760 C 640.849 0.123691 4.47829 0
M  V30 6761 C 642.593 -1.61934 3.924 0
M  V30 6762 C 640.5 -0.356911 5.90322 0
M  V30 6763 H 639.43 -0.201397 0.726605 0
M  V30 6764 H 642.081 0.208032 1.82317 0
M  V30 6765 H 640.463 -1.7842 3.53528 0
M  V30 6766 H 641.637 0.900168 4.51922 0
M  V30 6767 H 639.952 0.657699 4.11173 0
M  V30 6768 H 642.549 -1.9902 4.96281 0
M  V30 6769 H 642.892 -2.50075 3.32819 0
M  V30 6770 H 643.425 -0.892894 3.8765 0
M  V30 6771 H 640.164 0.488636 6.53676 0
M  V30 6772 H 639.684 -1.0997 5.89633 0
M  V30 6773 H 641.363 -0.815547 6.41839 0
M  V30 6774 N 641.495 -1.56914 -0.146875 0
M  V30 6775 C 642.911 -1.51582 -0.499518 0
M  V30 6776 C 643.111 -0.83535 -1.83369 0
M  V30 6777 O 642.167 -0.405932 -2.49216 0
M  V30 6778 C 643.48 -2.96349 -0.509711 0
M  V30 6779 C 645.028 -3.07288 -0.595217 0
M  V30 6780 C 645.503 -4.53562 -0.636071 0
M  V30 6781 N 646.994 -4.57906 -0.69829 0
M  V30 6782 C 647.729 -5.68462 -0.750886 0
M  V30 6783 N 647.225 -6.88588 -0.76282 0
M  V30 6784 N 649.018 -5.56496 -0.791777 0
M  V30 6785 H 641.169 -1.99547 0.727656 0
M  V30 6786 H 643.432 -0.910113 0.265327 0
M  V30 6787 H 643.138 -3.4939 0.402409 0
M  V30 6788 H 643.012 -3.52307 -1.34758 0
M  V30 6789 H 645.399 -2.54266 -1.49776 0
M  V30 6790 H 645.48 -2.54373 0.2698 0
M  V30 6791 H 645.124 -5.07222 0.262313 0
M  V30 6792 H 645.054 -5.04259 -1.51758 0
M  V30 6793 H 647.545 -3.71429 -0.696362 0
M  V30 6794 H 647.858 -7.68598 -0.804804 0
M  V30 6795 H 646.203 -6.91148 -0.730694 0
M  V30 6796 H 649.394 -4.61562 -0.779624 0
M  V30 6797 H 649.567 -6.42671 -0.829301 0
M  V30 6798 N 642.974 0.416227 -1.52004 0
M  V30 6799 C 644.222 1.16153 -1.65387 0
M  V30 6800 C 644.543 1.91208 -0.382669 0
M  V30 6801 O 643.813 1.86413 0.602231 0
M  V30 6802 H 642.393 0.431765 -0.60958 0
M  V30 6803 H 645.055 0.475151 -1.89019 0
M  V30 6804 H 644.151 1.87952 -2.4916 0
M  V30 6805 N 644.452 1.42507 0.673017 0
M  V30 6806 C 645.382 1.48916 1.79851 0
M  V30 6807 C 646.363 0.345566 1.66553 0
M  V30 6808 O 647.548 0.560116 1.85947 0
M  V30 6809 C 644.678 1.39258 3.18158 0
M  V30 6810 C 643.632 2.51662 3.46194 0
M  V30 6811 C 642.958 2.27062 4.84094 0
M  V30 6812 C 644.258 3.93968 3.42909 0
M  V30 6813 H 645.952 2.43114 1.74745 0
M  V30 6814 H 643.498 1.17013 0.839288 0
M  V30 6815 H 645.451 1.42349 3.96629 0
M  V30 6816 H 644.175 0.415542 3.23946 0
M  V30 6817 H 642.834 2.47891 2.70084 0
M  V30 6818 H 642.482 1.27648 4.86534 0
M  V30 6819 H 642.182 3.02398 5.03815 0
M  V30 6820 H 643.706 2.31905 5.64847 0
M  V30 6821 H 645.12 3.99332 4.11347 0
M  V30 6822 H 643.517 4.6917 3.74165 0
M  V30 6823 H 644.587 4.20512 2.41449 0
M  V30 6824 N 645.93 -0.909495 1.28709 0
M  V30 6825 C 646.877 -2.01245 1.13 0
M  V30 6826 C 647.847 -1.6608 0.0259684 0
M  V30 6827 O 649.032 -1.89835 0.191687 0
M  V30 6828 C 646.172 -3.35644 0.802315 0
M  V30 6829 C 645.285 -3.83653 1.98582 0
M  V30 6830 C 644.42 -5.06582 1.59837 0
M  V30 6831 C 643.459 -5.46934 2.74827 0
M  V30 6832 N 642.596 -6.61053 2.36546 0
M  V30 6833 H 647.436 -2.14013 2.0737 0
M  V30 6834 H 644.973 -1.0482 1.03205 0
M  V30 6835 H 646.931 -4.12963 0.593057 0
M  V30 6836 H 645.561 -3.22631 -0.104457 0
M  V30 6837 H 644.613 -3.02454 2.30708 0
M  V30 6838 H 645.925 -4.09515 2.84779 0
M  V30 6839 H 645.079 -5.91457 1.35143 0
M  V30 6840 H 643.818 -4.82537 0.707753 0
M  V30 6841 H 642.823 -4.60599 3.00215 0
M  V30 6842 H 644.048 -5.72965 3.64538 0
M  V30 6843 H 641.994 -6.3863 1.49959 0
M  V30 6844 H 641.911 -6.86662 3.16277 0
M  V30 6845 H 643.179 -7.49221 2.15146 0
M  V30 6846 N 647.408 -1.11026 -1.11852 0
M  V30 6847 C 648.655 -0.85646 -1.83497 0
M  V30 6848 C 648.983 0.617938 -1.84423 0
M  V30 6849 O 648.238 1.47194 -1.28966 0
M  V30 6850 C 648.537 -1.35777 -3.30604 0
M  V30 6851 C 648.203 -2.84465 -3.49843 0
M  V30 6852 C 646.865 -3.25068 -3.54802 0
M  V30 6853 C 649.217 -3.80251 -3.56453 0
M  V30 6854 C 646.545 -4.60194 -3.63921 0
M  V30 6855 C 648.897 -5.15188 -3.67102 0
M  V30 6856 C 647.561 -5.55356 -3.70319 0
M  V30 6857 H 646.831 -0.313401 -0.671462 0
M  V30 6858 H 649.478 -1.38792 -1.31943 0
M  V30 6859 H 647.783 -0.746455 -3.84624 0
M  V30 6860 H 649.48 -1.13779 -3.8452 0
M  V30 6861 H 646.07 -2.52054 -3.46651 0
M  V30 6862 H 650.254 -3.49986 -3.51886 0
M  V30 6863 H 645.51 -4.90728 -3.64686 0
M  V30 6864 H 649.684 -5.89248 -3.71159 0
M  V30 6865 H 647.311 -6.60054 -3.77138 0
M  V30 6866 N 648.886 1.2938 -0.899927 0
M  V30 6867 C 650.135 1.9483 -0.521937 0
M  V30 6868 C 650.448 1.71725 0.936473 0
M  V30 6869 O 651.654 2.31282 1.42199 0
M  V30 6870 C 650.11 3.48911 -0.88255 0
M  V30 6871 C 649.718 3.80815 -2.35974 0
M  V30 6872 C 651.462 4.20595 -0.57448 0
M  V30 6873 C 649.369 5.28142 -2.66121 0
M  V30 6874 H 648.299 0.729285 -0.191468 0
M  V30 6875 H 650.95 1.47103 -1.09695 0
M  V30 6876 H 649.332 3.95293 -0.236459 0
M  V30 6877 H 650.506 3.45291 -3.05141 0
M  V30 6878 H 648.821 3.22271 -2.63686 0
M  V30 6879 H 651.418 5.29031 -0.776556 0
M  V30 6880 H 651.761 4.13442 0.487005 0
M  V30 6881 H 652.294 3.79945 -1.17842 0
M  V30 6882 H 649.033 5.4036 -3.71068 0
M  V30 6883 H 648.553 5.64913 -2.01578 0
M  V30 6884 H 650.232 5.95738 -2.52399 0
M  V30 6885 N 650.364 0.662433 1.43002 0
M  V30 6886 C 651.594 0.187343 2.05749 0
M  V30 6887 C 652.002 -1.15582 1.49791 0
M  V30 6888 O 651.345 -1.72651 0.627487 0
M  V30 6889 C 651.407 0.0316493 3.59486 0
M  V30 6890 C 651.071 1.30156 4.38073 0
M  V30 6891 C 652.068 2.23234 4.69535 0
M  V30 6892 C 649.753 1.54572 4.77926 0
M  V30 6893 C 651.747 3.39012 5.39768 0
M  V30 6894 C 649.434 2.70641 5.47902 0
M  V30 6895 C 650.432 3.62687 5.78746 0
M  V30 6896 O 650.12 4.76728 6.47291 0
M  V30 6897 H 649.852 0.0915214 0.669776 0
M  V30 6898 H 652.406 0.905982 1.8434 0
M  V30 6899 H 650.636 -0.742451 3.79506 0
M  V30 6900 H 652.325 -0.401977 4.03905 0
M  V30 6901 H 653.091 2.05616 4.39257 0
M  V30 6902 H 648.97 0.83804 4.53319 0
M  V30 6903 H 652.514 4.10877 5.63761 0
M  V30 6904 H 648.411 2.88189 5.77596 0
M  V30 6905 H 649.179 4.76113 6.65777 0
M  V30 6906 N 651.842 -1.52309 0.404946 0
M  V30 6907 C 652.752 -2.30634 -0.429555 0
M  V30 6908 C 653.768 -1.38187 -1.05737 0
M  V30 6909 O 654.944 -1.71261 -1.05979 0
M  V30 6910 C 652.009 -3.10947 -1.53339 0
M  V30 6911 C 651.07 -4.19126 -0.929065 0
M  V30 6912 C 650.303 -4.95601 -1.9803 0
M  V30 6913 O 650.526 -4.72331 -3.1978 0
M  V30 6914 O 649.46 -5.80551 -1.58886 0
M  V30 6915 H 653.286 -3.0298 0.208963 0
M  V30 6916 H 650.871 -1.4845 0.168255 0
M  V30 6917 H 652.753 -3.60974 -2.1743 0
M  V30 6918 H 651.428 -2.41399 -2.15658 0
M  V30 6919 H 650.335 -3.73257 -0.250982 0
M  V30 6920 H 651.668 -4.90955 -0.349855 0
M  V30 6921 N 653.32 -0.135238 -1.57019 0
M  V30 6922 C 654.731 0.387521 -1.82634 0
M  V30 6923 C 655.082 1.65528 -1.05332 0
M  V30 6924 O 654.207 2.14381 -0.294926 0
M  V30 6925 C 654.802 0.709852 -3.3128 0
M  V30 6926 C 653.361 1.17718 -3.57518 0
M  V30 6927 C 652.508 0.194183 -2.76619 0
M  V30 6928 H 655.459 -0.360126 -1.5456 0
M  V30 6929 H 655.48 1.5657 -3.46794 0
M  V30 6930 H 654.992 -0.213024 -3.87515 0
M  V30 6931 H 653.093 2.1164 -3.06658 0
M  V30 6932 H 653.206 1.11128 -4.66034 0
M  V30 6933 H 651.57 0.684478 -2.4533 0
M  V30 6934 H 652.353 -0.722076 -3.3562 0
M  V30 6935 N 654.798 1.5699 0.138552 0
M  V30 6936 C 655.745 1.98899 1.17081 0
M  V30 6937 C 656.715 0.857922 1.42228 0
M  V30 6938 O 657.9 1.12065 1.54422 0
M  V30 6939 C 655.04 2.38189 2.4972 0
M  V30 6940 C 654.153 3.64624 2.31674 0
M  V30 6941 C 653.288 3.9298 3.57407 0
M  V30 6942 C 652.327 5.1266 3.34435 0
M  V30 6943 N 651.464 5.36983 4.5232 0
M  V30 6944 H 656.304 2.86881 0.80642 0
M  V30 6945 H 653.841 1.41925 0.386727 0
M  V30 6946 H 655.799 2.59 3.2707 0
M  V30 6947 H 654.429 1.53275 2.84089 0
M  V30 6948 H 653.481 3.51542 1.45337 0
M  V30 6949 H 654.793 4.52131 2.10664 0
M  V30 6950 H 653.947 4.14335 4.43183 0
M  V30 6951 H 652.686 3.03912 3.8143 0
M  V30 6952 H 651.691 4.9117 2.47048 0
M  V30 6953 H 652.916 6.03288 3.11802 0
M  V30 6954 H 650.862 4.50871 4.76499 0
M  V30 6955 H 650.779 6.18775 4.34343 0
M  V30 6956 H 652.047 5.62842 5.39285 0
M  V30 6957 N 656.276 -0.40816 1.52223 0
M  V30 6958 C 657.208 -1.51642 1.71864 0
M  V30 6959 C 658.221 -1.51378 0.599056 0
M  V30 6960 O 659.41 -1.55626 0.874239 0
M  V30 6961 C 656.51 -2.90534 1.74481 0
M  V30 6962 C 655.683 -3.14979 3.03491 0
M  V30 6963 C 654.742 -4.33749 2.97907 0
M  V30 6964 O 653.768 -4.30982 3.71811 0
M  V30 6965 N 654.97 -5.38912 2.15764 0
M  V30 6966 H 657.735 -1.35188 2.67478 0
M  V30 6967 H 655.296 -0.597468 1.50472 0
M  V30 6968 H 657.288 -3.68056 1.68275 0
M  V30 6969 H 655.858 -3.00441 0.863363 0
M  V30 6970 H 655.078 -2.25492 3.23337 0
M  V30 6971 H 656.366 -3.28156 3.88833 0
M  V30 6972 H 655.764 -5.44008 1.55152 0
M  V30 6973 H 654.321 -6.15174 2.15415 0
M  V30 6974 N 657.755 -1.42862 -0.66545 0
M  V30 6975 C 658.685 -1.49867 -1.79059 0
M  V30 6976 C 659.666 -0.354394 -1.66367 0
M  V30 6977 O 660.851 -0.569969 -1.85647 0
M  V30 6978 C 657.981 -1.40943 -3.17415 0
M  V30 6979 C 656.935 -2.53495 -3.44854 0
M  V30 6980 C 656.261 -2.29626 -4.82883 0
M  V30 6981 C 657.561 -3.95781 -3.40815 0
M  V30 6982 H 659.255 -2.44037 -1.73453 0
M  V30 6983 H 656.801 -1.17456 -0.833071 0
M  V30 6984 H 658.754 -1.4445 -3.95869 0
M  V30 6985 H 657.478 -0.432716 -3.23721 0
M  V30 6986 H 656.137 -2.4932 -2.68766 0
M  V30 6987 H 655.785 -1.30226 -4.8585 0
M  V30 6988 H 655.485 -3.05065 -5.02204 0
M  V30 6989 H 657.009 -2.34897 -5.63609 0
M  V30 6990 H 658.423 -4.01508 -4.09224 0
M  V30 6991 H 656.82 -4.71148 -3.71672 0
M  V30 6992 H 657.89 -4.21786 -2.39216 0
M  V30 6993 N 659.233 0.902656 -1.29189 0
M  V30 6994 C 660.649 1.18296 -1.07137 0
M  V30 6995 C 660.849 2.00701 0.179223 0
M  V30 6996 O 659.905 2.3675 0.877812 0
M  V30 6997 C 661.218 1.90677 -2.32514 0
M  V30 6998 C 662.766 2.03515 -2.37804 0
M  V30 6999 C 663.241 2.79307 -3.62976 0
M  V30 7000 N 664.732 2.86862 -3.63681 0
M  V30 7001 C 665.467 3.46035 -4.57217 0
M  V30 7002 N 664.963 4.06399 -5.61081 0
M  V30 7003 N 666.756 3.43681 -4.44792 0
M  V30 7004 H 658.907 0.352765 -2.0945 0
M  V30 7005 H 661.17 0.21876 -0.922414 0
M  V30 7006 H 660.876 1.3756 -3.23682 0
M  V30 7007 H 660.75 2.91169 -2.39793 0
M  V30 7008 H 663.137 2.55809 -1.47125 0
M  V30 7009 H 663.218 1.02166 -2.34512 0
M  V30 7010 H 662.862 2.2769 -4.54004 0
M  V30 7011 H 662.792 3.80995 -3.63525 0
M  V30 7012 H 665.283 2.43987 -2.88581 0
M  V30 7013 H 665.596 4.49564 -6.2858 0
M  V30 7014 H 663.941 4.0487 -5.64894 0
M  V30 7015 H 667.132 2.9574 -3.62843 0
M  V30 7016 H 667.305 3.89503 -5.17872 0
M  V30 7017 N 660.711 1.11618 1.11262 0
M  V30 7018 C 661.958 0.86618 1.8304 0
M  V30 7019 C 662.286 -0.608149 1.84748 0
M  V30 7020 O 661.541 -1.46508 1.29745 0
M  V30 7021 C 661.84 1.37529 3.2988 0
M  V30 7022 C 661.506 2.86317 3.4833 0
M  V30 7023 C 660.168 3.26945 3.53073 0
M  V30 7024 C 662.52 3.82136 3.54431 0
M  V30 7025 C 659.848 4.62117 3.61475 0
M  V30 7026 C 662.2 5.17128 3.64365 0
M  V30 7027 C 660.864 5.57312 3.67369 0
M  V30 7028 H 660.134 0.316958 0.66979 0
M  V30 7029 H 662.781 1.3949 1.31205 0
M  V30 7030 H 661.086 0.766842 3.84222 0
M  V30 7031 H 662.783 1.15817 3.83911 0
M  V30 7032 H 659.373 2.53889 3.45309 0
M  V30 7033 H 663.557 3.51847 3.50025 0
M  V30 7034 H 658.813 4.92655 3.62079 0
M  V30 7035 H 662.987 5.91208 3.68029 0
M  V30 7036 H 660.614 6.62045 3.73632 0
M  V30 7037 N 662.189 -1.289 0.906776 0
M  V30 7038 C 663.436 -1.95269 0.536326 0
M  V30 7039 C 663.764 -1.71435 -0.918711 0
M  V30 7040 O 663.019 -1.02431 -1.66752 0
M  V30 7041 C 663.318 -3.48704 0.783617 0
M  V30 7042 C 662.984 -3.92626 2.21711 0
M  V30 7043 C 661.646 -4.04329 2.60906 0
M  V30 7044 C 663.998 -4.15218 3.15029 0
M  V30 7045 C 661.326 -4.35998 3.92584 0
M  V30 7046 C 663.678 -4.48365 4.46264 0
M  V30 7047 C 662.342 -4.58278 4.85322 0
M  V30 7048 H 661.612 -0.714538 0.196256 0
M  V30 7049 H 664.259 -1.53366 1.14678 0
M  V30 7050 H 662.564 -3.91696 0.0903048 0
M  V30 7051 H 664.261 -3.98162 0.476267 0
M  V30 7052 H 660.851 -3.84038 1.90296 0
M  V30 7053 H 665.035 -4.05636 2.8596 0
M  V30 7054 H 660.291 -4.41878 4.22557 0
M  V30 7055 H 664.465 -4.64795 5.18593 0
M  V30 7056 H 662.092 -4.82573 5.87391 0
M  V30 7057 N 663.667 -0.670007 -1.42649 0
M  V30 7058 C 664.895 -0.19854 -2.05945 0
M  V30 7059 C 665.31 1.14243 -1.50313 0
M  V30 7060 O 664.667 1.70872 -0.641027 0
M  V30 7061 C 664.718 -0.11966 -3.61302 0
M  V30 7062 O 664.439 -1.40764 -4.1487 0
M  V30 7063 C 665.94 0.375878 -4.41704 0
M  V30 7064 H 663.16 -0.0976894 -0.663851 0
M  V30 7065 H 665.704 -0.915392 -1.82868 0
M  V30 7066 H 663.859 0.547851 -3.83507 0
M  V30 7067 H 664.273 -1.27784 -5.08696 0
M  V30 7068 H 665.747 0.379988 -5.50691 0
M  V30 7069 H 666.224 1.41028 -4.15942 0
M  V30 7070 H 666.83 -0.259727 -4.24506 0
M  V30 7071 N 665.145 1.52092 -0.413018 0
M  V30 7072 C 666.108 2.25706 0.398687 0
M  V30 7073 C 667.108 1.28221 0.970368 0
M  V30 7074 O 668.298 1.52131 0.848635 0
M  V30 7075 C 665.43 3.03029 1.5616 0
M  V30 7076 H 666.623 2.98888 -0.246131 0
M  V30 7077 H 664.176 1.5542 -0.165622 0
M  V30 7078 H 664.911 2.34205 2.24317 0
M  V30 7079 H 664.696 3.74606 1.15812 0
M  V30 7080 H 666.186 3.58857 2.13569 0
M  V30 7081 N 666.623 0.143563 1.56945 0
M  V30 7082 C 668.039 -0.212877 1.58174 0
M  V30 7083 C 668.239 -1.64926 1.15766 0
M  V30 7084 O 667.295 -2.37535 0.856361 0
M  V30 7085 C 668.608 0.0427573 3.0067 0
M  V30 7086 C 670.156 -0.0212221 3.12993 0
M  V30 7087 C 670.631 0.207036 4.57532 0
M  V30 7088 N 672.122 0.153845 4.62944 0
M  V30 7089 C 672.857 0.305018 5.72588 0
M  V30 7090 N 672.353 0.513722 6.90893 0
M  V30 7091 N 674.146 0.242862 5.61575 0
M  V30 7092 H 666.297 1.08148 1.82805 0
M  V30 7093 H 668.56 0.427831 0.84597 0
M  V30 7094 H 668.266 1.03672 3.36073 0
M  V30 7095 H 668.14 -0.678195 3.71053 0
M  V30 7096 H 670.527 -1.00574 2.77433 0
M  V30 7097 H 670.608 0.732004 2.45103 0
M  V30 7098 H 670.252 1.18863 4.93795 0
M  V30 7099 H 670.182 -0.566473 5.23544 0
M  V30 7100 H 672.673 -0.00294866 3.779 0
M  V30 7101 H 672.986 0.619273 7.70315 0
M  V30 7102 H 671.331 0.550001 6.9282 0
M  V30 7103 H 674.522 0.0806015 4.68031 0
M  V30 7104 H 674.695 0.364112 6.46976 0
M  V30 7105 N 668.101 -1.57061 -0.130224 0
M  V30 7106 C 669.348 -1.84257 -0.839972 0
M  V30 7107 C 669.676 -0.726986 -1.80403 0
M  V30 7108 O 668.931 0.282632 -1.93648 0
M  V30 7109 C 669.23 -3.17878 -1.63365 0
M  V30 7110 C 668.896 -4.43475 -0.814891 0
M  V30 7111 C 667.558 -4.77581 -0.589066 0
M  V30 7112 C 669.91 -5.20631 -0.243437 0
M  V30 7113 C 667.238 -5.86292 0.218648 0
M  V30 7114 C 669.59 -6.30192 0.551408 0
M  V30 7115 C 668.254 -6.62837 0.787653 0
M  V30 7116 H 667.524 -0.674245 -0.307367 0
M  V30 7117 H 670.171 -1.91224 -0.102832 0
M  V30 7118 H 668.476 -3.06437 -2.44138 0
M  V30 7119 H 670.173 -3.3614 -2.18658 0
M  V30 7120 H 666.763 -4.16747 -1.00098 0
M  V30 7121 H 670.947 -4.94644 -0.405145 0
M  V30 7122 H 666.203 -6.10017 0.411016 0
M  V30 7123 H 670.377 -6.89165 1.00126 0
M  V30 7124 H 668.004 -7.46908 1.41537 0
M  V30 7125 N 669.579 0.400081 -1.52437 0
M  V30 7126 C 670.856 1.15973 -1.57511 0
M  V30 7127 C 671.236 2.0798 -0.361572 0
M  V30 7128 O 670.584 2.19032 0.650929 0
M  V30 7129 C 670.794 1.92912 -2.90837 0
M  V30 7130 C 672.142 2.48662 -3.44169 0
M  V30 7131 O 673.166 2.03081 -2.92637 0
M  V30 7132 O 672.025 3.31894 -4.34176 0
M  V30 7133 H 669.119 0.530023 -0.634827 0
M  V30 7134 H 671.665 0.40613 -1.64769 0
M  V30 7135 H 670.437 1.25564 -3.70607 0
M  V30 7136 H 670.06 2.75257 -2.86913 0
M  V30 7137 N 671.057 1.43213 0.657864 0
M  V30 7138 C 672.287 1.478 1.44356 0
M  V30 7139 C 672.695 0.0930206 1.88971 0
M  V30 7140 O 672.038 -0.906089 1.59799 0
M  V30 7141 C 672.1 2.35745 2.71412 0
M  V30 7142 C 671.764 3.83359 2.48767 0
M  V30 7143 C 672.761 4.74585 2.12285 0
M  V30 7144 C 670.446 4.27799 2.63235 0
M  V30 7145 C 672.44 6.08247 1.90562 0
M  V30 7146 C 670.127 5.61516 2.41128 0
M  V30 7147 C 671.125 6.51557 2.04847 0
M  V30 7148 O 670.813 7.82802 1.82967 0
M  V30 7149 H 670.545 0.504363 0.450104 0
M  V30 7150 H 673.099 1.88572 0.814241 0
M  V30 7151 H 671.329 1.89852 3.36887 0
M  V30 7152 H 673.018 2.31589 3.33348 0
M  V30 7153 H 673.784 4.41531 2.00687 0
M  V30 7154 H 669.663 3.57993 2.90451 0
M  V30 7155 H 673.207 6.78489 1.62168 0
M  V30 7156 H 669.104 5.94139 2.52327 0
M  V30 7157 H 669.872 7.94332 1.97429 0
M  V30 7158 N 672.536 -0.895792 1.29666 0
M  V30 7159 C 673.785 -1.64131 1.17234 0
M  V30 7160 C 674.098 -1.93665 -0.274416 0
M  V30 7161 O 675.304 -2.66472 -0.520105 0
M  V30 7162 C 673.76 -2.95764 2.05065 0
M  V30 7163 C 673.368 -2.7381 3.54587 0
M  V30 7164 C 675.112 -3.737 2.01367 0
M  V30 7165 C 673.019 -4.01194 4.34508 0
M  V30 7166 H 671.949 -0.615742 0.435175 0
M  V30 7167 H 674.6 -0.992626 1.54335 0
M  V30 7168 H 672.982 -3.61867 1.60837 0
M  V30 7169 H 674.156 -2.16277 4.06892 0
M  V30 7170 H 672.471 -2.09265 3.59996 0
M  V30 7171 H 675.068 -4.68152 2.58337 0
M  V30 7172 H 675.411 -4.04245 0.994575 0
M  V30 7173 H 675.944 -3.14444 2.43659 0
M  V30 7174 H 672.683 -3.75813 5.37071 0
M  V30 7175 H 672.203 -4.58272 3.86971 0
M  V30 7176 H 673.882 -4.69307 4.45376 0
M  V30 7177 O 674.053 -1.24272 -1.03144 0
M  V30 7178 H 674.744 -1.0191 -1.64724 0
M  V30 END ATOM
M  V30 BEGIN BOND
M  V30 END BOND
M  V30 END CTAB
M  END
$$$$
