drugbank_target|P46059 Solute carrier family 15 member 1 (DB00415; DB00417; DB00493; DB00713; DB01053; DB01212; DB03793; DB09213)
 OpenBabel12092119453D

  0  0  0     0  0            999 V3000
M  V30 BEGIN CTAB
M  V30 COUNTS 11155 11290 0 0 0
M  V30 BEGIN ATOM
M  V30 1 H -0.908 1.98254 -0.117106 0
M  V30 2 N 0 1.576 0 0
M  V30 3 C 0.933 2.03868 1.02534 0
M  V30 4 C 1.911 0.928543 1.3348 0
M  V30 5 O 3.095 1.19667 1.45644 0
M  V30 6 C 0.222 2.43627 2.35294 0
M  V30 7 C -0.732 3.65373 2.2001 0
M  V30 8 S 0.101 5.13292 1.52614 0
M  V30 9 C 1.257 5.56322 2.86805 0
M  V30 10 H 1.49 2.90518 0.631377 0
M  V30 11 H -0.977 1.52953 0.210867 0
M  V30 12 H 0.981 2.67203 3.11629 0
M  V30 13 H -0.358 1.57376 2.7183 0
M  V30 14 H -1.165 3.90944 3.18086 0
M  V30 15 H -1.563 3.418 1.51819 0
M  V30 16 H 0.729 5.58782 3.83104 0
M  V30 17 H 1.672 6.56266 2.65933 0
M  V30 18 H 2.08 4.83886 2.90714 0
M  V30 19 N 1.4781 -0.272755 1.55222 0
M  V30 20 C 2.7261 -1.00234 1.75492 0
M  V30 21 C 3.0471 -1.8681 0.5592 0
M  V30 22 O 2.3171 -1.91215 -0.425882 0
M  V30 23 H 0.8971 -0.373076 0.647166 0
M  V30 24 H 3.5591 -0.296926 1.92625 0
M  V30 25 H 2.6551 -1.63913 2.65592 0
M  V30 26 N 2.9562 -1.48159 -0.537278 0
M  V30 27 C 3.8892 -1.567 -1.65893 0
M  V30 28 C 4.8672 -0.41787 -1.57139 0
M  V30 29 O 6.0512 -0.628461 -1.77715 0
M  V30 30 C 3.1782 -1.48818 -3.04255 0
M  V30 31 C 2.2242 -2.68482 -3.31391 0
M  V30 32 S 3.0572 -4.30516 -3.1846 0
M  V30 33 C 4.2132 -4.2522 -4.59281 0
M  V30 34 H 4.4462 -2.5159 -1.58397 0
M  V30 35 H 1.9792 -1.36602 -0.719672 0
M  V30 36 H 3.9372 -1.44958 -3.84054 0
M  V30 37 H 2.5982 -0.552777 -3.09198 0
M  V30 38 H 1.7912 -2.59085 -4.32309 0
M  V30 39 H 1.3932 -2.69567 -2.59248 0
M  V30 40 H 3.6852 -3.94703 -5.5065 0
M  V30 41 H 4.6282 -5.26292 -4.73732 0
M  V30 42 H 5.0362 -3.55791 -4.38261 0
M  V30 43 N 4.4343 0.785586 -1.36625 0
M  V30 44 C 5.6593 1.57963 -1.34397 0
M  V30 45 C 6.0843 1.87964 0.071526 0
M  V30 46 O 5.4423 1.48182 1.0446 0
M  V30 47 C 5.4903 2.87511 -2.17646 0
M  V30 48 O 4.5943 3.81281 -1.57158 0
M  V30 49 H 3.9353 0.479014 -0.459828 0
M  V30 50 H 6.4653 0.973411 -1.79961 0
M  V30 51 H 6.4753 3.36745 -2.30362 0
M  V30 52 H 5.1503 2.65002 -3.20541 0
M  V30 53 H 3.7273 3.39885 -1.53403 0
M  V30 54 N 5.9124 1.20967 1.01018 0
M  V30 55 C 6.8594 0.964281 2.09691 0
M  V30 56 C 7.8294 -0.107853 1.65749 0
M  V30 57 O 9.0144 0.0381987 1.90762 0
M  V30 58 C 6.1544 0.52943 3.41015 0
M  V30 59 C 5.2674 1.67043 3.98398 0
M  V30 60 C 4.4024 1.18525 5.17808 0
M  V30 61 C 3.4414 2.29892 5.67288 0
M  V30 62 N 2.5784 1.82546 6.77954 0
M  V30 63 H 7.4184 1.89463 2.30017 0
M  V30 64 H 4.9554 0.944289 1.1279 0
M  V30 65 H 6.9134 0.258588 4.16398 0
M  V30 66 H 5.5434 -0.363919 3.20742 0
M  V30 67 H 4.5954 2.05603 3.20049 0
M  V30 68 H 5.9074 2.50877 4.31117 0
M  V30 69 H 5.0614 0.870762 6.00419 0
M  V30 70 H 3.8004 0.316887 4.86669 0
M  V30 71 H 2.8054 2.6215 4.83278 0
M  V30 72 H 4.0304 3.17216 6.00459 0
M  V30 73 H 1.9764 0.980454 6.48632 0
M  V30 74 H 1.8934 2.59956 7.09901 0
M  V30 75 H 3.1614 1.54115 7.64113 0
M  V30 76 N 7.3905 -1.2043 1.01659 0
M  V30 77 C 8.6155 -1.94318 0.724942 0
M  V30 78 C 9.0405 -1.74266 -0.708034 0
M  V30 79 O 8.3985 -1.03694 -1.48719 0
M  V30 80 C 8.4465 -3.44486 1.06591 0
M  V30 81 O 7.5505 -4.12017 0.177599 0
M  V30 82 H 6.8915 -0.60708 0.26898 0
M  V30 83 H 9.4215 -1.52861 1.35995 0
M  V30 84 H 9.4315 -3.95106 1.01762 0
M  V30 85 H 8.1065 -3.58404 2.10997 0
M  V30 86 H 6.6835 -3.71821 0.283421 0
M  V30 87 N 8.8686 -0.792821 -1.36206 0
M  V30 88 C 9.8186 -0.166598 -2.27391 0
M  V30 89 C 10.8026 0.651479 -1.47121 0
M  V30 90 O 11.9946 0.510994 -1.69463 0
M  V30 91 C 9.1236 0.695033 -3.36191 0
M  V30 92 C 8.2096 -0.132019 -4.23894 0
M  V30 93 N 8.6006 -1.18822 -4.91645 0
M  V30 94 C 6.8986 0.0885952 -4.45912 0
M  V30 95 C 7.5996 -1.69198 -5.56549 0
M  V30 96 N 6.5756 -1.00065 -5.34311 0
M  V30 97 H 10.3776 -0.974947 -2.77258 0
M  V30 98 H 7.8916 -0.632616 -1.49572 0
M  V30 99 H 9.8886 1.1596 -4.00448 0
M  V30 100 H 8.5486 1.50189 -2.87877 0
M  V30 101 H 9.5596 -1.57069 -4.93507 0
M  V30 102 H 6.2366 0.865688 -4.08426 0
M  V30 103 H 7.6266 -2.57395 -6.20643 0
M  V30 104 N 10.3467 1.47872 -0.545128 0
M  V30 105 C 11.5717 2.07391 -0.0190611 0
M  V30 106 C 11.9967 1.39688 1.25971 0
M  V30 107 O 11.3547 0.467816 1.7516 0
M  V30 108 C 11.4027 3.60188 0.172335 0
M  V30 109 O 10.5067 3.9339 1.23766 0
M  V30 110 H 9.8477 0.662411 -0.0459059 0
M  V30 111 H 12.3777 1.90066 -0.757365 0
M  V30 112 H 12.3877 4.06129 0.390305 0
M  V30 113 H 11.0627 4.08865 -0.761725 0
M  V30 114 H 9.6397 3.5921 1.00114 0
M  V30 115 N 11.8248 0.280983 1.55075 0
M  V30 116 C 13.0718 -0.334115 1.99725 0
M  V30 117 C 13.3998 -1.5542 1.1694 0
M  V30 118 O 12.6548 -1.94361 0.228531 0
M  V30 119 C 12.9538 -0.754656 3.49342 0
M  V30 120 C 12.6198 0.361445 4.49449 0
M  V30 121 C 11.2818 0.667893 4.76542 0
M  V30 122 C 13.6338 1.11322 5.09173 0
M  V30 123 C 10.9618 1.7296 5.60626 0
M  V30 124 C 13.3138 2.1647 5.9441 0
M  V30 125 C 11.9778 2.47742 6.19822 0
M  V30 126 H 11.2478 -0.122261 0.730844 0
M  V30 127 H 13.8948 0.395917 1.87363 0
M  V30 128 H 12.1998 -1.56446 3.5921 0
M  V30 129 H 13.8968 -1.24142 3.813 0
M  V30 130 H 10.4868 0.112481 4.28452 0
M  V30 131 H 14.6708 0.88973 4.8826 0
M  V30 132 H 9.9268 1.97684 5.78559 0
M  V30 133 H 14.1008 2.75193 6.3972 0
M  V30 134 H 11.7278 3.30145 6.84769 0
M  V30 135 N 13.3029 -1.57598 0.00835791 0
M  V30 136 C 14.5499 -1.90928 -0.674732 0
M  V30 137 C 14.8779 -0.88277 -1.73313 0
M  V30 138 O 14.1329 0.111294 -1.95383 0
M  V30 139 C 14.4319 -3.3101 -1.34787 0
M  V30 140 C 14.0979 -4.48922 -0.421861 0
M  V30 141 C 12.7599 -4.8091 -0.166927 0
M  V30 142 C 15.1119 -5.20755 0.215211 0
M  V30 143 C 12.4399 -5.821 0.733232 0
M  V30 144 C 14.7919 -6.22905 1.1033 0
M  V30 145 C 13.4559 -6.53346 1.36733 0
M  V30 146 H 12.7259 -0.698656 -0.246902 0
M  V30 147 H 15.3729 -1.91387 0.0656779 0
M  V30 148 H 13.6779 -3.26714 -2.16253 0
M  V30 149 H 15.3749 -3.54061 -1.8826 0
M  V30 150 H 11.9649 -4.23934 -0.630729 0
M  V30 151 H 16.1489 -4.9629 0.0312829 0
M  V30 152 H 11.4049 -6.04042 0.945712 0
M  V30 153 H 15.5789 -6.77694 1.60325 0
M  V30 154 H 13.2059 -7.31573 2.06652 0
M  V30 155 N 14.781 0.264519 -1.55364 0
M  V30 156 C 16.029 0.993021 -1.76021 0
M  V30 157 C 16.35 1.86511 -0.569099 0
M  V30 158 O 15.62 1.91438 0.415735 0
M  V30 159 H 14.2 0.369639 -0.649135 0
M  V30 160 H 16.862 0.286707 -1.9278 0
M  V30 161 H 15.958 1.62502 -2.66457 0
M  V30 162 N 16.2591 1.48442 0.529413 0
M  V30 163 C 17.4891 1.59919 1.30804 0
M  V30 164 C 17.8971 0.258792 1.87422 0
M  V30 165 O 17.2401 -0.762096 1.67146 0
M  V30 166 C 17.3021 2.58693 2.49636 0
M  V30 167 C 16.9661 4.03745 2.14101 0
M  V30 168 C 17.9631 4.9141 1.6974 0
M  V30 169 C 15.6481 4.49285 2.24607 0
M  V30 170 C 17.6421 6.22645 1.36351 0
M  V30 171 C 15.3291 5.8054 1.9083 0
M  V30 172 C 16.3271 6.67043 1.46773 0
M  V30 173 O 16.0151 7.95856 1.1344 0
M  V30 174 H 15.7471 0.541981 0.404021 0
M  V30 175 H 18.3011 1.95 0.645309 0
M  V30 176 H 16.5311 2.18734 3.18892 0
M  V30 177 H 18.2201 2.59999 3.11698 0
M  V30 178 H 18.9861 4.57465 1.61094 0
M  V30 179 H 14.8651 3.82142 2.57854 0
M  V30 180 H 18.4091 6.90119 1.01891 0
M  V30 181 H 14.3061 6.14022 1.99117 0
M  V30 182 H 15.0741 8.08613 1.26832 0
M  V30 183 N 17.7372 -0.778329 1.37039 0
M  V30 184 C 19.1482 -1.35421 1.28523 0
M  V30 185 C 19.4992 -1.96075 -0.0700901 0
M  V30 186 O 18.6242 -1.93352 -0.971801 0
M  V30 187 C 19.2192 -2.46211 2.32735 0
M  V30 188 C 17.7782 -2.99585 2.27873 0
M  V30 189 C 16.9252 -1.72748 2.16918 0
M  V30 190 H 19.8762 -0.5791 1.47757 0
M  V30 191 H 19.8972 -3.2552 1.9702 0
M  V30 192 H 19.4092 -2.02036 3.31365 0
M  V30 193 H 17.5102 -3.48152 1.32745 0
M  V30 194 H 17.6232 -3.55646 3.21018 0
M  V30 195 H 15.9872 -1.95416 1.63354 0
M  V30 196 H 16.7702 -1.30686 3.17452 0
M  V30 197 N 19.2153 -1.21501 -1.00376 0
M  V30 198 C 20.1453 -0.999478 -2.11028 0
M  V30 199 C 21.1263 0.0759671 -1.6993 0
M  V30 200 O 22.3113 -0.0841106 -1.94018 0
M  V30 201 C 19.4413 -0.564709 -3.42678 0
M  V30 202 C 18.3953 -1.58486 -3.97576 0
M  V30 203 C 17.7213 -1.00628 -5.25146 0
M  V30 204 C 19.0213 -2.97204 -4.29496 0
M  V30 205 H 20.7153 -1.92495 -2.29317 0
M  V30 206 H 18.2613 -0.92693 -1.102 0
M  V30 207 H 20.2143 -0.401091 -4.19487 0
M  V30 208 H 18.9383 0.396411 -3.24185 0
M  V30 209 H 17.5973 -1.73606 -3.22888 0
M  V30 210 H 17.2453 -0.0368439 -5.02987 0
M  V30 211 H 16.9453 -1.68771 -5.62841 0
M  V30 212 H 18.4693 -0.854015 -6.04598 0
M  V30 213 H 19.8833 -2.8552 -4.97143 0
M  V30 214 H 18.2803 -3.62372 -4.78338 0
M  V30 215 H 19.3503 -3.47956 -3.3772 0
M  V30 216 N 20.6934 1.19889 -1.02296 0
M  V30 217 C 21.9184 1.9393 -0.735237 0
M  V30 218 C 22.3434 1.74639 0.698782 0
M  V30 219 O 21.7014 1.04481 1.48167 0
M  V30 220 C 21.7494 3.43916 -1.08417 0
M  V30 221 O 20.8534 4.11917 -0.199446 0
M  V30 222 H 20.1944 0.605645 -0.272196 0
M  V30 223 H 22.7244 1.52137 -1.36804 0
M  V30 224 H 22.7344 3.9456 -1.03856 0
M  V30 225 H 21.4094 3.5728 -2.12894 0
M  V30 226 H 19.9864 3.71666 -0.303136 0
M  V30 227 N 22.1715 0.800033 1.35784 0
M  V30 228 C 23.4205 0.37387 1.98205 0
M  V30 229 C 23.7335 -1.06302 1.64193 0
M  V30 230 O 24.9395 -1.59198 2.19928 0
M  V30 231 C 23.3955 0.617532 3.54562 0
M  V30 232 C 23.0035 2.06654 3.9749 0
M  V30 233 C 24.7475 0.256401 4.23725 0
M  V30 234 C 22.6545 2.2563 5.46667 0
M  V30 235 H 21.5845 0.136055 0.741623 0
M  V30 236 H 24.2355 0.983166 1.54939 0
M  V30 237 H 22.6175 -0.0616248 3.95952 0
M  V30 238 H 23.7915 2.78296 3.67271 0
M  V30 239 H 22.1065 2.38691 3.41197 0
M  V30 240 H 24.7035 0.376318 5.33374 0
M  V30 241 H 25.0465 -0.796692 4.08606 0
M  V30 242 H 25.5795 0.889214 3.87734 0
M  V30 243 H 22.3185 3.2936 5.66747 0
M  V30 244 H 21.8385 1.58504 5.78478 0
M  V30 245 H 23.5175 2.06861 6.1304 0
M  V30 246 N 23.6496 -1.47581 0.552962 0
M  V30 247 C 24.8966 -2.02482 0.0273243 0
M  V30 248 C 25.2246 -1.42776 -1.32081 0
M  V30 249 O 24.4796 -0.571393 -1.87173 0
M  V30 250 C 24.7786 -3.57199 -0.119728 0
M  V30 251 C 24.4446 -4.35804 1.15697 0
M  V30 252 C 23.1066 -4.57 1.50681 0
M  V30 253 C 25.4586 -4.81167 2.00319 0
M  V30 254 C 22.7866 -5.20807 2.70142 0
M  V30 255 C 25.1386 -5.46293 3.18978 0
M  V30 256 C 23.8026 -5.65722 3.54281 0
M  V30 257 H 23.0726 -0.740933 0.00999866 0
M  V30 258 H 25.7196 -1.77302 0.72362 0
M  V30 259 H 24.0246 -3.81348 -0.89896 0
M  V30 260 H 25.7216 -3.97324 -0.541718 0
M  V30 261 H 22.3116 -4.19582 0.874561 0
M  V30 262 H 26.4956 -4.64574 1.74599 0
M  V30 263 H 21.7516 -5.34045 2.97668 0
M  V30 264 H 25.9256 -5.80407 3.84838 0
M  V30 265 H 23.5526 -6.14936 4.46942 0
M  V30 266 N 25.1277 -0.289203 -1.54924 0
M  V30 267 C 26.3747 0.323519 -1.99899 0
M  V30 268 C 26.7027 1.54797 -1.17762 0
M  V30 269 O 25.9577 1.94237 -0.238835 0
M  V30 270 C 26.2567 0.736119 -3.49737 0
M  V30 271 C 25.9227 -0.385276 -4.49251 0
M  V30 272 C 24.5847 -0.693156 -4.76181 0
M  V30 273 C 26.9367 -1.14021 -5.08575 0
M  V30 274 C 24.2647 -1.7593 -5.59701 0
M  V30 275 C 26.6167 -2.19619 -5.93254 0
M  V30 276 C 25.2807 -2.51026 -6.185 0
M  V30 277 H 24.5507 0.118384 -0.731482 0
M  V30 278 H 27.1977 -0.405847 -1.8715 0
M  V30 279 H 25.5027 1.54539 -3.60035 0
M  V30 280 H 27.1997 1.22118 -3.81953 0
M  V30 281 H 23.7897 -0.135202 -4.28387 0
M  V30 282 H 27.9737 -0.915611 -4.87781 0
M  V30 283 H 23.2297 -2.0075 -5.77503 0
M  V30 284 H 27.4037 -2.78581 -6.38252 0
M  V30 285 H 25.0307 -3.33772 -6.83008 0
M  V30 286 N 26.6058 1.57591 -0.0167156 0
M  V30 287 C 27.8548 1.90461 0.663877 0
M  V30 288 C 28.1678 0.893515 1.73999 0
M  V30 289 O 29.3738 1.11302 2.47637 0
M  V30 290 C 27.8298 3.38155 1.23204 0
M  V30 291 C 27.4378 4.47597 0.189866 0
M  V30 292 C 29.1818 3.80111 1.88986 0
M  V30 293 C 27.0888 5.86379 0.768964 0
M  V30 294 H 26.0188 0.710738 0.251729 0
M  V30 295 H 28.6698 1.83326 -0.0799926 0
M  V30 296 H 27.0518 3.40182 2.02712 0
M  V30 297 H 28.2258 4.57112 -0.581846 0
M  V30 298 H 26.5408 4.14766 -0.368475 0
M  V30 299 H 29.1378 4.81145 2.33247 0
M  V30 300 H 29.4808 3.14511 2.72743 0
M  V30 301 H 30.0138 3.80454 1.16187 0
M  V30 302 H 26.7528 6.55493 -0.0301957 0
M  V30 303 H 26.2728 5.80496 1.50945 0
M  V30 304 H 27.9518 6.34563 1.26251 0
M  V30 305 N 28.0839 -0.256276 1.55502 0
M  V30 306 C 29.3299 -0.987079 1.77157 0
M  V30 307 C 29.6629 -1.85327 0.580315 0
M  V30 308 O 28.9379 -1.89874 -0.421686 0
M  V30 309 C 29.2209 -1.85553 3.08613 0
M  V30 310 C 29.0739 -1.01816 4.38125 0
M  V30 311 C 30.3929 -2.8397 3.36228 0
M  V30 312 H 27.5119 -0.357428 0.644526 0
M  V30 313 H 30.1539 -0.258239 1.88237 0
M  V30 314 H 28.3039 -2.47695 2.99298 0
M  V30 315 H 29.9759 -0.416159 4.59419 0
M  V30 316 H 28.2189 -0.322178 4.32602 0
M  V30 317 H 28.8899 -1.65939 5.26468 0
M  V30 318 H 31.3659 -2.31964 3.45445 0
M  V30 319 H 30.2419 -3.41864 4.29442 0
M  V30 320 H 30.5029 -3.59955 2.56681 0
M  V30 321 N 29.562 -1.4872 -0.521534 0
M  V30 322 C 30.808 -1.574 -1.27879 0
M  V30 323 C 31.141 -0.250817 -1.92573 0
M  V30 324 O 30.416 0.743934 -1.79711 0
M  V30 325 C 30.699 -2.71843 -2.36164 0
M  V30 326 C 30.552 -4.13893 -1.76105 0
M  V30 327 C 31.871 -2.82008 -3.37875 0
M  V30 328 H 28.99 -0.572941 -0.463581 0
M  V30 329 H 31.632 -1.80927 -0.580119 0
M  V30 330 H 29.782 -2.51914 -2.95756 0
M  V30 331 H 31.454 -4.45284 -1.20499 0
M  V30 332 H 29.697 -4.20498 -1.06601 0
M  V30 333 H 30.368 -4.89804 -2.5455 0
M  V30 334 H 32.844 -3.00086 -2.88249 0
M  V30 335 H 31.72 -3.63796 -4.11028 0
M  V30 336 H 31.981 -1.90511 -3.98946 0
M  V30 337 N 31.0401 0.771051 -1.3745 0
M  V30 338 C 31.9881 1.90574 -1.33358 0
M  V30 339 C 32.9821 1.67936 -0.22224 0
M  V30 340 O 34.1881 1.75717 -0.390304 0
M  V30 341 H 30.5631 0.626714 -0.415612 0
M  V30 342 H 32.5341 1.91142 -2.29144 0
M  V30 343 C 31.2831 3.27845 -1.15813 0
M  V30 344 H 30.6061 3.45842 -2.00583 0
M  V30 345 H 32.0461 4.07538 -1.17 0
M  V30 346 C 30.5051 3.36625 0.136165 0
M  V30 347 O 31.0351 3.85785 1.11949 0
M  V30 348 N 29.2411 2.89997 0.187099 0
M  V30 349 H 28.7881 2.50182 -0.613753 0
M  V30 350 H 28.7461 2.96252 1.05272 0
M  V30 351 N 32.5182 1.22032 0.997298 0
M  V30 352 C 33.4282 1.00271 2.12092 0
M  V30 353 C 34.4442 -0.047621 1.73935 0
M  V30 354 O 35.6202 0.144136 2.00884 0
M  V30 355 C 32.6852 0.578449 3.4184 0
M  V30 356 C 31.7462 1.70189 3.94125 0
M  V30 357 C 30.9792 1.29778 5.17681 0
M  V30 358 O 31.2022 0.174676 5.70132 0
M  V30 359 O 30.1362 2.11261 5.63607 0
M  V30 360 H 33.9622 1.94398 2.3333 0
M  V30 361 H 31.5472 1.00587 1.10465 0
M  V30 362 H 33.4292 0.351998 4.19927 0
M  V30 363 H 32.1042 -0.334019 3.21972 0
M  V30 364 H 31.0112 1.98282 3.1723 0
M  V30 365 H 32.3442 2.59206 4.18417 0
M  V30 366 N 33.9963 -1.19345 1.0293 0
M  V30 367 C 35.2433 -1.89038 0.726008 0
M  V30 368 C 35.5713 -1.79649 -0.745427 0
M  V30 369 O 34.8263 -1.18354 -1.55855 0
M  V30 370 C 35.1253 -3.39292 1.12319 0
M  V30 371 C 34.7913 -3.68885 2.59297 0
M  V30 372 C 33.4533 -3.76671 2.99453 0
M  V30 373 C 35.8053 -3.82178 3.54386 0
M  V30 374 C 33.1333 -3.9522 4.33611 0
M  V30 375 C 35.4853 -4.0224 4.88248 0
M  V30 376 C 34.1493 -4.08259 5.28092 0
M  V30 377 H 33.4193 -0.691739 0.265665 0
M  V30 378 H 36.0663 -1.41328 1.29223 0
M  V30 379 H 34.3713 -3.88903 0.475584 0
M  V30 380 H 36.0683 -3.91536 0.866037 0
M  V30 381 H 32.6583 -3.63433 2.27189 0
M  V30 382 H 36.8423 -3.75505 3.24514 0
M  V30 383 H 32.0983 -3.98119 4.64016 0
M  V30 384 H 36.2723 -4.11468 5.61843 0
M  V30 385 H 33.8993 -4.22384 6.32057 0
M  V30 386 N 35.4744 -0.807222 -1.35358 0
M  V30 387 C 36.7144 -0.393534 -2.00576 0
M  V30 388 C 37.0784 1.0203 -1.62647 0
M  V30 389 O 38.2794 1.53603 -2.20589 0
M  V30 390 C 36.5504 -0.572017 -3.52793 0
M  V30 391 S 38.1094 -0.248845 -4.38094 0
M  V30 392 H 34.9274 -0.149425 -0.695121 0
M  V30 393 H 37.5294 -1.04961 -1.64935 0
M  V30 394 H 36.2334 -1.60097 -3.77885 0
M  V30 395 H 35.7644 0.099359 -3.93275 0
M  V30 396 H 37.7794 0.943253 -4.87152 0
M  V30 397 N 36.9525 1.47285 -0.560781 0
M  V30 398 C 37.8625 2.33846 0.187954 0
M  V30 399 C 38.8785 1.48412 0.908293 0
M  V30 400 O 40.0545 1.81332 0.876388 0
M  V30 401 C 37.1195 3.25178 1.2025 0
M  V30 402 C 36.1805 4.26504 0.489208 0
M  V30 403 C 35.4135 5.13472 1.45542 0
M  V30 404 O 35.6365 5.02959 2.6905 0
M  V30 405 O 34.5705 5.93902 0.977963 0
M  V30 406 H 38.3965 2.99177 -0.522177 0
M  V30 407 H 35.9815 1.45903 -0.321364 0
M  V30 408 H 37.8635 3.81584 1.78805 0
M  V30 409 H 36.5385 2.6247 1.89449 0
M  V30 410 H 35.4455 3.73847 -0.137627 0
M  V30 411 H 36.7785 4.91935 -0.161399 0
M  V30 412 N 38.4306 0.297415 1.54768 0
M  V30 413 C 39.8466 -0.0560823 1.59501 0
M  V30 414 C 40.0466 -1.52725 1.31444 0
M  V30 415 O 39.1026 -2.27947 1.08611 0
M  V30 416 C 40.4156 0.338631 2.98787 0
M  V30 417 C 41.9636 0.287097 3.11681 0
M  V30 418 C 42.4386 0.656579 4.53269 0
M  V30 419 N 43.9296 0.608977 4.59179 0
M  V30 420 C 44.6646 0.867385 5.66802 0
M  V30 421 N 44.1606 1.19157 6.82476 0
M  V30 422 N 45.9536 0.794687 5.56454 0
M  V30 423 H 38.1046 1.25624 1.71267 0
M  V30 424 H 40.3676 0.509057 0.799728 0
M  V30 425 H 40.0736 1.36263 3.2423 0
M  V30 426 H 39.9476 -0.309508 3.75928 0
M  V30 427 H 42.3346 -0.727649 2.85988 0
M  V30 428 H 42.4156 0.969809 2.36703 0
M  V30 429 H 42.0596 1.66912 4.7969 0
M  V30 430 H 41.9896 -0.0481649 5.26578 0
M  V30 431 H 44.4806 0.369198 3.76092 0
M  V30 432 H 44.7936 1.37482 7.60473 0
M  V30 433 H 43.1386 1.22958 6.84037 0
M  V30 434 H 46.3296 0.541098 4.64962 0
M  V30 435 H 46.5026 0.999445 6.40246 0
M  V30 436 N 39.9087 -1.5758 0.0250728 0
M  V30 437 C 41.1557 -1.91633 -0.654444 0
M  V30 438 C 41.4837 -0.901103 -1.72367 0
M  V30 439 O 40.7387 0.0905647 -1.9549 0
M  V30 440 C 41.0377 -3.32421 -1.31268 0
M  V30 441 C 40.7037 -4.49344 -0.374223 0
M  V30 442 C 39.3657 -4.8106 -0.115911 0
M  V30 443 C 41.7177 -5.20498 0.270432 0
M  V30 444 C 39.0457 -5.8129 0.79493 0
M  V30 445 C 41.3977 -6.21699 1.1693 0
M  V30 446 C 40.0617 -6.51859 1.43655 0
M  V30 447 H 39.3317 -0.701236 -0.239478 0
M  V30 448 H 41.9787 -1.91307 0.0859734 0
M  V30 449 H 40.2837 -3.28989 -2.12775 0
M  V30 450 H 41.9807 -3.56038 -1.84494 0
M  V30 451 H 38.5707 -4.24579 -0.58573 0
M  V30 452 H 42.7547 -4.96229 0.0839194 0
M  V30 453 H 38.0107 -6.03005 1.00973 0
M  V30 454 H 42.1847 -6.75955 1.67504 0
M  V30 455 H 39.8117 -7.2934 2.144 0
M  V30 456 N 41.3868 0.248026 -1.55636 0
M  V30 457 C 42.6118 0.998028 -1.81808 0
M  V30 458 C 43.0368 1.78207 -0.601979 0
M  V30 459 O 42.3948 1.75653 0.448961 0
M  V30 460 C 42.4428 1.9125 -3.05705 0
M  V30 461 O 41.5468 3.00406 -2.82542 0
M  V30 462 H 40.8878 0.284045 -0.600179 0
M  V30 463 H 43.4178 0.269357 -2.02819 0
M  V30 464 H 43.4278 2.32737 -3.35108 0
M  V30 465 H 42.1028 1.33602 -3.93857 0
M  V30 466 H 40.6798 2.63056 -2.64303 0
M  V30 467 N 42.8649 1.48995 0.513639 0
M  V30 468 C 44.0949 1.61297 1.291 0
M  V30 469 C 44.5029 0.278656 1.87137 0
M  V30 470 O 43.8459 -0.744325 1.67945 0
M  V30 471 C 43.9079 2.61326 2.46879 0
M  V30 472 C 43.5719 4.05993 2.09807 0
M  V30 473 C 44.5689 4.93183 1.64519 0
M  V30 474 C 42.2539 4.51642 2.19829 0
M  V30 475 C 44.2479 6.24056 1.2974 0
M  V30 476 C 41.9349 5.82532 1.84662 0
M  V30 477 C 42.9329 6.68562 1.3969 0
M  V30 478 O 42.6209 7.97014 1.04992 0
M  V30 479 H 42.3529 0.546236 0.39825 0
M  V30 480 H 44.9069 1.95673 0.62459 0
M  V30 481 H 43.1369 2.22104 3.16554 0
M  V30 482 H 44.8259 2.6329 3.08923 0
M  V30 483 H 45.5919 4.59147 1.56233 0
M  V30 484 H 41.4709 3.84855 2.53786 0
M  V30 485 H 45.0149 6.91161 0.945659 0
M  V30 486 H 40.9119 6.16099 1.92594 0
M  V30 487 H 41.6799 8.09913 1.18249 0
M  V30 488 N 44.343 -0.763751 1.37857 0
M  V30 489 C 45.573 -1.55067 1.3652 0
M  V30 490 C 45.981 -1.89135 -0.0494227 0
M  V30 491 O 45.324 -1.52529 -1.02375 0
M  V30 492 C 45.386 -2.8838 2.14656 0
M  V30 493 C 45.05 -2.76905 3.63555 0
M  V30 494 C 46.047 -2.4739 4.57268 0
M  V30 495 C 43.732 -2.94676 4.06781 0
M  V30 496 C 45.726 -2.35786 5.92186 0
M  V30 497 C 43.413 -2.82692 5.41782 0
M  V30 498 C 44.411 -2.53289 6.34298 0
M  V30 499 O 44.099 -2.41345 7.66817 0
M  V30 500 H 43.831 -0.486776 0.469069 0
M  V30 501 H 46.385 -0.953812 1.81911 0
M  V30 502 H 44.615 -3.50217 1.63967 0
M  V30 503 H 46.304 -3.49828 2.05852 0
M  V30 504 H 47.07 -2.33339 4.2518 0
M  V30 505 H 42.949 -3.16563 3.35126 0
M  V30 506 H 46.493 -2.12757 6.64365 0
M  V30 507 H 42.39 -2.96314 5.7347 0
M  V30 508 H 43.158 -2.56634 7.77226 0
M  V30 509 N 45.8211 -1.22559 -0.990812 0
M  V30 510 C 47.0691 -1.04933 -1.72724 0
M  V30 511 C 47.3901 0.416158 -1.90508 0
M  V30 512 O 46.6601 1.29918 -1.46622 0
M  V30 513 H 45.2401 -0.385296 -0.639965 0
M  V30 514 H 47.9021 -1.54105 -1.19322 0
M  V30 515 H 46.9981 -1.52886 -2.72089 0
M  V30 516 N 47.2992 1.18797 -1.03562 0
M  V30 517 C 48.2322 2.2105 -0.56676 0
M  V30 518 C 49.2102 1.57704 0.395993 0
M  V30 519 O 50.3942 1.85908 0.311498 0
M  V30 520 C 47.5212 3.38259 0.172704 0
M  V30 521 C 46.5672 4.19987 -0.74252 0
M  V30 522 S 47.4002 4.87199 -2.22254 0
M  V30 523 C 48.5562 6.07813 -1.49379 0
M  V30 524 H 48.7892 2.60478 -1.43312 0
M  V30 525 H 46.3222 1.29151 -0.846133 0
M  V30 526 H 48.2802 4.06191 0.593191 0
M  V30 527 H 46.9412 2.97252 1.01488 0
M  V30 528 H 46.1342 5.03709 -0.171265 0
M  V30 529 H 45.7362 3.57408 -1.10163 0
M  V30 530 H 48.0282 6.72948 -0.784056 0
M  V30 531 H 48.9712 6.69435 -2.30786 0
M  V30 532 H 49.3792 5.55781 -0.988331 0
M  V30 533 N 48.7773 0.814389 1.34928 0
M  V30 534 C 50.1933 0.499084 1.51596 0
M  V30 535 C 50.3933 -0.978319 1.76157 0
M  V30 536 O 49.4493 -1.76309 1.80752 0
M  V30 537 C 50.7623 1.35121 2.68631 0
M  V30 538 C 52.3103 1.34746 2.82511 0
M  V30 539 C 52.7853 2.18388 4.0258 0
M  V30 540 N 54.2763 2.15966 4.09772 0
M  V30 541 C 55.0113 2.77437 5.01813 0
M  V30 542 N 54.5073 3.47866 5.99134 0
M  V30 543 N 56.3003 2.67037 4.94619 0
M  V30 544 H 48.4513 1.7711 1.17243 0
M  V30 545 H 50.7143 0.754256 0.574284 0
M  V30 546 H 50.4203 2.40001 2.57085 0
M  V30 547 H 50.2943 1.00991 3.63429 0
M  V30 548 H 52.6813 0.30648 2.93504 0
M  V30 549 H 52.7623 1.72869 1.88547 0
M  V30 550 H 52.4063 3.2253 3.92347 0
M  V30 551 H 52.3363 1.77621 4.9574 0
M  V30 552 H 54.8273 1.64729 3.40107 0
M  V30 553 H 55.1403 3.92038 6.65977 0
M  V30 554 H 53.4853 3.51972 5.99284 0
M  V30 555 H 56.6763 2.11597 4.17546 0
M  V30 556 H 56.8493 3.15232 5.66156 0
M  V30 557 N 50.2554 -1.46986 0.568584 0
M  V30 558 C 51.2184 -2.28624 -0.162366 0
M  V30 559 C 52.2184 -1.37596 -0.832103 0
M  V30 560 O 53.4084 -1.60115 -0.68622 0
M  V30 561 C 50.5404 -3.17596 -1.23878 0
M  V30 562 H 51.7334 -2.94722 0.554899 0
M  V30 563 H 49.2864 -1.52863 0.325976 0
M  V30 564 H 50.0214 -2.56214 -1.98808 0
M  V30 565 H 49.8064 -3.846 -0.763219 0
M  V30 566 H 51.2964 -3.79078 -1.75185 0
M  V30 567 N 51.7335 -0.305618 -1.54608 0
M  V30 568 C 52.9825 0.303098 -1.9941 0
M  V30 569 C 53.2955 1.54648 -1.19764 0
M  V30 570 O 54.5015 2.23007 -1.54855 0
M  V30 571 C 52.9575 0.590588 -3.55021 0
M  V30 572 C 52.5655 -0.634719 -4.43481 0
M  V30 573 C 54.3095 1.16025 -4.08336 0
M  V30 574 C 52.2165 -0.320126 -5.90533 0
M  V30 575 H 51.1465 0.117031 -0.744862 0
M  V30 576 H 53.7975 -0.415045 -1.78745 0
M  V30 577 H 52.1795 1.36845 -3.71604 0
M  V30 578 H 53.3535 -1.41079 -4.38672 0
M  V30 579 H 51.6685 -1.12333 -4.00962 0
M  V30 580 H 54.2655 1.40994 -5.15776 0
M  V30 581 H 54.6085 2.10397 -3.5922 0
M  V30 582 H 55.1415 0.443985 -3.95315 0
M  V30 583 H 51.8805 -1.23254 -6.43808 0
M  V30 584 H 51.4005 0.418579 -5.98338 0
M  V30 585 H 53.0795 0.0766241 -6.46955 0
M  V30 586 N 53.2116 1.57565 -0.0334293 0
M  V30 587 C 54.1416 2.13511 0.945265 0
M  V30 588 C 55.1226 1.05231 1.33643 0
M  V30 589 O 56.3076 1.33084 1.41429 0
M  V30 590 C 53.4376 2.6657 2.22616 0
M  V30 591 C 52.3916 3.79676 1.97561 0
M  V30 592 C 51.7176 4.1918 3.31952 0
M  V30 593 C 53.0176 5.0557 1.31135 0
M  V30 594 H 54.7116 2.95538 0.479325 0
M  V30 595 H 52.2576 1.42166 0.229115 0
M  V30 596 H 54.2106 3.04344 2.91466 0
M  V30 597 H 52.9346 1.8171 2.71384 0
M  V30 598 H 51.5936 3.42347 1.31127 0
M  V30 599 H 51.2416 3.31296 3.78487 0
M  V30 600 H 50.9416 4.95402 3.15992 0
M  V30 601 H 52.4656 4.59541 4.02063 0
M  V30 602 H 53.8796 5.40903 1.89992 0
M  V30 603 H 52.2766 5.86818 1.25559 0
M  V30 604 H 53.3466 4.84062 0.284894 0
M  V30 605 N 54.6897 -0.239769 1.55765 0
M  V30 606 C 55.9387 -0.964754 1.77131 0
M  V30 607 C 56.2517 -1.86213 0.59868 0
M  V30 608 O 57.4577 -2.6244 0.695522 0
M  V30 609 C 55.9137 -1.76552 3.1362 0
M  V30 610 C 55.5217 -0.915185 4.38553 0
M  V30 611 C 57.2657 -2.48281 3.44321 0
M  V30 612 C 55.1727 -1.71225 5.66071 0
M  V30 613 H 54.1027 -0.363953 0.660344 0
M  V30 614 H 56.7537 -0.219181 1.82186 0
M  V30 615 H 55.1357 -2.55331 3.02691 0
M  V30 616 H 56.3097 -0.169217 4.60489 0
M  V30 617 H 54.6247 -0.310889 4.15238 0
M  V30 618 H 57.2217 -3.08382 4.36812 0
M  V30 619 H 57.5647 -3.20256 2.65973 0
M  V30 620 H 58.0977 -1.76507 3.56497 0
M  V30 621 H 54.8367 -1.03612 6.4726 0
M  V30 622 H 54.3567 -2.43331 5.48224 0
M  V30 623 H 56.0357 -2.27758 6.05587 0
M  V30 624 N 56.1678 -1.49265 -0.50573 0
M  V30 625 C 57.0978 -1.68495 -1.61653 0
M  V30 626 C 58.0788 -0.53366 -1.61512 0
M  V30 627 O 59.2638 -0.76897 -1.78327 0
M  V30 628 C 56.3938 -1.74709 -3.00157 0
M  V30 629 C 55.3478 -2.89581 -3.15162 0
M  V30 630 C 54.6738 -2.80903 -4.5497 0
M  V30 631 C 55.9738 -4.30578 -2.95634 0
M  V30 632 H 57.6678 -2.61493 -1.45814 0
M  V30 633 H 55.2138 -1.25838 -0.70005 0
M  V30 634 H 57.1668 -1.86748 -3.77761 0
M  V30 635 H 55.8908 -0.783067 -3.17074 0
M  V30 636 H 54.5498 -2.77136 -2.39982 0
M  V30 637 H 54.1978 -1.82419 -4.68756 0
M  V30 638 H 53.8978 -3.57999 -4.65951 0
M  V30 639 H 55.4218 -2.94944 -5.34641 0
M  V30 640 H 56.8358 -4.4373 -3.63011 0
M  V30 641 H 55.2328 -5.0886 -3.18091 0
M  V30 642 H 56.3028 -4.45352 -1.91806 0
M  V30 643 N 57.6459 0.756429 -1.3826 0
M  V30 644 C 58.8759 1.54341 -1.3734 0
M  V30 645 C 59.2839 1.89159 0.0393917 0
M  V30 646 O 58.6269 1.5307 1.01565 0
M  V30 647 C 58.6889 2.87238 -2.16182 0
M  V30 648 C 58.3529 2.74973 -3.65019 0
M  V30 649 C 59.3499 2.44962 -4.58574 0
M  V30 650 C 57.0349 2.92515 -4.08338 0
M  V30 651 C 59.0289 2.32642 -5.93428 0
M  V30 652 C 56.7159 2.79815 -5.43274 0
M  V30 653 C 57.7139 2.49921 -6.35632 0
M  V30 654 O 57.4019 2.37275 -7.68086 0
M  V30 655 H 57.1339 0.484281 -0.471643 0
M  V30 656 H 59.6879 0.944152 -1.82414 0
M  V30 657 H 57.9179 3.49342 -1.65822 0
M  V30 658 H 59.6069 3.48731 -2.07705 0
M  V30 659 H 60.3729 2.31081 -4.26412 0
M  V30 660 H 56.2519 3.14781 -3.368 0
M  V30 661 H 59.7959 2.0923 -6.65484 0
M  V30 662 H 55.6929 2.93269 -5.75034 0
M  V30 663 H 56.4609 2.52509 -7.78577 0
M  V30 664 N 59.124 1.23083 0.984299 0
M  V30 665 C 60.371 1.06057 1.72505 0
M  V30 666 C 60.699 -0.403105 1.90277 0
M  V30 667 O 59.954 -1.3149 1.44944 0
M  V30 668 C 60.253 1.72673 3.1292 0
M  V30 669 C 59.919 3.22586 3.15038 0
M  V30 670 C 58.581 3.63489 3.15324 0
M  V30 671 C 60.933 4.185 3.10657 0
M  V30 672 C 58.261 4.98772 3.08939 0
M  V30 673 C 60.613 5.53769 3.05814 0
M  V30 674 C 59.277 5.94041 3.04419 0
M  V30 675 H 58.547 0.388091 0.631242 0
M  V30 676 H 61.194 1.52963 1.15215 0
M  V30 677 H 59.499 1.18116 3.73572 0
M  V30 678 H 61.196 1.56982 3.68996 0
M  V30 679 H 57.786 2.90022 3.15571 0
M  V30 680 H 61.97 3.87911 3.09579 0
M  V30 681 H 57.226 5.29193 3.0621 0
M  V30 682 H 61.4 6.27808 3.0138 0
M  V30 683 H 59.027 6.98833 2.99227 0
M  V30 684 N 60.6021 -1.18246 1.0419 0
M  V30 685 C 61.8301 -1.92195 0.766072 0
M  V30 686 C 62.2451 -1.76247 -0.676933 0
M  V30 687 O 61.6021 -1.09293 -1.46155 0
M  V30 688 C 61.6531 -3.43568 1.12442 0
M  V30 689 O 61.3741 -3.59015 2.51078 0
M  V30 690 C 62.8751 -4.34613 0.873275 0
M  V30 691 H 60.0951 -0.610114 0.279288 0
M  V30 692 H 62.6391 -1.50007 1.38989 0
M  V30 693 H 60.7941 -3.8354 0.545542 0
M  V30 694 H 61.2081 -4.5273 2.64831 0
M  V30 695 H 62.6821 -5.39374 1.17385 0
M  V30 696 H 63.1591 -4.38781 -0.191909 0
M  V30 697 H 63.7651 -4.00341 1.43551 0
M  V30 698 N 62.0802 -0.821533 -1.34494 0
M  V30 699 C 63.0282 -0.230702 -2.31453 0
M  V30 700 C 64.0222 0.627793 -1.57338 0
M  V30 701 O 65.2282 0.519288 -1.72347 0
M  V30 702 H 61.6032 -0.0558577 -0.749923 0
M  V30 703 H 63.5742 -1.06332 -2.78812 0
M  V30 704 C 62.3232 0.59391 -3.4259 0
M  V30 705 H 61.6462 -0.0573588 -3.99759 0
M  V30 706 H 63.0862 0.973446 -4.12674 0
M  V30 707 C 61.5452 1.76568 -2.86924 0
M  V30 708 O 62.0752 2.8638 -2.81691 0
M  V30 709 N 60.2812 1.58198 -2.43766 0
M  V30 710 H 59.8282 0.68872 -2.48222 0
M  V30 711 H 59.7862 2.36752 -2.06871 0
M  V30 712 N 63.5583 1.46682 -0.576371 0
M  V30 713 C 64.8053 2.02412 -0.0595339 0
M  V30 714 C 65.1333 1.44859 1.29793 0
M  V30 715 O 64.3883 0.601099 1.8624 0
M  V30 716 C 64.6873 3.57345 0.062886 0
M  V30 717 C 64.3533 4.33908 -1.22616 0
M  V30 718 C 63.0153 4.54544 -1.57933 0
M  V30 719 C 65.3673 4.77919 -2.07948 0
M  V30 720 C 62.6953 5.16444 -2.78393 0
M  V30 721 C 65.0473 5.41149 -3.27629 0
M  V30 722 C 63.7113 5.60014 -3.63236 0
M  V30 723 H 62.9813 0.74068 -0.021785 0
M  V30 724 H 65.6283 1.76128 -0.751735 0
M  V30 725 H 63.9333 3.82729 0.838178 0
M  V30 726 H 65.6303 3.98136 0.478439 0
M  V30 727 H 62.2203 4.18138 -0.941202 0
M  V30 728 H 66.4043 4.61738 -1.81967 0
M  V30 729 H 61.6603 5.29242 -3.06126 0
M  V30 730 H 65.8343 5.74211 -3.94023 0
M  V30 731 H 63.4613 6.07748 -4.56669 0
M  V30 732 N 65.0364 0.313813 1.54444 0
M  V30 733 C 66.2854 -0.292519 1.99568 0
M  V30 734 C 66.5984 -1.54011 1.20582 0
M  V30 735 O 67.8044 -2.22183 1.56035 0
M  V30 736 C 66.2604 -0.571752 3.55329 0
M  V30 737 C 65.8684 0.658229 4.43138 0
M  V30 738 C 67.6124 -1.13857 4.08946 0
M  V30 739 C 65.5194 0.351439 5.90355 0
M  V30 740 H 64.4494 -0.113079 0.745472 0
M  V30 741 H 67.1004 0.424518 1.78522 0
M  V30 742 H 65.4824 -1.34872 3.72325 0
M  V30 743 H 66.6564 1.43403 4.37918 0
M  V30 744 H 64.9714 1.14458 4.0036 0
M  V30 745 H 67.5684 -1.38257 5.16516 0
M  V30 746 H 67.9114 -2.08489 3.6033 0
M  V30 747 H 68.4444 -0.423015 3.95544 0
M  V30 748 H 65.1834 1.26667 6.43145 0
M  V30 749 H 64.7034 -0.386842 5.98551 0
M  V30 750 H 66.3824 -0.0423134 6.46986 0
M  V30 751 N 66.5145 -1.57545 0.0417849 0
M  V30 752 C 67.7395 -1.97035 -0.647455 0
M  V30 753 C 68.1645 -0.918775 -1.64135 0
M  V30 754 O 67.5225 0.119006 -1.80909 0
M  V30 755 C 67.5705 -3.35609 -1.31905 0
M  V30 756 O 66.6745 -3.3287 -2.43457 0
M  V30 757 H 66.0155 -0.64211 -0.169086 0
M  V30 758 H 68.5455 -2.04318 0.107399 0
M  V30 759 H 68.5555 -3.72126 -1.67291 0
M  V30 760 H 67.2305 -4.11685 -0.590586 0
M  V30 761 H 65.8075 -3.08087 -2.10088 0
M  V30 762 N 67.9926 0.231505 -1.5589 0
M  V30 763 C 69.2386 0.954429 -1.79617 0
M  V30 764 C 69.5936 1.82367 -0.613199 0
M  V30 765 O 68.8866 1.87524 0.393094 0
M  V30 766 C 69.0806 1.83577 -3.0665 0
M  V30 767 C 68.9096 1.05334 -4.3719 0
M  V30 768 C 67.6796 0.75225 -4.99669 0
M  V30 769 C 69.8776 0.423444 -5.12554 0
M  V30 770 N 67.8596 -0.052627 -6.13877 0
M  V30 771 C 69.2306 -0.245287 -6.19515 0
M  V30 772 C 71.2856 0.335466 -4.96769 0
M  V30 773 C 69.9886 -0.993566 -7.12405 0
M  V30 774 C 72.0146 -0.399321 -5.9005 0
M  V30 775 C 71.3766 -1.05663 -6.9643 0
M  V30 776 H 67.4756 0.329846 -0.709031 0
M  V30 777 H 70.0596 0.226172 -1.93382 0
M  V30 778 H 68.2306 2.53592 -2.94186 0
M  V30 779 H 69.9626 2.49541 -3.18608 0
M  V30 780 H 66.7176 1.06783 -4.61405 0
M  V30 781 H 67.1416 -0.443609 -6.75545 0
M  V30 782 H 71.7836 0.829311 -4.14587 0
M  V30 783 H 69.5016 -1.49896 -7.94076 0
M  V30 784 H 73.0876 -0.468265 -5.79913 0
M  V30 785 H 71.9676 -1.61612 -7.67366 0
M  V30 786 N 69.4707 1.49531 0.497807 0
M  V30 787 C 70.7477 1.49682 1.25915 0
M  V30 788 C 71.1277 0.226339 2.09883 0
M  V30 789 O 70.4757 -0.791189 2.14365 0
M  V30 790 C 70.6857 2.77755 2.11313 0
M  V30 791 C 72.0337 3.27371 2.70395 0
M  V30 792 O 73.0577 2.78894 2.21578 0
M  V30 793 O 71.9167 4.11808 3.59272 0
M  V30 794 H 69.0107 0.599228 0.56996 0
M  V30 795 H 71.5567 1.61798 0.511816 0
M  V30 796 H 70.3287 3.61713 1.49264 0
M  V30 797 H 69.9517 2.68515 2.93233 0
M  V30 798 N 70.9488 -0.749086 1.3866 0
M  V30 799 C 72.2258 -1.4992 1.25632 0
M  V30 800 C 72.6058 -2.10633 -0.140317 0
M  V30 801 O 71.9538 -1.97437 -1.15025 0
M  V30 802 C 72.1638 -2.56195 2.36992 0
M  V30 803 C 73.5118 -3.22972 2.75634 0
M  V30 804 O 74.5358 -2.66502 2.36337 0
M  V30 805 O 73.3948 -4.25122 3.43415 0
M  V30 806 H 70.4888 -0.665067 0.491544 0
M  V30 807 H 73.0348 -0.784113 1.50498 0
M  V30 808 H 71.8068 -2.09612 3.30422 0
M  V30 809 H 71.4298 -3.35279 2.13714 0
M  V30 810 N 72.4269 -1.23603 -0.977757 0
M  V30 811 C 73.3749 -1.01704 -2.09187 0
M  V30 812 C 74.3689 0.0448214 -1.69341 0
M  V30 813 O 75.5749 -0.108902 -1.7967 0
M  V30 814 H 71.9499 -0.311803 -0.684312 0
M  V30 815 H 73.9209 -1.96207 -2.24823 0
M  V30 816 C 72.6699 -0.627746 -3.41986 0
M  V30 817 H 71.9929 -1.43656 -3.73099 0
M  V30 818 H 73.4329 -0.514053 -4.20872 0
M  V30 819 C 71.8919 0.664238 -3.30287 0
M  V30 820 O 72.4219 1.71268 -3.6336 0
M  V30 821 N 70.6279 0.641156 -2.83439 0
M  V30 822 H 70.1749 -0.212376 -2.56723 0
M  V30 823 H 70.1329 1.50583 -2.75993 0
M  V30 824 N 73.905 1.17692 -1.04816 0
M  V30 825 C 74.835 2.23777 -0.666791 0
M  V30 826 C 75.816 1.66796 0.33361 0
M  V30 827 O 77.001 1.93039 0.212042 0
M  V30 828 C 74.131 3.47281 -0.0367933 0
M  V30 829 C 73.085 4.17059 -0.961546 0
M  V30 830 C 72.411 5.34342 -0.195626 0
M  V30 831 C 73.711 4.69713 -2.28402 0
M  V30 832 H 75.405 2.55933 -1.55367 0
M  V30 833 H 72.951 1.23019 -0.748484 0
M  V30 834 H 74.904 4.20706 0.241775 0
M  V30 835 H 73.628 3.14381 0.885004 0
M  V30 836 H 72.287 3.45541 -1.22462 0
M  V30 837 H 71.935 4.97692 0.728816 0
M  V30 838 H 71.635 5.81966 -0.811775 0
M  V30 839 H 73.159 6.10553 0.0757473 0
M  V30 840 H 74.573 5.34794 -2.06563 0
M  V30 841 H 72.97 5.279 -2.8538 0
M  V30 842 H 74.04 3.86726 -2.92525 0
M  V30 843 N 75.3831 0.828654 1.34056 0
M  V30 844 C 76.6081 0.431637 2.02859 0
M  V30 845 C 77.0331 -0.956339 1.61975 0
M  V30 846 O 76.3911 -1.62338 0.807228 0
M  V30 847 C 76.4391 0.548323 3.56407 0
M  V30 848 O 75.5431 -0.429556 4.10157 0
M  V30 849 H 74.8841 0.176886 0.640006 0
M  V30 850 H 77.4141 1.12066 1.71179 0
M  V30 851 H 77.4241 0.426196 4.05768 0
M  V30 852 H 76.0991 1.5606 3.8551 0
M  V30 853 H 74.6761 -0.265836 3.71951 0
M  V30 854 N 76.8612 -1.46375 0.584142 0
M  V30 855 C 78.0892 -2.06761 0.0759296 0
M  V30 856 C 78.5042 -1.43266 -1.22965 0
M  V30 857 O 77.8612 -0.538458 -1.74376 0
M  V30 858 C 77.9122 -3.61375 -0.0950384 0
M  V30 859 O 77.6332 -4.22495 1.15887 0
M  V30 860 C 79.1342 -4.38693 -0.637434 0
M  V30 861 H 76.3542 -0.668479 0.0581075 0
M  V30 862 H 78.8982 -1.8798 0.805218 0
M  V30 863 H 77.0532 -3.79578 -0.774554 0
M  V30 864 H 77.4672 -5.15385 0.973598 0
M  V30 865 H 78.9412 -5.47464 -0.706237 0
M  V30 866 H 79.4182 -4.06836 -1.65472 0
M  V30 867 H 80.0242 -4.25299 0.00725967 0
M  V30 868 N 78.3393 -0.321999 -1.54275 0
M  V30 869 C 79.3023 0.531975 -2.22941 0
M  V30 870 C 80.3023 1.04478 -1.22234 0
M  V30 871 O 81.4923 0.937452 -1.46825 0
M  V30 872 C 78.6243 1.73874 -2.93224 0
M  V30 873 H 79.8173 -0.0682612 -2.99822 0
M  V30 874 H 77.3703 -0.0730644 -1.56129 0
M  V30 875 H 78.1053 2.37825 -2.20476 0
M  V30 876 H 77.8903 1.37847 -3.6707 0
M  V30 877 H 79.3803 2.34496 -3.45545 0
M  V30 878 N 79.8174 1.5752 -0.0501392 0
M  V30 879 C 81.0664 1.91827 0.623328 0
M  V30 880 C 81.3794 0.930222 1.72065 0
M  V30 881 O 82.5854 1.1653 2.4522 0
M  V30 882 C 81.0414 3.40692 1.16003 0
M  V30 883 C 80.6494 4.479 0.0948811 0
M  V30 884 C 82.3934 3.84034 1.80881 0
M  V30 885 C 80.3004 5.87879 0.644411 0
M  V30 886 H 79.2304 0.715918 0.236596 0
M  V30 887 H 81.8814 1.83115 -0.118861 0
M  V30 888 H 80.2634 3.44405 1.9545 0
M  V30 889 H 81.4374 4.55775 -0.678675 0
M  V30 890 H 79.7524 4.13892 -0.45637 0
M  V30 891 H 82.3494 4.85984 2.22988 0
M  V30 892 H 82.6924 3.20225 2.6601 0
M  V30 893 H 83.2254 3.82833 1.0809 0
M  V30 894 H 79.9644 6.55282 -0.169229 0
M  V30 895 H 79.4844 5.83567 1.38598 0
M  V30 896 H 81.1634 6.37098 1.12763 0
M  V30 897 N 81.2955 -0.223234 1.56011 0
M  V30 898 C 82.5255 -0.963413 1.82762 0
M  V30 899 C 82.9335 -1.78516 0.626804 0
M  V30 900 O 82.2765 -1.78974 -0.414014 0
M  V30 901 C 82.3385 -1.93126 3.0322 0
M  V30 902 C 82.0025 -1.2942 4.38291 0
M  V30 903 C 82.9995 -0.684916 5.15369 0
M  V30 904 C 80.6845 -1.30647 4.85012 0
M  V30 905 C 82.6785 -0.0963971 6.37327 0
M  V30 906 C 80.3655 -0.71411 6.06913 0
M  V30 907 C 81.3635 -0.110123 6.82911 0
M  V30 908 O 81.0515 0.47303 8.02507 0
M  V30 909 H 80.7835 -0.288011 0.611576 0
M  V30 910 H 83.3375 -0.244103 2.03944 0
M  V30 911 H 81.5675 -2.68952 2.77852 0
M  V30 912 H 83.2565 -2.53685 3.16857 0
M  V30 913 H 84.0225 -0.667774 4.80381 0
M  V30 914 H 79.9015 -1.76598 4.25833 0
M  V30 915 H 83.4455 0.375657 6.96588 0
M  V30 916 H 79.3425 -0.728659 6.41374 0
M  V30 917 H 80.1105 0.367186 8.17676 0
M  V30 918 N 82.7736 -1.49793 -0.48987 0
M  V30 919 C 83.7236 -1.63673 -1.5873 0
M  V30 920 C 84.7076 -0.491956 -1.53195 0
M  V30 921 O 85.8996 -0.745461 -1.60536 0
M  V30 922 C 83.0286 -1.71689 -2.97284 0
M  V30 923 C 82.1146 -2.91781 -3.07774 0
M  V30 924 N 82.5056 -4.15714 -2.88124 0
M  V30 925 C 80.8036 -2.89949 -3.38889 0
M  V30 926 C 81.5046 -4.965 -3.03088 0
M  V30 927 N 80.4806 -4.30083 -3.3246 0
M  V30 928 H 84.2826 -2.57204 -1.42208 0
M  V30 929 H 81.7966 -1.46719 -0.69623 0
M  V30 930 H 83.7936 -1.79732 -3.76168 0
M  V30 931 H 82.4536 -0.793024 -3.14867 0
M  V30 932 H 83.4646 -4.45515 -2.64077 0
M  V30 933 H 80.1416 -2.06987 -3.62578 0
M  V30 934 H 81.5316 -6.04991 -2.92294 0
M  V30 935 N 84.2517 0.741722 -1.39055 0
M  V30 936 C 85.4797 1.53098 -1.39171 0
M  V30 937 C 85.8947 1.88794 0.0155099 0
M  V30 938 O 85.2517 1.53626 0.985159 0
M  V30 939 C 85.3027 2.82274 -2.2584 0
M  V30 940 O 85.0237 2.48097 -3.61081 0
M  V30 941 C 86.5247 3.76343 -2.34266 0
M  V30 942 H 83.7447 0.473335 -0.4756 0
M  V30 943 H 86.2887 0.917045 -1.82785 0
M  V30 944 H 84.4437 3.40015 -1.85656 0
M  V30 945 H 84.8577 3.31029 -4.06842 0
M  V30 946 H 86.3317 4.63898 -2.9917 0
M  V30 947 H 86.8087 4.17619 -1.35982 0
M  V30 948 H 87.4147 3.24523 -2.74891 0
M  V30 949 N 85.7298 1.2412 0.971189 0
M  V30 950 C 86.9768 1.07881 1.71371 0
M  V30 951 C 87.3048 -0.382901 1.90694 0
M  V30 952 O 86.5598 -1.29945 1.46331 0
M  V30 953 C 86.8588 1.75983 3.11071 0
M  V30 954 C 86.5248 3.25909 3.11599 0
M  V30 955 C 85.1868 3.66813 3.11451 0
M  V30 956 C 87.5388 4.21771 3.062 0
M  V30 957 C 84.8668 5.02021 3.03631 0
M  V30 958 C 87.2188 5.56982 2.99923 0
M  V30 959 C 85.8828 5.97237 2.98102 0
M  V30 960 H 85.1528 0.394764 0.62709 0
M  V30 961 H 87.7998 1.54176 1.13587 0
M  V30 962 H 86.1048 1.22072 3.72298 0
M  V30 963 H 87.8018 1.60887 3.6731 0
M  V30 964 H 84.3918 2.93353 3.12477 0
M  V30 965 H 88.5758 3.91172 3.05447 0
M  V30 966 H 83.8318 5.32411 3.0058 0
M  V30 967 H 88.0058 6.30969 2.94704 0
M  V30 968 H 85.6328 7.01967 2.91798 0
M  V30 969 N 87.2079 -1.17134 1.05439 0
M  V30 970 C 88.4539 -1.87733 0.767077 0
M  V30 971 C 88.7869 -1.8098 -0.704253 0
M  V30 972 O 88.0619 -1.21951 -1.5152 0
M  V30 973 C 88.3449 -3.37659 1.25133 0
M  V30 974 C 88.1979 -3.53149 2.78578 0
M  V30 975 C 89.5169 -4.31768 0.852324 0
M  V30 976 H 86.6359 -0.681687 0.280129 0
M  V30 977 H 89.2779 -1.37732 1.30881 0
M  V30 978 H 87.4279 -3.80373 0.790469 0
M  V30 979 H 89.0999 -3.19434 3.32806 0
M  V30 980 H 87.3429 -2.95345 3.17732 0
M  V30 981 H 88.0139 -4.58403 3.07523 0
M  V30 982 H 90.4899 -3.96909 1.24911 0
M  V30 983 H 89.3659 -5.35199 1.21873 0
M  V30 984 H 89.6269 -4.41429 -0.243485 0
M  V30 985 N 88.686 -0.835752 -1.33615 0
M  V30 986 C 89.649 -0.272 -2.2758 0
M  V30 987 C 90.649 0.557487 -1.50827 0
M  V30 988 O 91.839 0.37173 -1.70188 0
M  V30 989 C 88.971 0.617173 -3.35267 0
M  V30 990 H 90.164 -1.10111 -2.78954 0
M  V30 991 H 87.717 -0.608594 -1.43965 0
M  V30 992 H 88.452 1.46884 -2.89129 0
M  V30 993 H 88.237 0.0237066 -3.92093 0
M  V30 994 H 89.727 1.005 -4.05326 0
M  V30 995 N 90.1641 1.46063 -0.591896 0
M  V30 996 C 91.0941 2.33172 0.123673 0
M  V30 997 C 92.0751 1.45897 0.87453 0
M  V30 998 O 93.2601 1.74698 0.848181 0
M  V30 999 C 90.3901 3.28336 1.13194 0
M  V30 1000 C 89.3441 4.25124 0.495324 0
M  V30 1001 C 88.6701 5.09863 1.61071 0
M  V30 1002 C 89.9701 5.19143 -0.573425 0
M  V30 1003 H 91.6641 2.93252 -0.603646 0
M  V30 1004 H 89.2101 1.41014 -0.291741 0
M  V30 1005 H 91.1631 3.88137 1.64097 0
M  V30 1006 H 89.8871 2.66383 1.88965 0
M  V30 1007 H 88.5461 3.66599 0.00729452 0
M  V30 1008 H 88.1941 4.44288 2.35832 0
M  V30 1009 H 87.8941 5.75417 1.19035 0
M  V30 1010 H 89.4181 5.72529 2.12233 0
M  V30 1011 H 90.8321 5.73106 -0.1491 0
M  V30 1012 H 89.2291 5.93089 -0.914636 0
M  V30 1013 H 90.2991 4.62519 -1.45617 0
M  V30 1014 N 91.6422 0.330177 1.54103 0
M  V30 1015 C 92.8822 -0.270916 2.02597 0
M  V30 1016 C 93.2462 -1.48826 1.21304 0
M  V30 1017 O 94.4472 -2.16266 1.59633 0
M  V30 1018 C 92.7182 -0.590328 3.52491 0
M  V30 1019 S 94.2772 -1.17014 4.2291 0
M  V30 1020 H 91.0952 -0.0815379 0.706309 0
M  V30 1021 H 93.6972 0.464835 1.89893 0
M  V30 1022 H 92.4012 0.303691 4.09275 0
M  V30 1023 H 91.9322 -1.3561 3.69288 0
M  V30 1024 H 93.9472 -2.45662 4.3112 0
M  V30 1025 N 93.1203 -1.57491 0.0584922 0
M  V30 1026 C 94.3503 -1.9701 -0.622134 0
M  V30 1027 C 94.7583 -0.935034 -1.6448 0
M  V30 1028 O 94.1013 0.0882904 -1.83488 0
M  V30 1029 C 94.1633 -3.32794 -1.35972 0
M  V30 1030 C 93.8273 -4.54343 -0.492043 0
M  V30 1031 C 94.8243 -5.19323 0.244901 0
M  V30 1032 C 92.5093 -5.00534 -0.420821 0
M  V30 1033 C 94.5033 -6.28835 1.04143 0
M  V30 1034 C 92.1903 -6.09921 0.379389 0
M  V30 1035 C 93.1883 -6.73933 1.10919 0
M  V30 1036 O 92.8763 -7.81216 1.89623 0
M  V30 1037 H 92.6083 -0.653127 -0.174359 0
M  V30 1038 H 95.1623 -2.05029 0.123418 0
M  V30 1039 H 93.3923 -3.21351 -2.15105 0
M  V30 1040 H 95.0813 -3.5701 -1.93129 0
M  V30 1041 H 95.8473 -4.8459 0.19939 0
M  V30 1042 H 91.7263 -4.50496 -0.978474 0
M  V30 1043 H 95.2703 -6.7873 1.61157 0
M  V30 1044 H 91.1673 -6.44089 0.426512 0
M  V30 1045 H 91.9353 -7.98029 1.81913 0
M  V30 1046 N 94.5984 0.214957 -1.56127 0
M  V30 1047 C 95.5284 1.2695 -1.95974 0
M  V30 1048 C 96.5094 1.48539 -0.828868 0
M  V30 1049 O 97.6944 1.60611 -1.09168 0
M  V30 1050 C 94.8244 2.61794 -2.28214 0
M  V30 1051 C 93.7784 2.54851 -3.43853 0
M  V30 1052 C 93.1044 3.93785 -3.61715 0
M  V30 1053 C 94.4044 2.09065 -4.78632 0
M  V30 1054 H 96.0984 0.93846 -2.84312 0
M  V30 1055 H 93.6444 0.449996 -1.36788 0
M  V30 1056 H 95.5974 3.35731 -2.54682 0
M  V30 1057 H 94.3214 2.96599 -1.36736 0
M  V30 1058 H 92.9804 1.8337 -3.17444 0
M  V30 1059 H 92.6284 4.25908 -2.67602 0
M  V30 1060 H 92.3284 3.90019 -4.39498 0
M  V30 1061 H 93.8524 4.69374 -3.90539 0
M  V30 1062 H 95.2664 2.7275 -5.04262 0
M  V30 1063 H 93.6634 2.16346 -5.59745 0
M  V30 1064 H 94.7334 1.04315 -4.73547 0
M  V30 1065 N 96.0765 1.50051 0.48192 0
M  V30 1066 C 97.3045 1.64237 1.25832 0
M  V30 1067 C 97.7195 0.321336 1.86045 0
M  V30 1068 O 97.0765 -0.695478 1.68729 0
M  V30 1069 C 97.1275 2.72548 2.37487 0
M  V30 1070 O 96.8485 3.99529 1.79745 0
M  V30 1071 C 98.3495 2.9761 3.28547 0
M  V30 1072 H 95.5695 0.55237 0.380957 0
M  V30 1073 H 98.1135 1.96207 0.576467 0
M  V30 1074 H 96.2685 2.43303 3.01467 0
M  V30 1075 H 96.6825 4.59342 2.5319 0
M  V30 1076 H 98.1565 3.77084 4.03127 0
M  V30 1077 H 98.6335 2.0826 3.86684 0
M  V30 1078 H 99.2395 3.28345 2.70314 0
M  V30 1079 N 97.5546 -0.734337 1.39446 0
M  V30 1080 C 98.9656 -1.31264 1.32766 0
M  V30 1081 C 99.3166 -1.96198 -0.00767497 0
M  V30 1082 O 98.4416 -1.96346 -0.909796 0
M  V30 1083 C 99.0366 -2.38682 2.4045 0
M  V30 1084 C 97.5956 -2.92184 2.37288 0
M  V30 1085 C 96.7426 -1.6576 2.22304 0
M  V30 1086 H 99.6936 -0.531799 1.49525 0
M  V30 1087 H 99.7146 -3.19087 2.07276 0
M  V30 1088 H 99.2266 -1.91392 3.37625 0
M  V30 1089 H 97.3276 -3.43752 1.43754 0
M  V30 1090 H 97.4406 -3.45253 3.3217 0
M  V30 1091 H 95.8046 -1.9012 1.69489 0
M  V30 1092 H 96.5876 -1.20521 3.21449 0
M  V30 1093 N 99.0327 -1.24633 -0.964593 0
M  V30 1094 C 100.282 -1.08188 -1.7023 0
M  V30 1095 C 100.595 0.37873 -1.91898 0
M  V30 1096 O 101.801 0.663427 -2.6327 0
M  V30 1097 C 100.257 -1.88773 -3.06419 0
M  V30 1098 C 99.8647 -3.39263 -2.92582 0
M  V30 1099 C 101.609 -1.80867 -3.84041 0
M  V30 1100 C 99.5157 -4.1218 -4.24101 0
M  V30 1101 H 98.4457 -0.401245 -0.638372 0
M  V30 1102 H 101.097 -1.48742 -1.07462 0
M  V30 1103 H 99.4787 -1.41035 -3.70034 0
M  V30 1104 H 100.653 -3.94603 -2.37961 0
M  V30 1105 H 98.9677 -3.48154 -2.28424 0
M  V30 1106 H 101.565 -2.32646 -4.81435 0
M  V30 1107 H 101.908 -0.774543 -4.09031 0
M  V30 1108 H 102.441 -2.26301 -3.27159 0
M  V30 1109 H 99.1797 -5.15965 -4.04303 0
M  V30 1110 H 98.6997 -3.61626 -4.78526 0
M  V30 1111 H 100.379 -4.19349 -4.92702 0
M  V30 1112 N 100.511 1.16574 -1.06058 0
M  V30 1113 C 101.441 2.23057 -0.690488 0
M  V30 1114 C 102.422 1.67141 0.315901 0
M  V30 1115 O 103.607 1.93253 0.191556 0
M  V30 1116 C 100.737 3.47222 -0.073625 0
M  V30 1117 C 99.6908 4.16016 -1.00573 0
M  V30 1118 C 99.0168 5.34104 -0.252289 0
M  V30 1119 C 100.317 4.67264 -2.33371 0
M  V30 1120 H 102.011 2.54271 -1.58072 0
M  V30 1121 H 99.5568 1.22218 -0.76149 0
M  V30 1122 H 101.51 4.20939 0.19714 0
M  V30 1123 H 100.234 3.15302 0.85161 0
M  V30 1124 H 98.8928 3.44223 -1.2612 0
M  V30 1125 H 98.5408 4.98437 0.675988 0
M  V30 1126 H 98.2408 5.81072 -0.873455 0
M  V30 1127 H 99.7648 6.10599 0.0109857 0
M  V30 1128 H 101.179 5.32573 -2.12223 0
M  V30 1129 H 99.5758 5.24843 -2.90963 0
M  V30 1130 H 100.646 3.83602 -2.96611 0
M  V30 1131 N 101.989 0.842826 1.3317 0
M  V30 1132 C 103.237 0.439577 1.97262 0
M  V30 1133 C 103.558 -1.00548 1.67078 0
M  V30 1134 O 102.828 -1.70098 0.971779 0
M  V30 1135 H 101.408 0.159558 0.72976 0
M  V30 1136 H 104.07 1.07665 1.62463 0
M  V30 1137 H 103.166 0.574886 3.0676 0
M  V30 1138 N 103.467 -1.45747 0.599634 0
M  V30 1139 C 104.43 -2.28917 -0.113835 0
M  V30 1140 C 105.43 -1.3933 -0.802729 0
M  V30 1141 O 106.62 -1.61534 -0.652103 0
M  V30 1142 C 103.752 -3.20152 -1.17114 0
M  V30 1143 H 104.945 -2.93478 0.617289 0
M  V30 1144 H 102.498 -1.52137 0.358327 0
M  V30 1145 H 103.233 -2.60374 -1.93329 0
M  V30 1146 H 103.018 -3.86133 -0.681468 0
M  V30 1147 H 104.508 -3.82708 -1.67105 0
M  V30 1148 N 104.945 -0.338344 -1.53925 0
M  V30 1149 C 105.875 0.51328 -2.27789 0
M  V30 1150 C 106.856 1.107 -1.29149 0
M  V30 1151 O 108.041 1.12937 -1.57984 0
M  V30 1152 C 105.171 1.66697 -3.04679 0
M  V30 1153 C 104.125 1.20183 -4.1078 0
M  V30 1154 C 103.451 2.44363 -4.75595 0
M  V30 1155 C 104.751 0.30605 -5.21403 0
M  V30 1156 H 106.445 -0.102883 -2.99223 0
M  V30 1157 H 103.991 -0.0509219 -1.4391 0
M  V30 1158 H 105.944 2.26915 -3.55088 0
M  V30 1159 H 104.668 2.30995 -2.30887 0
M  V30 1160 H 103.327 0.622499 -3.61276 0
M  V30 1161 H 102.975 3.07057 -3.98403 0
M  V30 1162 H 102.675 2.13925 -5.47275 0
M  V30 1163 H 104.199 3.05317 -5.28786 0
M  V30 1164 H 105.613 0.814929 -5.67478 0
M  V30 1165 H 104.01 0.0937929 -6.00027 0
M  V30 1166 H 105.08 -0.65921 -4.80398 0
M  V30 1167 N 106.423 1.57458 -0.0668435 0
M  V30 1168 C 107.672 1.92477 0.602947 0
M  V30 1169 C 107.985 0.948419 1.71068 0
M  V30 1170 O 109.191 1.19124 2.43971 0
M  V30 1171 C 107.647 3.41903 1.12383 0
M  V30 1172 C 107.255 4.47975 0.04737 0
M  V30 1173 C 108.999 3.85931 1.76797 0
M  V30 1174 C 106.906 5.88529 0.582022 0
M  V30 1175 H 105.836 0.718387 0.22899 0
M  V30 1176 H 108.487 1.82978 -0.138276 0
M  V30 1177 H 106.869 3.46459 1.91787 0
M  V30 1178 H 108.043 4.55029 -0.726978 0
M  V30 1179 H 106.358 4.13384 -0.500243 0
M  V30 1180 H 108.955 4.88322 2.17821 0
M  V30 1181 H 109.298 3.23029 2.62599 0
M  V30 1182 H 109.831 3.83958 1.04024 0
M  V30 1183 H 106.57 6.55065 -0.238721 0
M  V30 1184 H 106.09 5.85004 1.324 0
M  V30 1185 H 107.769 6.38258 1.05999 0
M  V30 1186 N 107.901 -0.206675 1.56239 0
M  V30 1187 C 108.864 -1.23976 1.92776 0
M  V30 1188 C 109.864 -1.39041 0.807729 0
M  V30 1189 O 111.054 -1.37051 1.0753 0
M  V30 1190 C 108.186 -2.61112 2.19165 0
M  V30 1191 H 109.379 -0.927764 2.85189 0
M  V30 1192 H 106.932 -0.447718 1.4975 0
M  V30 1193 H 107.667 -2.97386 1.29352 0
M  V30 1194 H 107.452 -2.51552 3.00772 0
M  V30 1195 H 108.942 -3.35633 2.48476 0
M  V30 1196 N 109.379 -1.50304 -0.473955 0
M  V30 1197 C 110.656 -1.51667 -1.23518 0
M  V30 1198 C 111.036 -0.259701 -2.09496 0
M  V30 1199 O 110.384 0.756986 -2.15597 0
M  V30 1200 C 110.594 -2.81082 -2.06868 0
M  V30 1201 C 111.942 -3.31631 -2.65153 0
M  V30 1202 O 112.966 -2.82384 -2.17113 0
M  V30 1203 O 111.825 -4.17471 -3.52675 0
M  V30 1204 H 108.919 -0.60822 -0.560355 0
M  V30 1205 H 111.465 -1.62592 -0.486011 0
M  V30 1206 H 110.237 -3.64041 -1.4349 0
M  V30 1207 H 109.86 -2.73146 -2.88924 0
M  V30 1208 N 110.857 0.726932 -1.39834 0
M  V30 1209 C 112.082 1.52121 -1.40976 0
M  V30 1210 C 112.507 1.88098 -0.00826029 0
M  V30 1211 O 111.865 1.52479 0.980807 0
M  V30 1212 C 111.913 2.78021 -2.29644 0
M  V30 1213 O 111.017 3.74272 -1.73188 0
M  V30 1214 H 110.358 0.45908 -0.479731 0
M  V30 1215 H 112.888 0.896207 -1.83927 0
M  V30 1216 H 112.898 3.26671 -2.44438 0
M  V30 1217 H 111.573 2.51169 -3.31492 0
M  V30 1218 H 110.15 3.33073 -1.6768 0
M  V30 1219 N 112.336 1.25143 0.95797 0
M  V30 1220 C 113.582 1.10863 1.70531 0
M  V30 1221 C 113.937 -0.347391 1.89238 0
M  V30 1222 O 113.23 -1.25262 1.44983 0
M  V30 1223 C 113.424 1.79272 3.09187 0
M  V30 1224 C 113.253 3.31376 3.04006 0
M  V30 1225 C 112.023 4.0062 3.07948 0
M  V30 1226 C 114.221 4.27825 2.8543 0
M  V30 1227 N 112.203 5.39526 2.9289 0
M  V30 1228 C 113.574 5.53794 2.78769 0
M  V30 1229 C 115.629 4.1828 2.70085 0
M  V30 1230 C 114.332 6.7131 2.58331 0
M  V30 1231 C 116.358 5.35485 2.51017 0
M  V30 1232 C 115.72 6.60393 2.45073 0
M  V30 1233 H 111.819 0.460362 0.632132 0
M  V30 1234 H 114.403 1.58196 1.13499 0
M  V30 1235 H 112.574 1.34439 3.64391 0
M  V30 1236 H 114.306 1.57764 3.72683 0
M  V30 1237 H 111.061 3.51855 3.17009 0
M  V30 1238 H 111.485 6.12416 2.88574 0
M  V30 1239 H 116.127 3.22461 2.73457 0
M  V30 1240 H 113.845 7.67243 2.53701 0
M  V30 1241 H 117.431 5.29959 2.40073 0
M  V30 1242 H 116.311 7.49557 2.30509 0
M  V30 1243 N 113.814 -1.1601 1.06675 0
M  V30 1244 C 114.744 -2.22688 0.702307 0
M  V30 1245 C 115.725 -1.67306 -0.307032 0
M  V30 1246 O 116.91 -1.93352 -0.181305 0
M  V30 1247 C 114.04 -3.47178 0.092038 0
M  V30 1248 C 112.994 -4.15477 1.02777 0
M  V30 1249 C 112.32 -5.33963 0.28061 0
M  V30 1250 C 113.62 -4.66019 2.35846 0
M  V30 1251 H 115.314 -2.53429 1.59419 0
M  V30 1252 H 112.86 -1.21813 0.767961 0
M  V30 1253 H 114.813 -4.21037 -0.174814 0
M  V30 1254 H 113.537 -3.15749 -0.834877 0
M  V30 1255 H 112.196 -3.43549 1.27944 0
M  V30 1256 H 111.844 -4.98788 -0.649545 0
M  V30 1257 H 111.544 -5.806 0.904258 0
M  V30 1258 H 113.068 -6.10596 0.021396 0
M  V30 1259 H 114.482 -5.3144 2.15045 0
M  V30 1260 H 112.879 -5.23293 2.93743 0
M  V30 1261 H 113.949 -3.82023 2.98641 0
M  V30 1262 N 115.292 -0.849877 -1.32721 0
M  V30 1263 C 116.54 -0.450032 -1.97026 0
M  V30 1264 C 116.861 0.996604 -1.67609 0
M  V30 1265 O 116.131 1.6958 -0.980786 0
M  V30 1266 H 114.711 -0.163426 -0.728904 0
M  V30 1267 H 117.373 -1.08526 -1.6189 0
M  V30 1268 H 116.469 -0.591146 -3.0645 0
M  V30 1269 N 116.77 1.45427 -0.607355 0
M  V30 1270 C 117.717 2.3053 0.111625 0
M  V30 1271 C 118.687 1.4209 0.860216 0
M  V30 1272 O 119.872 1.71019 0.845998 0
M  V30 1273 C 117.012 3.26992 1.10319 0
M  V30 1274 C 116.125 4.30535 0.355493 0
M  V30 1275 C 115.26 5.14105 1.33676 0
M  V30 1276 C 114.299 6.09376 0.576862 0
M  V30 1277 N 113.436 6.85727 1.5074 0
M  V30 1278 H 118.276 2.91477 -0.620093 0
M  V30 1279 H 115.813 1.43631 -0.317594 0
M  V30 1280 H 117.771 3.81385 1.6912 0
M  V30 1281 H 116.401 2.67799 1.80232 0
M  V30 1282 H 115.453 3.78805 -0.348023 0
M  V30 1283 H 116.765 4.98235 -0.237423 0
M  V30 1284 H 115.919 5.72897 1.99684 0
M  V30 1285 H 114.658 4.46423 1.9636 0
M  V30 1286 H 113.663 5.49715 -0.0968519 0
M  V30 1287 H 114.888 6.79085 -0.0449341 0
M  V30 1288 H 112.834 6.20735 2.12189 0
M  V30 1289 H 112.751 7.49778 0.967913 0
M  V30 1290 H 114.019 7.4906 2.15706 0
M  V30 1291 N 118.248 0.346503 1.53744 0
M  V30 1292 C 119.495 -0.249104 2.00962 0
M  V30 1293 C 119.823 -1.5032 1.23426 0
M  V30 1294 O 119.078 -1.93217 0.310761 0
M  V30 1295 C 119.377 -0.605809 3.52228 0
M  V30 1296 C 119.043 0.551747 4.47512 0
M  V30 1297 C 117.705 0.86941 4.73281 0
M  V30 1298 C 120.057 1.32818 5.03993 0
M  V30 1299 C 117.385 1.96582 5.52786 0
M  V30 1300 C 119.737 2.41486 5.84694 0
M  V30 1301 C 118.401 2.73808 6.08757 0
M  V30 1302 H 117.671 -0.0911538 0.735372 0
M  V30 1303 H 120.318 0.475027 1.85515 0
M  V30 1304 H 118.623 -1.4107 3.65522 0
M  V30 1305 H 120.32 -1.07858 3.86222 0
M  V30 1306 H 116.91 0.294102 4.2759 0
M  V30 1307 H 121.094 1.09602 4.84047 0
M  V30 1308 H 116.35 2.22045 5.69654 0
M  V30 1309 H 120.524 3.02078 6.27473 0
M  V30 1310 H 118.151 3.58892 6.7015 0
M  V30 1311 N 119.726 -1.57421 0.075193 0
M  V30 1312 C 120.673 -2.12915 -0.890843 0
M  V30 1313 C 121.643 -1.04252 -1.29309 0
M  V30 1314 O 122.828 -1.31933 -1.37834 0
M  V30 1315 C 119.968 -2.69795 -2.15186 0
M  V30 1316 C 119.081 -3.92624 -1.80194 0
M  V30 1317 C 118.216 -4.37736 -3.00933 0
M  V30 1318 C 117.255 -5.53205 -2.61974 0
M  V30 1319 N 116.392 -5.9326 -3.75483 0
M  V30 1320 H 121.232 -2.95156 -0.410735 0
M  V30 1321 H 118.769 -1.45854 -0.191086 0
M  V30 1322 H 120.727 -3.00883 -2.89008 0
M  V30 1323 H 119.357 -1.90313 -2.60731 0
M  V30 1324 H 118.409 -3.67977 -0.964218 0
M  V30 1325 H 119.721 -4.76482 -1.47534 0
M  V30 1326 H 118.875 -4.70503 -3.8303 0
M  V30 1327 H 117.614 -3.52739 -3.36789 0
M  V30 1328 H 116.619 -5.20086 -1.783 0
M  V30 1329 H 117.844 -6.39936 -2.27284 0
M  V30 1330 H 115.79 -5.11212 -4.11094 0
M  V30 1331 H 115.707 -6.71865 -3.46602 0
M  V30 1332 H 116.975 -6.30651 -4.58148 0
M  V30 1333 N 121.204 0.198386 -1.56346 0
M  V30 1334 C 122.432 0.935572 -1.84539 0
M  V30 1335 C 122.847 1.76989 -0.657281 0
M  V30 1336 O 122.204 1.78626 0.374043 0
M  V30 1337 C 122.255 1.8344 -3.11499 0
M  V30 1338 O 121.976 1.03377 -4.25728 0
M  V30 1339 C 123.477 2.68355 -3.52846 0
M  V30 1340 H 120.697 0.273126 -0.612897 0
M  V30 1341 H 123.241 0.20663 -2.03453 0
M  V30 1342 H 121.396 2.51701 -2.94492 0
M  V30 1343 H 121.81 1.64599 -4.98003 0
M  V30 1344 H 123.284 3.27085 -4.44657 0
M  V30 1345 H 123.761 3.41901 -2.75681 0
M  V30 1346 H 124.367 2.05471 -3.72373 0
M  V30 1347 N 122.682 1.50554 0.465978 0
M  V30 1348 C 123.931 1.61038 1.21448 0
M  V30 1349 C 124.244 0.31865 1.92987 0
M  V30 1350 O 125.45 0.302469 2.6981 0
M  V30 1351 C 123.906 2.84283 2.20706 0
M  V30 1352 C 123.514 4.20352 1.54946 0
M  V30 1353 C 125.258 3.04115 2.96166 0
M  V30 1354 C 123.165 5.34778 2.5252 0
M  V30 1355 H 122.095 0.599718 0.457005 0
M  V30 1356 H 124.746 1.7699 0.484424 0
M  V30 1357 H 123.128 2.61901 2.97025 0
M  V30 1358 H 124.302 4.53008 0.843811 0
M  V30 1359 H 122.617 4.06167 0.917475 0
M  V30 1360 H 125.214 3.86774 3.69202 0
M  V30 1361 H 125.557 2.16045 3.55852 0
M  V30 1362 H 126.09 3.26702 2.26959 0
M  V30 1363 H 122.829 6.25018 1.97566 0
M  V30 1364 H 122.349 5.06534 3.21222 0
M  V30 1365 H 124.028 5.65561 3.14245 0
M  V30 1366 N 124.16 -0.719506 1.40217 0
M  V30 1367 C 125.406 -1.48152 1.38488 0
M  V30 1368 C 125.739 -1.94195 -0.0141867 0
M  V30 1369 O 125.014 -1.67884 -0.982096 0
M  V30 1370 C 125.297 -2.71035 2.37091 0
M  V30 1371 C 125.15 -2.30912 3.86005 0
M  V30 1372 C 126.469 -3.73182 2.33288 0
M  V30 1373 H 123.588 -0.537395 0.504357 0
M  V30 1374 H 126.23 -0.821472 1.71324 0
M  V30 1375 H 124.38 -3.27352 2.0922 0
M  V30 1376 H 126.052 -1.80107 4.24687 0
M  V30 1377 H 124.295 -1.62958 4.02029 0
M  V30 1378 H 124.966 -3.18978 4.50508 0
M  V30 1379 H 127.442 -3.26485 2.57966 0
M  V30 1380 H 126.318 -4.56806 3.04334 0
M  V30 1381 H 126.579 -4.21202 1.34317 0
M  V30 1382 N 125.638 -1.25649 -0.95132 0
M  V30 1383 C 126.863 -1.13443 -1.73624 0
M  V30 1384 C 127.288 0.307565 -1.85568 0
M  V30 1385 O 126.646 1.22282 -1.33854 0
M  V30 1386 C 126.694 -1.79723 -3.12621 0
M  V30 1387 O 125.798 -1.07912 -3.98031 0
M  V30 1388 H 125.139 -0.395872 -0.533086 0
M  V30 1389 H 127.669 -1.66276 -1.1922 0
M  V30 1390 H 127.679 -1.86141 -3.63064 0
M  V30 1391 H 126.354 -2.84633 -3.03244 0
M  V30 1392 H 124.931 -1.09398 -3.56492 0
M  V30 1393 N 127.117 1.15442 -1.07289 0
M  V30 1394 C 128.047 2.22312 -0.714107 0
M  V30 1395 C 129.028 1.67467 0.298155 0
M  V30 1396 O 130.213 1.93445 0.171048 0
M  V30 1397 C 127.343 3.47124 -0.110448 0
M  V30 1398 C 126.297 4.14926 -1.04979 0
M  V30 1399 C 125.623 5.33807 -0.308924 0
M  V30 1400 C 126.923 4.64762 -2.38314 0
M  V30 1401 H 128.617 2.5258 -1.6076 0
M  V30 1402 H 126.163 1.21404 -0.77441 0
M  V30 1403 H 128.116 4.21124 0.152482 0
M  V30 1404 H 126.84 3.16187 0.81812 0
M  V30 1405 H 125.499 3.42866 -1.29764 0
M  V30 1406 H 125.147 4.99126 0.623084 0
M  V30 1407 H 124.847 5.80113 -0.935036 0
M  V30 1408 H 126.371 6.10576 -0.0537771 0
M  V30 1409 H 127.785 5.30292 -2.1786 0
M  V30 1410 H 126.182 5.21728 -2.96514 0
M  V30 1411 H 127.252 3.80434 -3.00663 0
M  V30 1412 N 128.595 0.856903 1.32268 0
M  V30 1413 C 129.82 0.474569 2.01897 0
M  V30 1414 C 130.245 -0.921766 1.63967 0
M  V30 1415 O 129.603 -1.60589 0.84148 0
M  V30 1416 C 129.651 0.623799 3.55164 0
M  V30 1417 O 128.755 -0.342459 4.10976 0
M  V30 1418 H 128.096 0.190422 0.63611 0
M  V30 1419 H 130.626 1.15672 1.68764 0
M  V30 1420 H 130.636 0.512169 4.04773 0
M  V30 1421 H 129.311 1.64202 3.82113 0
M  V30 1422 H 127.888 -0.18688 3.72431 0
M  V30 1423 N 130.073 -1.45103 0.615059 0
M  V30 1424 C 131.322 -2.01396 0.110718 0
M  V30 1425 C 131.635 -1.48834 -1.26916 0
M  V30 1426 O 132.841 -1.97152 -1.86664 0
M  V30 1427 C 131.297 -3.59599 0.14723 0
M  V30 1428 C 130.905 -4.21158 1.52743 0
M  V30 1429 C 132.649 -4.23428 -0.30148 0
M  V30 1430 C 130.556 -5.71535 1.51992 0
M  V30 1431 H 129.486 -0.753061 0.0376241 0
M  V30 1432 H 132.137 -1.66494 0.77149 0
M  V30 1433 H 130.519 -3.91724 -0.580339 0
M  V30 1434 H 131.693 -4.00594 2.2773 0
M  V30 1435 H 130.008 -3.69552 1.91886 0
M  V30 1436 H 132.605 -5.33703 -0.326392 0
M  V30 1437 H 132.948 -3.94629 -1.32565 0
M  V30 1438 H 133.481 -3.96047 0.373065 0
M  V30 1439 H 130.22 -6.05044 2.52193 0
M  V30 1440 H 129.74 -5.94268 0.81274 0
M  V30 1441 H 131.419 -6.34873 1.24681 0
M  V30 1442 N 131.551 -0.354651 -1.53558 0
M  V30 1443 C 132.797 0.238797 -2.01389 0
M  V30 1444 C 133.13 1.49309 -1.2418 0
M  V30 1445 O 132.405 1.91638 -0.332457 0
M  V30 1446 C 132.688 0.541771 -3.56001 0
M  V30 1447 C 132.541 -0.725388 -4.43912 0
M  V30 1448 C 133.86 1.34685 -4.18984 0
M  V30 1449 H 130.979 0.0853177 -0.732045 0
M  V30 1450 H 133.621 -0.477384 -1.83905 0
M  V30 1451 H 131.771 1.15189 -3.71031 0
M  V30 1452 H 133.443 -1.36313 -4.407 0
M  V30 1453 H 131.686 -1.34801 -4.12324 0
M  V30 1454 H 132.357 -0.468505 -5.50008 0
M  V30 1455 H 134.833 0.830837 -4.07721 0
M  V30 1456 H 133.709 1.52759 -5.27215 0
M  V30 1457 H 133.97 2.35221 -3.74331 0
M  V30 1458 N 133.029 1.57378 -0.0835403 0
M  V30 1459 C 134.259 1.97975 0.590713 0
M  V30 1460 C 134.667 0.961083 1.62972 0
M  V30 1461 O 134.01 -0.0590879 1.83605 0
M  V30 1462 C 134.072 3.34915 1.3066 0
M  V30 1463 C 133.736 4.55069 0.419698 0
M  V30 1464 C 134.733 5.18868 -0.32749 0
M  V30 1465 C 132.418 5.0114 0.341137 0
M  V30 1466 C 134.412 6.27098 -1.14134 0
M  V30 1467 C 132.099 6.0924 -0.476374 0
M  V30 1468 C 133.097 6.72083 -1.21627 0
M  V30 1469 O 132.785 7.781 -2.02028 0
M  V30 1470 H 132.517 0.655818 0.163947 0
M  V30 1471 H 135.071 2.04807 -0.156021 0
M  V30 1472 H 133.301 3.24733 2.09966 0
M  V30 1473 H 134.99 3.60037 1.87424 0
M  V30 1474 H 135.756 4.84211 -0.276459 0
M  V30 1475 H 131.635 4.51996 0.90668 0
M  V30 1476 H 135.179 6.7608 -1.71935 0
M  V30 1477 H 131.076 6.43329 -0.528927 0
M  V30 1478 H 131.844 7.95034 -1.94586 0
M  V30 1479 N 134.507 -0.190092 1.56449 0
M  V30 1480 C 135.735 -0.925772 1.85033 0
M  V30 1481 C 136.15 -1.76638 0.666658 0
M  V30 1482 O 135.507 -1.78822 -0.364565 0
M  V30 1483 C 135.558 -1.81786 3.12468 0
M  V30 1484 O 135.279 -1.01118 4.26271 0
M  V30 1485 C 136.78 -2.6648 3.54265 0
M  V30 1486 H 134 -0.269872 0.614337 0
M  V30 1487 H 136.544 -0.195837 2.0356 0
M  V30 1488 H 134.699 -2.50136 2.95822 0
M  V30 1489 H 135.113 -1.61956 4.98869 0
M  V30 1490 H 136.587 -3.24722 4.46385 0
M  V30 1491 H 137.064 -3.40434 2.77491 0
M  V30 1492 H 137.67 -2.03493 3.73458 0
M  V30 1493 N 135.985 -1.50799 -0.457987 0
M  V30 1494 C 137.234 -1.6168 -1.20593 0
M  V30 1495 C 137.547 -0.32888 -1.92815 0
M  V30 1496 O 138.753 -0.316773 -2.69646 0
M  V30 1497 C 137.209 -2.8545 -2.19195 0
M  V30 1498 C 136.817 -4.21168 -1.52715 0
M  V30 1499 C 138.561 -3.05681 -2.94549 0
M  V30 1500 C 136.468 -5.3611 -2.4968 0
M  V30 1501 H 135.398 -0.602134 -0.453818 0
M  V30 1502 H 138.049 -1.77245 -0.475031 0
M  V30 1503 H 136.431 -2.63472 -2.95632 0
M  V30 1504 H 137.605 -4.53449 -0.819775 0
M  V30 1505 H 135.92 -4.06648 -0.895922 0
M  V30 1506 H 138.517 -3.88727 -3.67145 0
M  V30 1507 H 138.86 -2.17929 -3.54701 0
M  V30 1508 H 139.393 -3.27901 -2.25223 0
M  V30 1509 H 136.132 -6.26057 -1.94249 0
M  V30 1510 H 135.652 -5.0823 -3.18532 0
M  V30 1511 H 137.331 -5.6722 -3.11241 0
M  V30 1512 N 137.463 0.71206 -1.40597 0
M  V30 1513 C 138.711 1.46907 -1.38791 0
M  V30 1514 C 139.032 1.94998 0.00780391 0
M  V30 1515 O 138.302 1.70587 0.963174 0
M  V30 1516 H 136.882 0.545043 -0.51082 0
M  V30 1517 H 139.544 0.843882 -1.75683 0
M  V30 1518 H 138.64 2.34021 -2.06496 0
M  V30 1519 N 138.941 1.26152 0.944643 0
M  V30 1520 C 139.873 1.03199 2.04652 0
M  V30 1521 C 140.886 -0.00642356 1.62799 0
M  V30 1522 O 142.075 0.233263 1.76969 0
M  V30 1523 C 139.175 0.540111 3.34568 0
M  V30 1524 C 138.348 1.64697 4.05208 0
M  V30 1525 C 137.407 1.15374 5.13396 0
M  V30 1526 O 136.433 1.85013 5.38293 0
M  V30 1527 N 137.635 0.00031529 5.805 0
M  V30 1528 H 140.4 1.9808 2.2491 0
M  V30 1529 H 137.961 1.17491 1.11389 0
M  V30 1530 H 139.953 0.194401 4.04233 0
M  V30 1531 H 138.523 -0.315021 3.11009 0
M  V30 1532 H 137.743 2.16379 3.29506 0
M  V30 1533 H 139.031 2.3903 4.49157 0
M  V30 1534 H 138.429 -0.581336 5.62705 0
M  V30 1535 H 136.986 -0.286346 6.51171 0
M  V30 1536 N 140.419 -1.14872 1.07899 0
M  V30 1537 C 141.382 -2.17986 0.708161 0
M  V30 1538 C 142.382 -1.58775 -0.25442 0
M  V30 1539 O 143.572 -1.74166 -0.034645 0
M  V30 1540 C 140.704 -3.40871 0.0446929 0
M  V30 1541 H 141.897 -2.52306 1.62116 0
M  V30 1542 H 139.45 -1.2943 0.876218 0
M  V30 1543 H 140.185 -3.12124 -0.880281 0
M  V30 1544 H 139.97 -3.8511 0.737091 0
M  V30 1545 H 141.46 -4.17121 -0.19991 0
M  V30 1546 N 141.898 -0.863906 -1.31812 0
M  V30 1547 C 143.144 -0.472535 -1.97218 0
M  V30 1548 C 143.477 0.971394 -1.68159 0
M  V30 1549 O 142.752 1.68309 -0.974798 0
M  V30 1550 C 143.035 -0.723054 -3.52766 0
M  V30 1551 C 142.888 -2.21608 -3.91421 0
M  V30 1552 C 144.207 -0.185522 -4.39709 0
M  V30 1553 H 141.326 -0.173158 -0.71637 0
M  V30 1554 H 143.968 -1.08403 -1.56041 0
M  V30 1555 H 142.118 -0.202577 -3.87971 0
M  V30 1556 H 143.79 -2.80334 -3.66347 0
M  V30 1557 H 142.033 -2.691 -3.40246 0
M  V30 1558 H 142.704 -2.34203 -4.99853 0
M  V30 1559 H 145.18 -0.630726 -4.11292 0
M  V30 1560 H 144.056 -0.390306 -5.47511 0
M  V30 1561 H 144.317 0.912229 -4.32586 0
M  V30 1562 N 143.376 1.44774 -0.622745 0
M  V30 1563 C 144.604 2.06487 -0.130722 0
M  V30 1564 C 145.019 1.46476 1.19123 0
M  V30 1565 O 144.376 0.584502 1.72887 0
M  V30 1566 C 144.427 3.615 -0.000807207 0
M  V30 1567 O 144.148 4.19274 -1.27048 0
M  V30 1568 C 145.649 4.40229 0.520898 0
M  V30 1569 H 142.869 0.666704 -0.0758106 0
M  V30 1570 H 145.413 1.85779 -0.854774 0
M  V30 1571 H 143.568 3.81498 0.673643 0
M  V30 1572 H 143.982 5.12622 -1.1099 0
M  V30 1573 H 145.456 5.49144 0.560838 0
M  V30 1574 H 145.933 4.1108 1.54627 0
M  V30 1575 H 146.539 4.25131 -0.120018 0
M  V30 1576 N 144.854 0.36279 1.53368 0
M  V30 1577 C 146.079 -0.231226 2.06107 0
M  V30 1578 C 146.504 -1.419 1.23474 0
M  V30 1579 O 145.862 -1.79524 0.253128 0
M  V30 1580 C 145.91 -0.605523 3.5548 0
M  V30 1581 O 145.014 -1.70312 3.7559 0
M  V30 1582 H 144.355 -0.034327 0.663112 0
M  V30 1583 H 146.885 0.522584 1.97814 0
M  V30 1584 H 146.895 -0.877314 3.98456 0
M  V30 1585 H 145.57 0.263004 4.15068 0
M  V30 1586 H 144.147 -1.4271 3.44512 0
M  V30 1587 N 146.332 -1.57332 0.0918853 0
M  V30 1588 C 147.578 -1.94524 -0.573425 0
M  V30 1589 C 147.911 -0.973578 -1.68033 0
M  V30 1590 O 147.186 -0.00609226 -1.94499 0
M  V30 1591 C 147.469 -3.41858 -1.13161 0
M  V30 1592 C 147.322 -4.4979 -0.0299747 0
M  V30 1593 C 148.641 -3.90435 -2.03098 0
M  V30 1594 H 145.76 -0.70734 -0.206975 0
M  V30 1595 H 148.402 -1.89309 0.161942 0
M  V30 1596 H 146.552 -3.46433 -1.7583 0
M  V30 1597 H 148.224 -4.57327 0.604112 0
M  V30 1598 H 146.467 -4.291 0.636833 0
M  V30 1599 H 147.138 -5.50069 -0.461287 0
M  V30 1600 H 149.614 -3.87992 -1.50338 0
M  V30 1601 H 148.49 -4.94097 -2.39081 0
M  V30 1602 H 148.751 -3.29541 -2.94712 0
M  V30 1603 N 147.81 0.181792 -1.56548 0
M  V30 1604 C 149.035 0.920019 -1.85877 0
M  V30 1605 C 149.46 1.75494 -0.677021 0
M  V30 1606 O 148.818 1.77399 0.374056 0
M  V30 1607 C 148.866 1.78112 -3.13542 0
M  V30 1608 O 147.97 2.88152 -2.95029 0
M  V30 1609 H 147.311 0.258334 -0.611686 0
M  V30 1610 H 149.841 0.183092 -2.03779 0
M  V30 1611 H 149.851 2.18314 -3.44678 0
M  V30 1612 H 148.526 1.16777 -3.99169 0
M  V30 1613 H 147.103 2.51609 -2.75222 0
M  V30 1614 N 149.288 1.51039 0.449983 0
M  V30 1615 C 150.513 1.6715 1.22783 0
M  V30 1616 C 150.938 0.363081 1.84563 0
M  V30 1617 O 150.296 -0.675433 1.68249 0
M  V30 1618 C 150.344 2.77985 2.29689 0
M  V30 1619 O 149.448 2.40707 3.34864 0
M  V30 1620 H 148.789 0.557746 0.360299 0
M  V30 1621 H 151.319 1.97535 0.533005 0
M  V30 1622 H 151.329 3.01693 2.74673 0
M  V30 1623 H 150.004 3.72935 1.84098 0
M  V30 1624 H 148.581 2.27523 2.95445 0
M  V30 1625 N 150.766 -0.704594 1.40972 0
M  V30 1626 C 152.015 -1.46018 1.39146 0
M  V30 1627 C 152.328 -1.956 0.000589254 0
M  V30 1628 O 153.534 -2.71137 -0.1403 0
M  V30 1629 C 151.99 -2.63996 2.4461 0
M  V30 1630 C 151.598 -2.21238 3.89561 0
M  V30 1631 C 153.342 -3.41677 2.51907 0
M  V30 1632 C 151.249 -3.3612 4.86598 0
M  V30 1633 H 150.179 -0.548444 0.517422 0
M  V30 1634 H 152.83 -0.765784 1.66757 0
M  V30 1635 H 151.212 -3.3566 2.10115 0
M  V30 1636 H 152.386 -1.56923 4.33257 0
M  V30 1637 H 150.701 -1.56574 3.85841 0
M  V30 1638 H 153.298 -4.27182 3.2159 0
M  V30 1639 H 153.641 -3.86247 1.55303 0
M  V30 1640 H 154.174 -2.77064 2.85448 0
M  V30 1641 H 150.913 -2.96572 5.84573 0
M  V30 1642 H 150.433 -3.99315 4.47557 0
M  V30 1643 H 152.112 -4.02029 5.06934 0
M  V30 1644 N 152.244 -1.26651 -0.937939 0
M  V30 1645 C 153.192 -1.08308 -2.05845 0
M  V30 1646 C 154.186 -0.0090757 -1.69398 0
M  V30 1647 O 155.392 -0.166007 -1.79233 0
M  V30 1648 H 151.767 -0.333416 -0.674046 0
M  V30 1649 H 153.738 -2.03261 -2.18467 0
M  V30 1650 C 152.487 -0.736229 -3.39816 0
M  V30 1651 H 151.81 -1.55453 -3.6834 0
M  V30 1652 H 153.25 -0.64769 -4.19024 0
M  V30 1653 C 151.709 0.558824 -3.32233 0
M  V30 1654 O 152.239 1.59621 -3.68624 0
M  V30 1655 N 150.445 0.550657 -2.85335 0
M  V30 1656 H 149.992 -0.293943 -2.55917 0
M  V30 1657 H 149.95 1.41726 -2.80644 0
M  V30 1658 N 153.722 1.14298 -1.08507 0
M  V30 1659 C 154.999 1.81544 -0.728088 0
M  V30 1660 C 155.379 1.95838 0.78808 0
M  V30 1661 O 154.727 1.51904 1.70697 0
M  V30 1662 C 154.937 3.17169 -1.45619 0
M  V30 1663 C 156.285 3.9265 -1.61591 0
M  V30 1664 O 157.309 3.26762 -1.41793 0
M  V30 1665 O 156.168 5.10807 -1.94263 0
M  V30 1666 H 153.262 0.78491 -0.260471 0
M  V30 1667 H 155.808 1.21307 -1.18671 0
M  V30 1668 H 154.58 3.01934 -2.489 0
M  V30 1669 H 154.203 3.851 -0.989124 0
M  V30 1670 N 155.201 0.870884 1.31352 0
M  V30 1671 C 156.131 0.343096 2.30966 0
M  V30 1672 C 157.112 -0.566507 1.60389 0
M  V30 1673 O 158.297 -0.483336 1.88089 0
M  V30 1674 C 155.427 -0.455487 3.443 0
M  V30 1675 C 154.381 0.361103 4.26474 0
M  V30 1676 C 153.707 -0.563221 5.31725 0
M  V30 1677 C 155.007 1.59566 4.97329 0
M  V30 1678 H 156.701 1.17548 2.75359 0
M  V30 1679 H 154.247 0.566686 1.32381 0
M  V30 1680 H 156.2 -0.83525 4.13039 0
M  V30 1681 H 154.924 -1.32139 2.98675 0
M  V30 1682 H 153.583 0.722825 3.59403 0
M  V30 1683 H 153.231 -1.42643 4.82351 0
M  V30 1684 H 152.931 -0.0207409 5.87596 0
M  V30 1685 H 154.455 -0.939808 6.03324 0
M  V30 1686 H 155.869 1.28728 5.58661 0
M  V30 1687 H 154.266 2.07728 5.63 0
M  V30 1688 H 155.336 2.34798 4.24262 0
M  V30 1689 N 156.679 -1.44442 0.630414 0
M  V30 1690 C 157.907 -2.06414 0.141671 0
M  V30 1691 C 158.322 -1.47105 -1.18345 0
M  V30 1692 O 157.679 -0.593662 -1.72574 0
M  V30 1693 C 157.73 -3.61494 0.0199784 0
M  V30 1694 O 157.451 -4.18594 1.29269 0
M  V30 1695 C 158.952 -4.40499 -0.497544 0
M  V30 1696 H 156.172 -0.666292 0.0793452 0
M  V30 1697 H 158.716 -1.85323 0.864614 0
M  V30 1698 H 156.871 -3.8185 -0.653402 0
M  V30 1699 H 157.285 -5.12026 1.13707 0
M  V30 1700 H 158.759 -5.49433 -0.531708 0
M  V30 1701 H 159.236 -4.11895 -1.52445 0
M  V30 1702 H 159.842 -4.25061 0.142562 0
M  V30 1703 N 158.157 -0.370918 -1.53173 0
M  V30 1704 C 159.434 0.273754 -1.93675 0
M  V30 1705 C 159.814 1.65938 -1.3049 0
M  V30 1706 O 159.162 2.23698 -0.465999 0
M  V30 1707 C 159.372 0.318602 -3.47543 0
M  V30 1708 C 160.72 0.556392 -4.20939 0
M  V30 1709 O 161.744 0.399587 -3.53952 0
M  V30 1710 O 160.603 0.862133 -5.39657 0
M  V30 1711 H 157.697 0.165448 -0.810281 0
M  V30 1712 H 160.243 -0.42409 -1.64315 0
M  V30 1713 H 159.015 -0.652687 -3.85818 0
M  V30 1714 H 158.638 1.06212 -3.83151 0
M  V30 1715 N 159.635 1.57281 -0.100228 0
M  V30 1716 C 160.585 2.10848 0.86759 0
M  V30 1717 C 161.569 1.02473 1.24049 0
M  V30 1718 O 162.761 1.28739 1.21471 0
M  V30 1719 C 159.89 2.69648 2.12474 0
M  V30 1720 C 158.976 3.85074 1.77704 0
M  V30 1721 N 159.367 4.92897 1.13518 0
M  V30 1722 C 157.665 3.94905 2.07282 0
M  V30 1723 C 158.366 5.73475 0.974735 0
M  V30 1724 N 157.342 5.22675 1.4937 0
M  V30 1725 H 161.144 2.91594 0.367471 0
M  V30 1726 H 158.658 1.62074 0.102829 0
M  V30 1727 H 160.655 3.06356 2.82757 0
M  V30 1728 H 159.315 1.90359 2.63047 0
M  V30 1729 H 160.326 5.11662 0.801381 0
M  V30 1730 H 157.003 3.26633 2.60033 0
M  V30 1731 H 158.393 6.70238 0.472364 0
M  V30 1732 N 161.113 -0.173488 1.56642 0
M  V30 1733 C 162.061 -1.23417 1.97157 0
M  V30 1734 C 163.055 -1.45946 0.860013 0
M  V30 1735 O 164.261 -1.46551 1.04512 0
M  V30 1736 H 160.636 -0.414818 0.62724 0
M  V30 1737 H 162.607 -0.865582 2.8557 0
M  V30 1738 C 161.356 -2.5665 2.34576 0
M  V30 1739 H 160.679 -2.40137 3.19647 0
M  V30 1740 H 162.119 -3.2956 2.6677 0
M  V30 1741 C 160.578 -3.15245 1.18836 0
M  V30 1742 O 161.108 -3.98883 0.474869 0
M  V30 1743 N 159.314 -2.74303 0.959497 0
M  V30 1744 H 158.861 -2.0639 1.54146 0
M  V30 1745 H 158.819 -3.13844 0.186932 0
M  V30 1746 N 162.591 -1.51276 -0.441967 0
M  V30 1747 C 163.541 -1.6864 -1.53442 0
M  V30 1748 C 164.525 -0.540444 -1.51552 0
M  V30 1749 O 165.717 -0.796157 -1.58083 0
M  V30 1750 C 162.846 -1.8106 -2.91672 0
M  V30 1751 C 161.932 -3.01424 -2.98336 0
M  V30 1752 N 162.323 -4.2467 -2.74752 0
M  V30 1753 C 160.621 -3.00584 -3.29493 0
M  V30 1754 C 161.322 -5.05891 -2.87139 0
M  V30 1755 N 160.298 -4.40442 -3.18609 0
M  V30 1756 H 164.1 -2.61598 -1.33954 0
M  V30 1757 H 161.614 -1.4886 -0.6492 0
M  V30 1758 H 163.611 -1.91609 -3.70259 0
M  V30 1759 H 162.271 -0.892795 -3.12185 0
M  V30 1760 H 163.282 -4.53691 -2.49769 0
M  V30 1761 H 159.959 -2.18417 -3.55809 0
M  V30 1762 H 161.349 -6.13983 -2.72899 0
M  V30 1763 N 164.069 0.697108 -1.41344 0
M  V30 1764 C 165.346 1.45154 -1.31109 0
M  V30 1765 C 165.726 2.11009 0.0620449 0
M  V30 1766 O 165.074 2.01571 1.07618 0
M  V30 1767 C 165.284 2.47223 -2.46337 0
M  V30 1768 C 166.632 3.1252 -2.87431 0
M  V30 1769 O 167.656 2.57547 -2.46065 0
M  V30 1770 O 166.515 4.12083 -3.58957 0
M  V30 1771 H 163.609 0.646365 -0.515889 0
M  V30 1772 H 166.155 0.727716 -1.53305 0
M  V30 1773 H 164.927 1.97204 -3.37974 0
M  V30 1774 H 164.55 3.27116 -2.2601 0
M  V30 1775 N 165.547 1.27147 0.931209 0
M  V30 1776 C 166.795 1.13055 1.6752 0
M  V30 1777 C 167.116 -0.324791 1.92276 0
M  V30 1778 O 166.386 -1.22775 1.52654 0
M  V30 1779 H 164.966 0.415391 0.620854 0
M  V30 1780 H 167.628 1.59623 1.11833 0
M  V30 1781 H 166.724 1.65694 2.64485 0
M  V30 1782 N 167.025 -1.13721 1.09112 0
M  V30 1783 C 168.253 -1.88773 0.846899 0
M  V30 1784 C 168.668 -1.7896 -0.601572 0
M  V30 1785 O 168.025 -1.15394 -1.41388 0
M  V30 1786 C 168.076 -3.3849 1.26913 0
M  V30 1787 O 167.797 -3.48043 2.66079 0
M  V30 1788 C 169.298 -4.30518 1.05682 0
M  V30 1789 H 166.518 -0.59772 0.304914 0
M  V30 1790 H 169.062 -1.43977 1.45227 0
M  V30 1791 H 167.217 -3.80881 0.707723 0
M  V30 1792 H 167.631 -4.4109 2.83795 0
M  V30 1793 H 169.105 -5.3391 1.40156 0
M  V30 1794 H 169.582 -4.392 -0.00563416 0
M  V30 1795 H 170.188 -3.93893 1.60402 0
M  V30 1796 N 168.503 -0.877838 -1.30888 0
M  V30 1797 C 169.914 -0.544193 -1.78593 0
M  V30 1798 C 170.265 0.939301 -1.72254 0
M  V30 1799 O 169.39 1.7337 -1.29505 0
M  V30 1800 C 169.985 -0.98105 -3.24285 0
M  V30 1801 C 168.544 -0.698935 -3.69854 0
M  V30 1802 C 167.691 -1.168 -2.51502 0
M  V30 1803 H 170.642 -1.06278 -1.17859 0
M  V30 1804 H 170.663 -0.307009 -3.79259 0
M  V30 1805 H 170.175 -2.06079 -3.28866 0
M  V30 1806 H 168.276 0.369112 -3.70767 0
M  V30 1807 H 168.389 -1.28148 -4.61644 0
M  V30 1808 H 166.753 -0.587535 -2.47831 0
M  V30 1809 H 167.536 -2.25533 -2.58824 0
M  V30 1810 N 169.982 1.44106 -0.638065 0
M  V30 1811 C 171.259 1.95453 -0.0759321 0
M  V30 1812 C 171.639 1.57984 1.40015 0
M  V30 1813 O 170.987 0.857361 2.11806 0
M  V30 1814 C 171.197 3.47655 -0.306132 0
M  V30 1815 C 172.545 4.24114 -0.203008 0
M  V30 1816 O 173.569 3.55405 -0.237871 0
M  V30 1817 O 172.428 5.46381 -0.113827 0
M  V30 1818 H 169.522 0.826797 0.0183332 0
M  V30 1819 H 172.068 1.54122 -0.710251 0
M  V30 1820 H 170.84 3.68 -1.3301 0
M  V30 1821 H 170.463 3.95949 0.361991 0
M  V30 1822 N 171.46 0.379036 1.52974 0
M  V30 1823 C 172.685 -0.209353 2.06341 0
M  V30 1824 C 173.11 -1.40583 1.24972 0
M  V30 1825 O 172.468 -1.79246 0.272155 0
M  V30 1826 C 172.516 -0.567786 3.56102 0
M  V30 1827 O 171.62 -1.66318 3.77375 0
M  V30 1828 H 170.961 -0.0272919 0.663439 0
M  V30 1829 H 173.491 0.543536 1.97248 0
M  V30 1830 H 173.501 -0.835003 3.99364 0
M  V30 1831 H 172.176 0.307013 4.14765 0
M  V30 1832 H 170.753 -1.39048 3.46006 0
M  V30 1833 N 172.938 -1.57226 0.108567 0
M  V30 1834 C 173.868 -2.17778 -0.84232 0
M  V30 1835 C 174.849 -1.11487 -1.2847 0
M  V30 1836 O 176.034 -1.39681 -1.34918 0
M  V30 1837 C 173.164 -2.76888 -2.09644 0
M  V30 1838 C 172.118 -3.88669 -1.79221 0
M  V30 1839 C 171.444 -4.34541 -3.11574 0
M  V30 1840 C 172.744 -5.11251 -1.06864 0
M  V30 1841 H 174.438 -2.97489 -0.337774 0
M  V30 1842 H 171.984 -1.43097 -0.161025 0
M  V30 1843 H 173.937 -3.17904 -2.76614 0
M  V30 1844 H 172.661 -1.94451 -2.62405 0
M  V30 1845 H 171.32 -3.48213 -1.14644 0
M  V30 1846 H 170.968 -3.48977 -3.62249 0
M  V30 1847 H 170.668 -5.09914 -2.91996 0
M  V30 1848 H 172.192 -4.782 -3.7968 0
M  V30 1849 H 173.606 -5.49352 -1.63968 0
M  V30 1850 H 172.003 -5.9214 -0.974178 0
M  V30 1851 H 173.073 -4.8487 -0.0536168 0
M  V30 1852 N 174.416 0.165178 -1.56732 0
M  V30 1853 C 175.827 0.727046 -1.71962 0
M  V30 1854 C 176.178 1.82508 -0.720078 0
M  V30 1855 O 175.303 2.16082 0.117242 0
M  V30 1856 C 175.898 1.32559 -3.11791 0
M  V30 1857 C 174.457 1.83422 -3.28684 0
M  V30 1858 C 173.604 0.715567 -2.67908 0
M  V30 1859 H 176.555 -0.0602896 -1.58585 0
M  V30 1860 H 176.576 2.19533 -3.10782 0
M  V30 1861 H 176.088 0.526195 -3.84516 0
M  V30 1862 H 174.189 2.65986 -2.60926 0
M  V30 1863 H 174.302 1.97543 -4.36478 0
M  V30 1864 H 172.666 1.13758 -2.27884 0
M  V30 1865 H 173.449 -0.0720836 -3.43224 0
M  V30 1866 N 175.894 1.51508 0.433938 0
M  V30 1867 C 177.14 1.64588 1.18484 0
M  V30 1868 C 177.473 0.362666 1.90784 0
M  V30 1869 O 176.748 -0.637892 1.83742 0
M  V30 1870 C 177.031 2.85149 2.19913 0
M  V30 1871 C 176.884 4.23456 1.51674 0
M  V30 1872 C 178.203 3.01227 3.20858 0
M  V30 1873 H 175.322 0.598994 0.429389 0
M  V30 1874 H 177.964 1.84002 0.473647 0
M  V30 1875 H 176.114 2.68729 2.80566 0
M  V30 1876 H 177.786 4.51552 0.943322 0
M  V30 1877 H 176.029 4.25998 0.819035 0
M  V30 1878 H 176.7 5.03812 2.2556 0
M  V30 1879 H 179.176 3.16382 2.70263 0
M  V30 1880 H 178.052 3.87141 3.89118 0
M  V30 1881 H 178.313 2.13447 3.8716 0
M  V30 1882 N 177.372 -0.689602 1.41712 0
M  V30 1883 C 178.322 -1.79571 1.40493 0
M  V30 1884 C 179.306 -1.58473 0.278409 0
M  V30 1885 O 180.498 -1.69204 0.519532 0
M  V30 1886 C 177.627 -3.17923 1.29536 0
M  V30 1887 C 176.713 -3.44695 2.47075 0
M  V30 1888 N 177.104 -3.42132 3.72531 0
M  V30 1889 C 175.402 -3.75269 2.41017 0
M  V30 1890 C 176.103 -3.67976 4.50521 0
M  V30 1891 N 175.079 -3.88014 3.80718 0
M  V30 1892 H 178.881 -1.75961 2.35404 0
M  V30 1893 H 176.395 -0.889839 1.35851 0
M  V30 1894 H 178.392 -3.97167 1.26745 0
M  V30 1895 H 177.052 -3.22741 0.356153 0
M  V30 1896 H 178.063 -3.22375 4.05333 0
M  V30 1897 H 174.74 -3.87421 1.55599 0
M  V30 1898 H 176.13 -3.7208 5.59469 0
M  V30 1899 N 178.85 -1.27639 -0.924453 0
M  V30 1900 C 180.096 -1.14336 -1.67497 0
M  V30 1901 C 180.429 0.309465 -1.91718 0
M  V30 1902 O 179.704 1.22608 -1.50989 0
M  V30 1903 C 179.987 -1.93096 -3.0395 0
M  V30 1904 C 179.84 -3.46381 -2.8695 0
M  V30 1905 C 181.159 -1.73798 -4.0433 0
M  V30 1906 H 178.278 -0.416728 -0.607871 0
M  V30 1907 H 180.92 -1.56832 -1.07256 0
M  V30 1908 H 179.07 -1.56982 -3.55372 0
M  V30 1909 H 180.742 -3.92343 -2.42621 0
M  V30 1910 H 178.985 -3.72557 -2.22225 0
M  V30 1911 H 179.656 -3.96735 -3.83804 0
M  V30 1912 H 182.132 -2.05293 -3.61931 0
M  V30 1913 H 181.008 -2.31294 -4.97789 0
M  V30 1914 H 181.269 -0.686725 -4.36734 0
M  V30 1915 N 180.328 1.1314 -1.09713 0
M  V30 1916 C 181.574 1.84757 -0.836224 0
M  V30 1917 C 181.907 1.8347 0.636598 0
M  V30 1918 O 181.182 1.27491 1.46889 0
M  V30 1919 C 181.465 3.32782 -1.37578 0
M  V30 1920 C 181.318 3.42567 -2.91493 0
M  V30 1921 C 182.637 4.28307 -1.01198 0
M  V30 1922 H 179.756 0.67082 -0.305236 0
M  V30 1923 H 182.398 1.3278 -1.35903 0
M  V30 1924 H 180.548 3.77177 -0.931097 0
M  V30 1925 H 182.22 3.06862 -3.44432 0
M  V30 1926 H 180.463 2.83349 -3.28475 0
M  V30 1927 H 181.134 4.46674 -3.24324 0
M  V30 1928 H 183.61 3.91999 -1.39556 0
M  V30 1929 H 182.486 5.30307 -1.41653 0
M  V30 1930 H 182.747 4.42029 0.0794833 0
M  V30 1931 N 181.806 0.884767 1.30421 0
M  V30 1932 C 182.736 0.367574 2.30589 0
M  V30 1933 C 183.717 -0.549464 1.60981 0
M  V30 1934 O 184.902 -0.46336 1.88591 0
M  V30 1935 C 182.032 -0.418944 3.44764 0
M  V30 1936 C 180.986 0.406316 4.26067 0
M  V30 1937 C 180.312 -0.506793 5.32293 0
M  V30 1938 C 181.612 1.64832 4.95608 0
M  V30 1939 H 183.306 1.20462 2.74097 0
M  V30 1940 H 180.852 0.580695 1.31772 0
M  V30 1941 H 182.805 -0.791395 4.13902 0
M  V30 1942 H 181.529 -1.28964 3.0006 0
M  V30 1943 H 180.188 0.760903 3.58617 0
M  V30 1944 H 179.836 -1.37519 4.83836 0
M  V30 1945 H 179.536 0.0415828 5.87585 0
M  V30 1946 H 181.06 -0.875764 6.04287 0
M  V30 1947 H 182.474 1.34646 5.57264 0
M  V30 1948 H 180.871 2.13688 5.60765 0
M  V30 1949 H 181.941 2.39284 4.21748 0
M  V30 1950 N 183.284 -1.43765 0.645699 0
M  V30 1951 C 184.509 -2.06767 0.161883 0
M  V30 1952 C 184.934 -1.48034 -1.16049 0
M  V30 1953 O 184.292 -0.587369 -1.71522 0
M  V30 1954 C 184.34 -3.60519 0.0762003 0
M  V30 1955 O 183.444 -4.00982 -0.963721 0
M  V30 1956 H 182.785 -0.657675 0.091429 0
M  V30 1957 H 185.315 -1.84397 0.886499 0
M  V30 1958 H 185.325 -4.07853 -0.109604 0
M  V30 1959 H 184 -4.02646 1.04157 0
M  V30 1960 H 182.577 -3.65253 -0.751312 0
M  V30 1961 N 184.763 -0.387143 -1.52771 0
M  V30 1962 C 185.693 0.440551 -2.29306 0
M  V30 1963 C 186.674 1.06535 -1.32606 0
M  V30 1964 O 187.859 1.07853 -1.61497 0
M  V30 1965 C 184.989 1.56919 -3.09829 0
M  V30 1966 C 183.943 1.07054 -4.14395 0
M  V30 1967 C 183.269 2.29109 -4.83129 0
M  V30 1968 C 184.569 0.140015 -5.22112 0
M  V30 1969 H 186.263 -0.198026 -2.98744 0
M  V30 1970 H 183.809 -0.09668 -1.43675 0
M  V30 1971 H 185.762 2.15503 -3.62128 0
M  V30 1972 H 184.486 2.23532 -2.3812 0
M  V30 1973 H 183.145 0.507247 -3.63074 0
M  V30 1974 H 182.793 2.94227 -4.0797 0
M  V30 1975 H 182.493 1.96406 -5.53804 0
M  V30 1976 H 184.017 2.88339 -5.38231 0
M  V30 1977 H 185.431 0.633978 -5.69784 0
M  V30 1978 H 183.828 -0.0971485 -6.00021 0
M  V30 1979 H 184.898 -0.811711 -4.78058 0
M  V30 1980 N 186.241 1.57166 -0.116904 0
M  V30 1981 C 187.49 1.94298 0.541407 0
M  V30 1982 C 187.803 1.00236 1.67964 0
M  V30 1983 O 189.009 1.26826 2.40057 0
M  V30 1984 C 187.465 3.45306 1.01449 0
M  V30 1985 C 187.073 4.47899 -0.0951738 0
M  V30 1986 C 188.817 3.91361 1.6443 0
M  V30 1987 C 186.724 5.90083 0.394491 0
M  V30 1988 H 185.654 0.725308 0.206019 0
M  V30 1989 H 188.305 1.82446 -0.196419 0
M  V30 1990 H 186.687 3.52385 1.80667 0
M  V30 1991 H 187.861 4.52486 -0.871374 0
M  V30 1992 H 186.176 4.11583 -0.631505 0
M  V30 1993 H 188.773 4.95004 2.02176 0
M  V30 1994 H 189.116 3.3122 2.52189 0
M  V30 1995 H 189.649 3.87073 0.917559 0
M  V30 1996 H 186.388 6.53974 -0.447004 0
M  V30 1997 H 185.908 5.88921 1.13722 0
M  V30 1998 H 187.587 6.41307 0.856399 0
M  V30 1999 N 187.719 -0.156864 1.56817 0
M  V30 2000 C 188.967 -0.869404 1.82444 0
M  V30 2001 C 189.288 -1.82147 0.69623 0
M  V30 2002 O 188.558 -1.93847 -0.28287 0
M  V30 2003 H 187.138 -0.324043 0.673056 0
M  V30 2004 H 189.8 -0.153224 1.94297 0
M  V30 2005 H 188.896 -1.43761 2.77019 0
M  V30 2006 N 189.197 -1.51736 -0.425897 0
M  V30 2007 C 190.127 -1.76827 -1.52494 0
M  V30 2008 C 191.108 -0.618524 -1.58456 0
M  V30 2009 O 192.293 -0.862416 -1.74 0
M  V30 2010 C 189.423 -1.90374 -2.90474 0
M  V30 2011 C 188.377 -3.0588 -2.99369 0
M  V30 2012 C 187.703 -3.04625 -4.3944 0
M  V30 2013 C 189.003 -4.45644 -2.72394 0
M  V30 2014 H 190.697 -2.68855 -1.31748 0
M  V30 2015 H 188.243 -1.29372 -0.632362 0
M  V30 2016 H 190.196 -2.0651 -3.6733 0
M  V30 2017 H 188.92 -0.95004 -3.12477 0
M  V30 2018 H 187.579 -2.89467 -2.24954 0
M  V30 2019 H 187.227 -2.0701 -4.58428 0
M  V30 2020 H 186.927 -3.82195 -4.46319 0
M  V30 2021 H 188.451 -3.22869 -5.18255 0
M  V30 2022 H 189.865 -4.62348 -3.38979 0
M  V30 2023 H 188.262 -5.25006 -2.9067 0
M  V30 2024 H 189.332 -4.54893 -1.67929 0
M  V30 2025 N 190.675 0.682077 -1.42076 0
M  V30 2026 C 191.638 1.77756 -1.44691 0
M  V30 2027 C 192.638 1.5726 -0.335535 0
M  V30 2028 O 193.828 1.63686 -0.596037 0
M  V30 2029 C 190.96 3.16301 -1.27146 0
M  V30 2030 H 192.153 1.76826 -2.42224 0
M  V30 2031 H 189.706 0.891012 -1.28416 0
M  V30 2032 H 190.441 3.22862 -0.305075 0
M  V30 2033 H 190.226 3.32581 -2.07683 0
M  V30 2034 H 191.716 3.96241 -1.31843 0
M  V30 2035 N 192.153 1.28127 0.917671 0
M  V30 2036 C 193.083 1.14248 2.03641 0
M  V30 2037 C 194.064 0.0412748 1.7005 0
M  V30 2038 O 195.249 0.217566 1.92977 0
M  V30 2039 C 192.379 0.799431 3.37974 0
M  V30 2040 C 191.333 1.85497 3.85713 0
M  V30 2041 C 190.659 1.36565 5.16966 0
M  V30 2042 C 191.959 3.26085 4.08002 0
M  V30 2043 H 193.653 2.07835 2.15511 0
M  V30 2044 H 191.199 1.00064 1.03553 0
M  V30 2045 H 193.152 0.689114 4.15727 0
M  V30 2046 H 191.876 -0.172145 3.26146 0
M  V30 2047 H 190.535 1.95437 3.10161 0
M  V30 2048 H 190.183 0.383253 5.01538 0
M  V30 2049 H 189.883 2.07143 5.49878 0
M  V30 2050 H 191.407 1.26848 5.97279 0
M  V30 2051 H 192.821 3.19089 4.76293 0
M  V30 2052 H 191.218 3.94462 4.52238 0
M  V30 2053 H 192.288 3.70394 3.12948 0
M  V30 2054 N 193.631 -1.12557 1.10312 0
M  V30 2055 C 194.88 -1.83395 0.839588 0
M  V30 2056 C 195.193 -1.84939 -0.636929 0
M  V30 2057 O 196.399 -2.51761 -1.01631 0
M  V30 2058 C 194.855 -3.29303 1.45215 0
M  V30 2059 C 194.463 -3.36122 2.96186 0
M  V30 2060 C 196.207 -4.05121 1.26796 0
M  V30 2061 C 194.114 -4.76357 3.50483 0
M  V30 2062 H 193.044 -0.687133 0.310425 0
M  V30 2063 H 195.695 -1.26746 1.32694 0
M  V30 2064 H 194.077 -3.85812 0.892469 0
M  V30 2065 H 195.251 -2.89559 3.58458 0
M  V30 2066 H 193.566 -2.73776 3.13745 0
M  V30 2067 H 196.163 -5.08668 1.64806 0
M  V30 2068 H 196.506 -4.15773 0.209409 0
M  V30 2069 H 197.039 -3.54967 1.79563 0
M  V30 2070 H 193.778 -4.70899 4.55998 0
M  V30 2071 H 193.298 -5.23377 2.92978 0
M  V30 2072 H 194.977 -5.45294 3.48228 0
M  V30 2073 N 195.109 -0.891671 -1.2995 0
M  V30 2074 C 196.072 -0.36828 -2.26222 0
M  V30 2075 C 197.072 0.493014 -1.53056 0
M  V30 2076 O 198.262 0.299213 -1.71611 0
M  V30 2077 C 195.394 0.47442 -3.37583 0
M  V30 2078 H 196.587 -1.21844 -2.74033 0
M  V30 2079 H 194.14 -0.669107 -1.41254 0
M  V30 2080 H 194.875 1.34489 -2.95099 0
M  V30 2081 H 194.66 -0.142615 -3.91841 0
M  V30 2082 H 196.15 0.83218 -4.09224 0
M  V30 2083 N 196.587 1.43421 -0.653314 0
M  V30 2084 C 197.517 2.33487 0.0246656 0
M  V30 2085 C 198.498 1.49475 0.811863 0
M  V30 2086 O 199.683 1.78139 0.773322 0
M  V30 2087 C 196.813 3.32841 0.99166 0
M  V30 2088 C 195.767 4.26842 0.314568 0
M  V30 2089 C 195.093 5.16236 1.39302 0
M  V30 2090 C 196.393 5.16243 -0.793095 0
M  V30 2091 H 198.087 2.90427 -0.727481 0
M  V30 2092 H 195.633 1.39649 -0.351287 0
M  V30 2093 H 197.586 3.94747 1.47487 0
M  V30 2094 H 196.31 2.74158 1.77497 0
M  V30 2095 H 194.969 3.663 -0.148199 0
M  V30 2096 H 194.617 4.53891 2.16776 0
M  V30 2097 H 194.317 5.79948 0.945223 0
M  V30 2098 H 195.841 5.81015 1.87759 0
M  V30 2099 H 197.255 5.71958 -0.392039 0
M  V30 2100 H 195.652 5.88676 -1.16536 0
M  V30 2101 H 196.722 4.55927 -1.65103 0
M  V30 2102 N 198.065 0.39524 1.52563 0
M  V30 2103 C 199.313 -0.184678 2.01254 0
M  V30 2104 C 199.634 -1.46822 1.28329 0
M  V30 2105 O 198.904 -1.91666 0.405094 0
M  V30 2106 H 197.484 -0.0712355 0.743596 0
M  V30 2107 H 200.146 0.528293 1.87603 0
M  V30 2108 H 199.242 -0.390681 3.09645 0
M  V30 2109 N 199.544 -1.57102 0.125237 0
M  V30 2110 C 200.772 -1.99761 -0.538797 0
M  V30 2111 C 201.187 -1.00503 -1.59827 0
M  V30 2112 O 200.544 0.00119474 -1.825 0
M  V30 2113 C 200.595 -3.42408 -1.15927 0
M  V30 2114 O 200.316 -4.37869 -0.142143 0
M  V30 2115 C 201.817 -4.00232 -1.90602 0
M  V30 2116 H 199.037 -0.655772 -0.14214 0
M  V30 2117 H 201.581 -2.03383 0.213413 0
M  V30 2118 H 199.736 -3.39706 -1.86223 0
M  V30 2119 H 200.15 -5.21128 -0.593775 0
M  V30 2120 H 201.624 -5.02105 -2.29335 0
M  V30 2121 H 202.101 -3.39721 -2.78363 0
M  V30 2122 H 202.707 -4.06499 -1.25055 0
M  V30 2123 N 201.022 0.148545 -1.56898 0
M  V30 2124 C 202.27 0.859717 -1.82902 0
M  V30 2125 C 202.591 1.81775 -0.70588 0
M  V30 2126 O 201.861 1.93994 0.272586 0
M  V30 2127 H 200.441 0.320469 -0.674766 0
M  V30 2128 H 203.103 0.142918 -1.94375 0
M  V30 2129 H 202.199 1.4229 -2.77777 0
M  V30 2130 N 202.5 1.5196 0.417844 0
M  V30 2131 C 203.748 1.65263 1.16329 0
M  V30 2132 C 204.069 0.380634 1.91249 0
M  V30 2133 O 203.339 -0.604214 1.86349 0
M  V30 2134 H 201.919 0.60912 0.432414 0
M  V30 2135 H 204.581 1.88969 0.477162 0
M  V30 2136 H 203.677 2.4896 1.88217 0
M  V30 2137 N 203.978 -0.674533 1.42435 0
M  V30 2138 C 205.227 -1.43034 1.42212 0
M  V30 2139 C 205.54 -1.95555 0.0420788 0
M  V30 2140 O 206.746 -2.71374 -0.0827558 0
M  V30 2141 C 205.202 -2.58748 2.50155 0
M  V30 2142 C 204.81 -2.12925 3.94166 0
M  V30 2143 C 206.554 -3.36257 2.59098 0
M  V30 2144 C 204.461 -3.25723 4.93618 0
M  V30 2145 H 203.391 -0.537345 0.528939 0
M  V30 2146 H 206.042 -0.73024 1.68344 0
M  V30 2147 H 204.424 -3.31128 2.17188 0
M  V30 2148 H 205.598 -1.47697 4.36488 0
M  V30 2149 H 203.913 -1.48354 3.89076 0
M  V30 2150 H 206.51 -4.20264 3.30578 0
M  V30 2151 H 206.853 -3.82866 1.63461 0
M  V30 2152 H 207.386 -2.70947 2.9126 0
M  V30 2153 H 204.125 -2.84105 5.90732 0
M  V30 2154 H 203.645 -3.89732 4.55926 0
M  V30 2155 H 205.324 -3.91186 5.15347 0
M  V30 2156 N 205.456 -1.28612 -0.910864 0
M  V30 2157 C 206.403 -1.12786 -2.01365 0
M  V30 2158 C 207.373 -0.024201 -1.66082 0
M  V30 2159 O 208.558 -0.189667 -1.89855 0
M  V30 2160 C 205.698 -0.798743 -3.35729 0
M  V30 2161 C 204.811 -1.98173 -3.83864 0
M  V30 2162 C 203.946 -1.59298 -5.06752 0
M  V30 2163 C 202.985 -2.74245 -5.47226 0
M  V30 2164 N 202.122 -2.35842 -6.61304 0
M  V30 2165 H 206.962 -2.07142 -2.14234 0
M  V30 2166 H 204.499 -1.03093 -1.0493 0
M  V30 2167 H 206.457 -0.588662 -4.13026 0
M  V30 2168 H 205.087 0.10789 -3.2262 0
M  V30 2169 H 204.139 -2.30386 -3.02699 0
M  V30 2170 H 205.451 -2.84343 -4.09818 0
M  V30 2171 H 204.605 -1.34513 -5.916 0
M  V30 2172 H 203.344 -0.702618 -4.82612 0
M  V30 2173 H 202.349 -2.99725 -4.60918 0
M  V30 2174 H 203.574 -3.63928 -5.73353 0
M  V30 2175 H 201.52 -1.49279 -6.38789 0
M  V30 2176 H 201.437 -3.15546 -6.86998 0
M  V30 2177 H 202.705 -2.14348 -7.4945 0
M  V30 2178 N 206.934 1.1197 -1.10907 0
M  V30 2179 C 208.345 1.65114 -0.871446 0
M  V30 2180 C 208.696 1.86885 0.597353 0
M  V30 2181 O 207.821 1.59896 1.45816 0
M  V30 2182 C 208.416 2.99944 -1.5754 0
M  V30 2183 C 206.975 3.50018 -1.38435 0
M  V30 2184 C 206.122 2.24941 -1.62164 0
M  V30 2185 H 209.073 0.956851 -1.2661 0
M  V30 2186 H 209.094 3.66651 -1.01721 0
M  V30 2187 H 208.606 2.84067 -2.64438 0
M  V30 2188 H 206.707 3.71071 -0.337214 0
M  V30 2189 H 206.82 4.29165 -2.12965 0
M  V30 2190 H 205.184 2.3229 -1.04467 0
M  V30 2191 H 205.967 2.11612 -2.70324 0
M  V30 2192 N 208.412 0.89855 1.29475 0
M  V30 2193 C 209.652 0.530771 1.97388 0
M  V30 2194 C 210.016 -0.905832 1.69289 0
M  V30 2195 O 211.217 -1.38042 2.30646 0
M  V30 2196 C 209.488 0.81369 3.48014 0
M  V30 2197 S 211.047 0.550048 4.35339 0
M  V30 2198 H 207.865 0.196956 0.683176 0
M  V30 2199 H 210.467 1.16074 1.57312 0
M  V30 2200 H 209.171 1.85749 3.65958 0
M  V30 2201 H 208.702 0.171795 3.93025 0
M  V30 2202 H 210.717 -0.605423 4.92493 0
M  V30 2203 N 209.89 -1.43072 0.660911 0
M  V30 2204 C 211.136 -2.0202 0.177708 0
M  V30 2205 C 211.469 -1.52066 -1.20787 0
M  V30 2206 O 210.744 -0.716987 -1.80802 0
M  V30 2207 C 211.027 -3.59561 0.197019 0
M  V30 2208 C 210.88 -4.19727 1.61706 0
M  V30 2209 C 212.199 -4.37664 -0.462396 0
M  V30 2210 H 209.318 -0.734034 0.0660494 0
M  V30 2211 H 211.96 -1.70272 0.843058 0
M  V30 2212 H 210.11 -3.86739 -0.369527 0
M  V30 2213 H 211.782 -4.03553 2.23479 0
M  V30 2214 H 210.025 -3.76084 2.16201 0
M  V30 2215 H 210.696 -5.28834 1.58237 0
M  V30 2216 H 213.172 -4.16095 0.0197215 0
M  V30 2217 H 212.048 -5.47305 -0.418188 0
M  V30 2218 H 212.309 -4.14493 -1.53778 0
M  V30 2219 N 211.368 -0.403325 -1.52352 0
M  V30 2220 C 212.593 0.176499 -2.06648 0
M  V30 2221 C 213.018 1.38577 -1.27193 0
M  V30 2222 O 212.376 1.7879 -0.300637 0
M  V30 2223 C 212.424 0.511061 -3.5696 0
M  V30 2224 O 211.528 1.60294 -3.79973 0
M  V30 2225 H 210.869 0.0167337 -0.663789 0
M  V30 2226 H 213.399 -0.574848 -1.96359 0
M  V30 2227 H 213.409 0.771362 -4.00642 0
M  V30 2228 H 212.084 -0.37296 -4.14224 0
M  V30 2229 H 210.661 1.33526 -3.48174 0
M  V30 2230 N 212.846 1.57033 -0.133567 0
M  V30 2231 C 213.809 2.14897 0.796995 0
M  V30 2232 C 214.809 1.0874 1.18458 0
M  V30 2233 O 215.999 1.34446 1.1077 0
M  V30 2234 C 213.131 2.70112 2.07973 0
M  V30 2235 H 214.324 2.98457 0.293873 0
M  V30 2236 H 211.877 1.55871 0.115787 0
M  V30 2237 H 212.612 1.9018 2.62682 0
M  V30 2238 H 212.397 3.47764 1.81115 0
M  V30 2239 H 213.887 3.14738 2.74462 0
M  V30 2240 N 214.325 -0.140222 1.56975 0
M  V30 2241 C 215.572 -0.851687 1.83719 0
M  V30 2242 C 215.9 -1.80862 0.715485 0
M  V30 2243 O 215.155 -1.93464 -0.294956 0
M  V30 2244 C 215.454 -1.65386 3.16832 0
M  V30 2245 C 215.12 -0.843112 4.42947 0
M  V30 2246 C 213.782 -0.619464 4.77196 0
M  V30 2247 C 216.134 -0.276582 5.20466 0
M  V30 2248 C 213.462 0.181312 5.8642 0
M  V30 2249 C 215.814 0.51127 6.30531 0
M  V30 2250 C 214.478 0.745432 6.63325 0
M  V30 2251 H 213.748 -0.311654 0.672274 0
M  V30 2252 H 216.395 -0.115006 1.91154 0
M  V30 2253 H 214.7 -2.46084 3.04877 0
M  V30 2254 H 216.397 -2.20793 3.34741 0
M  V30 2255 H 212.987 -1.0275 4.16101 0
M  V30 2256 H 217.171 -0.436632 4.94376 0
M  V30 2257 H 212.427 0.372165 6.10266 0
M  V30 2258 H 216.601 0.957354 6.89788 0
M  V30 2259 H 214.228 1.36778 7.47794 0
M  V30 2260 N 215.803 -1.52179 -0.40978 0
M  V30 2261 C 217.051 -1.65878 -1.15451 0
M  V30 2262 C 217.372 -0.390771 -1.91044 0
M  V30 2263 O 216.642 0.594323 -1.86667 0
M  V30 2264 H 215.222 -0.611405 -0.429177 0
M  V30 2265 H 217.884 -1.89219 -0.467134 0
M  V30 2266 H 216.98 -2.49954 -1.86894 0
M  V30 2267 N 217.281 0.66697 -1.42791 0
M  V30 2268 C 218.529 1.42417 -1.43394 0
M  V30 2269 C 218.85 1.94925 -0.0542373 0
M  V30 2270 O 218.12 1.73564 0.908415 0
M  V30 2271 H 216.7 0.528515 -0.527902 0
M  V30 2272 H 219.362 0.787562 -1.78279 0
M  V30 2273 H 218.458 2.27333 -2.13837 0
M  V30 2274 N 218.759 1.29093 0.90403 0
M  V30 2275 C 220.036 1.075 1.63411 0
M  V30 2276 C 220.416 -0.382346 2.07609 0
M  V30 2277 O 219.764 -1.37031 1.82851 0
M  V30 2278 C 219.974 2.05858 2.81822 0
M  V30 2279 C 221.322 2.36539 3.52611 0
M  V30 2280 O 222.346 2.04019 2.91984 0
M  V30 2281 O 221.205 2.92085 4.61897 0
M  V30 2282 H 218.299 0.411547 0.717327 0
M  V30 2283 H 220.845 1.40449 0.952479 0
M  V30 2284 H 219.617 3.04037 2.46327 0
M  V30 2285 H 219.24 1.73613 3.57693 0
M  V30 2286 N 220.237 -1.11381 1.11499 0
M  V30 2287 C 221.169 -2.17207 0.731704 0
M  V30 2288 C 222.182 -1.61066 -0.236957 0
M  V30 2289 O 223.371 -1.78489 -0.0197591 0
M  V30 2290 C 220.471 -3.38846 0.0607624 0
M  V30 2291 C 219.644 -4.24451 1.0564 0
M  V30 2292 C 218.703 -5.24562 0.4149 0
M  V30 2293 O 217.729 -5.59071 1.069 0
M  V30 2294 N 218.931 -5.74651 -0.821943 0
M  V30 2295 H 221.696 -2.50699 1.64225 0
M  V30 2296 H 219.257 -1.26908 1.00529 0
M  V30 2297 H 221.249 -4.02911 -0.380139 0
M  V30 2298 H 219.819 -3.03411 -0.752376 0
M  V30 2299 H 219.039 -3.56833 1.67524 0
M  V30 2300 H 220.327 -4.78486 1.72998 0
M  V30 2301 H 219.725 -5.48797 -1.37252 0
M  V30 2302 H 218.282 -6.40549 -1.20582 0
M  V30 2303 N 221.715 -0.905404 -1.28997 0
M  V30 2304 C 222.962 -0.534248 -1.95325 0
M  V30 2305 C 223.29 0.920535 -1.71337 0
M  V30 2306 O 222.545 1.66861 -1.02254 0
M  V30 2307 C 222.844 -0.779906 -3.48787 0
M  V30 2308 C 222.51 -2.21293 -3.92861 0
M  V30 2309 C 221.172 -2.60475 -4.04606 0
M  V30 2310 C 223.524 -3.14587 -4.15553 0
M  V30 2311 C 220.852 -3.9212 -4.36416 0
M  V30 2312 C 223.204 -4.45787 -4.48839 0
M  V30 2313 C 221.868 -4.84834 -4.58794 0
M  V30 2314 H 221.138 -0.195495 -0.714747 0
M  V30 2315 H 223.785 -1.14514 -1.53488 0
M  V30 2316 H 222.09 -0.0861365 -3.91705 0
M  V30 2317 H 223.787 -0.472029 -3.98212 0
M  V30 2318 H 220.377 -1.89887 -3.84241 0
M  V30 2319 H 224.561 -2.85528 -4.0594 0
M  V30 2320 H 219.817 -4.22086 -4.42327 0
M  V30 2321 H 223.991 -5.18098 -4.65346 0
M  V30 2322 H 221.618 -5.86877 -4.83197 0
M  V30 2323 N 223.193 1.4272 -0.668489 0
M  V30 2324 C 224.103 2.34596 0.0139753 0
M  V30 2325 C 225.119 1.5474 0.795703 0
M  V30 2326 O 226.295 1.87334 0.739466 0
M  V30 2327 C 223.36 3.33202 0.957982 0
M  V30 2328 C 222.421 4.28957 0.17149 0
M  V30 2329 C 221.654 5.22853 1.07053 0
M  V30 2330 O 221.877 5.21531 2.31001 0
M  V30 2331 O 220.811 5.9952 0.534727 0
M  V30 2332 H 224.637 2.9448 -0.742661 0
M  V30 2333 H 222.222 1.43117 -0.428705 0
M  V30 2334 H 224.104 3.93796 1.50008 0
M  V30 2335 H 222.779 2.758 1.69458 0
M  V30 2336 H 221.686 3.71796 -0.414558 0
M  V30 2337 H 223.019 4.89383 -0.52586 0
M  V30 2338 N 224.671 0.411399 1.52136 0
M  V30 2339 C 225.581 -0.419774 2.30814 0
M  V30 2340 C 226.597 -1.0515 1.38634 0
M  V30 2341 O 227.773 -1.05252 1.71709 0
M  V30 2342 C 224.838 -1.52019 3.11594 0
M  V30 2343 C 223.899 -0.91129 4.19516 0
M  V30 2344 C 223.132 -1.95927 4.96436 0
M  V30 2345 O 223.355 -3.17775 4.73683 0
M  V30 2346 O 222.289 -1.56423 5.81219 0
M  V30 2347 H 226.115 0.221805 3.02889 0
M  V30 2348 H 223.7 0.174547 1.48377 0
M  V30 2349 H 225.582 -2.15898 3.61892 0
M  V30 2350 H 224.257 -2.14633 2.42311 0
M  V30 2351 H 223.164 -0.235157 3.7336 0
M  V30 2352 H 224.497 -0.32904 4.91099 0
M  V30 2353 N 226.149 -1.5696 0.141893 0
M  V30 2354 C 227.397 -1.95573 -0.509484 0
M  V30 2355 C 227.718 -1.02746 -1.65736 0
M  V30 2356 O 226.988 -0.0880311 -1.95702 0
M  V30 2357 H 225.568 -0.722115 -0.191205 0
M  V30 2358 H 228.23 -1.93697 0.216196 0
M  V30 2359 H 227.326 -2.99171 -0.889 0
M  V30 2360 N 227.627 0.131896 -1.57047 0
M  V30 2361 C 228.559 1.1878 -1.9602 0
M  V30 2362 C 229.572 1.38363 -0.857875 0
M  V30 2363 O 230.761 1.37666 -1.13623 0
M  V30 2364 C 227.861 2.55008 -2.23213 0
M  V30 2365 C 227.034 2.56201 -3.54513 0
M  V30 2366 C 226.093 3.7408 -3.70069 0
M  V30 2367 O 225.119 3.58258 -4.42312 0
M  V30 2368 N 226.321 4.92137 -3.07866 0
M  V30 2369 H 229.086 0.85639 -2.87204 0
M  V30 2370 H 226.647 0.321309 -1.5868 0
M  V30 2371 H 228.639 3.32404 -2.30846 0
M  V30 2372 H 227.209 2.80382 -1.3822 0
M  V30 2373 H 226.429 1.64613 -3.58185 0
M  V30 2374 H 227.717 2.54043 -4.4084 0
M  V30 2375 H 227.115 5.07895 -2.49116 0
M  V30 2376 H 225.672 5.67254 -3.21039 0
M  V30 2377 N 229.106 1.52395 0.401703 0
M  V30 2378 C 230.016 1.7917 1.51444 0
M  V30 2379 C 231.032 0.677691 1.6026 0
M  V30 2380 O 232.208 0.963909 1.76835 0
M  V30 2381 C 229.273 1.94347 2.87107 0
M  V30 2382 C 228.334 3.18257 2.88116 0
M  V30 2383 C 227.567 3.32701 4.17308 0
M  V30 2384 O 227.79 2.52238 5.11598 0
M  V30 2385 O 226.724 4.25891 4.25324 0
M  V30 2386 H 230.55 2.73633 1.31752 0
M  V30 2387 H 228.135 1.3733 0.588296 0
M  V30 2388 H 230.017 2.06109 3.67555 0
M  V30 2389 H 228.692 1.03073 3.06851 0
M  V30 2390 H 227.599 3.11947 2.06494 0
M  V30 2391 H 228.932 4.09336 2.73322 0
M  V30 2392 N 230.584 -0.659388 1.43143 0
M  V30 2393 C 231.531 -1.77249 1.47822 0
M  V30 2394 C 232.501 -1.62818 0.328558 0
M  V30 2395 O 233.686 -1.83151 0.534838 0
M  V30 2396 C 230.826 -3.15371 1.40126 0
M  V30 2397 C 229.939 -3.4098 2.65249 0
M  V30 2398 C 229.074 -4.68915 2.49584 0
M  V30 2399 C 228.113 -4.87608 3.70006 0
M  V30 2400 N 227.25 -6.06796 3.53189 0
M  V30 2401 H 232.09 -1.72584 2.42938 0
M  V30 2402 H 229.627 -0.842297 1.20598 0
M  V30 2403 H 231.585 -3.9521 1.33659 0
M  V30 2404 H 230.215 -3.19121 0.485964 0
M  V30 2405 H 229.267 -2.55282 2.8202 0
M  V30 2406 H 230.579 -3.50681 3.54717 0
M  V30 2407 H 229.733 -5.56871 2.4079 0
M  V30 2408 H 228.472 -4.61524 1.5763 0
M  V30 2409 H 227.477 -3.9809 3.79215 0
M  V30 2410 H 228.702 -4.96834 4.62961 0
M  V30 2411 H 226.648 -6.00549 2.63965 0
M  V30 2412 H 226.565 -6.17428 4.36255 0
M  V30 2413 H 227.833 -6.9739 3.48236 0
M  V30 2414 N 232.062 -1.29571 -0.897171 0
M  V30 2415 C 232.994 -1.10724 -2.00681 0
M  V30 2416 C 234.007 -0.0540026 -1.6271 0
M  V30 2417 O 235.196 -0.298783 -1.75982 0
M  V30 2418 C 232.296 -0.663912 -3.32333 0
M  V30 2419 C 231.469 -1.79622 -3.98816 0
M  V30 2420 C 230.528 -1.34349 -5.0876 0
M  V30 2421 O 229.554 -2.04864 -5.31055 0
M  V30 2422 N 230.756 -0.215764 -5.80099 0
M  V30 2423 H 233.521 -2.06291 -2.17403 0
M  V30 2424 H 231.082 -1.21544 -1.06951 0
M  V30 2425 H 233.074 -0.344295 -4.03233 0
M  V30 2426 H 231.644 0.199375 -3.11964 0
M  V30 2427 H 230.864 -2.28459 -3.21248 0
M  V30 2428 H 232.152 -2.55535 -4.39976 0
M  V30 2429 H 231.55 0.372091 -5.64475 0
M  V30 2430 H 230.107 0.0444707 -6.51785 0
M  V30 2431 N 233.54 1.10788 -1.12088 0
M  V30 2432 C 234.956 1.34691 -0.856186 0
M  V30 2433 C 235.156 1.94791 0.515615 0
M  V30 2434 O 234.212 2.18524 1.26505 0
M  V30 2435 C 235.525 2.27208 -1.9697 0
M  V30 2436 C 237.073 2.40755 -2.00016 0
M  V30 2437 C 237.548 3.36598 -3.1059 0
M  V30 2438 N 239.039 3.44164 -3.10008 0
M  V30 2439 C 239.774 4.18284 -3.92206 0
M  V30 2440 N 239.27 4.95322 -4.84384 0
M  V30 2441 N 241.063 4.13865 -3.80357 0
M  V30 2442 H 233.214 0.70144 -2.00483 0
M  V30 2443 H 235.477 0.371405 -0.872217 0
M  V30 2444 H 235.183 1.90251 -2.958 0
M  V30 2445 H 235.057 3.27485 -1.87172 0
M  V30 2446 H 237.444 2.76982 -1.01808 0
M  V30 2447 H 237.525 1.40305 -2.13888 0
M  V30 2448 H 237.169 3.01096 -4.09028 0
M  V30 2449 H 237.099 4.36918 -2.93956 0
M  V30 2450 H 239.59 2.8922 -2.43228 0
M  V30 2451 H 239.903 5.49267 -5.43623 0
M  V30 2452 H 238.248 4.94459 -4.884 0
M  V30 2453 H 241.439 3.52773 -3.07683 0
M  V30 2454 H 241.612 4.71372 -4.44649 0
M  V30 2455 N 235.018 0.912232 1.28515 0
M  V30 2456 C 235.966 0.389597 2.29314 0
M  V30 2457 C 236.96 -0.517915 1.61289 0
M  V30 2458 O 238.166 -0.399328 1.75515 0
M  V30 2459 H 234.541 0.107386 0.744293 0
M  V30 2460 H 236.512 1.25286 2.70825 0
M  V30 2461 C 235.261 -0.356496 3.45868 0
M  V30 2462 H 234.584 0.332608 3.98414 0
M  V30 2463 H 236.024 -0.686851 4.184 0
M  V30 2464 C 234.483 -1.56383 2.98406 0
M  V30 2465 O 235.013 -2.66294 3.00749 0
M  V30 2466 N 233.219 -1.41029 2.54085 0
M  V30 2467 H 232.766 -0.516089 2.52377 0
M  V30 2468 H 232.724 -2.21939 2.22689 0
M  V30 2469 N 236.496 -1.42363 0.676048 0
M  V30 2470 C 237.912 -1.55811 0.345718 0
M  V30 2471 C 238.112 -1.65544 -1.14879 0
M  V30 2472 O 237.168 -1.62306 -1.93424 0
M  V30 2473 C 238.481 -2.80746 1.07713 0
M  V30 2474 C 240.029 -2.9452 1.05958 0
M  V30 2475 C 240.504 -4.22318 1.77233 0
M  V30 2476 N 241.995 -4.29233 1.74108 0
M  V30 2477 C 242.73 -5.26935 2.26113 0
M  V30 2478 N 242.226 -6.30783 2.86505 0
M  V30 2479 N 244.019 -5.18741 2.1648 0
M  V30 2480 H 236.17 -1.34289 1.6456 0
M  V30 2481 H 238.433 -0.646506 0.69335 0
M  V30 2482 H 238.139 -2.79696 2.13221 0
M  V30 2483 H 238.013 -3.71676 0.64316 0
M  V30 2484 H 240.4 -2.95097 0.0128255 0
M  V30 2485 H 240.481 -2.04817 1.53244 0
M  V30 2486 H 240.125 -4.22502 2.81877 0
M  V30 2487 H 240.055 -5.10958 1.27396 0
M  V30 2488 H 242.546 -3.54814 1.30059 0
M  V30 2489 H 242.859 -7.01691 3.23805 0
M  V30 2490 H 241.204 -6.31341 2.90575 0
M  V30 2491 H 244.395 -4.36533 1.68987 0
M  V30 2492 H 244.568 -5.94721 2.57316 0
M  V30 2493 N 237.974 -0.419461 -1.51915 0
M  V30 2494 C 239.221 0.152939 -2.01922 0
M  V30 2495 C 239.549 1.4426 -1.30458 0
M  V30 2496 O 238.804 1.91514 -0.402593 0
M  V30 2497 C 239.103 0.437067 -3.54717 0
M  V30 2498 C 238.769 -0.764632 -4.44369 0
M  V30 2499 C 237.431 -1.09423 -4.68594 0
M  V30 2500 C 239.783 -1.56713 -4.97082 0
M  V30 2501 C 237.111 -2.22732 -5.42777 0
M  V30 2502 C 239.463 -2.69107 -5.72507 0
M  V30 2503 C 238.127 -3.02541 -5.95 0
M  V30 2504 H 237.397 0.0559644 -0.738884 0
M  V30 2505 H 240.044 -0.562998 -1.83037 0
M  V30 2506 H 238.349 1.23469 -3.71837 0
M  V30 2507 H 240.046 0.893083 -3.90928 0
M  V30 2508 H 236.636 -0.497775 -4.257 0
M  V30 2509 H 240.82 -1.32571 -4.78266 0
M  V30 2510 H 236.076 -2.48971 -5.58411 0
M  V30 2511 H 240.25 -3.31671 -6.12346 0
M  V30 2512 H 237.877 -3.90457 -6.52264 0
M  V30 2513 N 239.452 1.56882 -0.150215 0
M  V30 2514 C 240.699 1.96228 0.500093 0
M  V30 2515 C 241.027 1.03522 1.64661 0
M  V30 2516 O 240.282 0.0650683 1.95592 0
M  V30 2517 C 240.581 3.41801 1.04437 0
M  V30 2518 C 240.247 4.50897 0.0159671 0
M  V30 2519 C 238.909 4.8046 -0.266731 0
M  V30 2520 C 241.261 5.16703 -0.683192 0
M  V30 2521 C 238.589 5.73135 -1.25434 0
M  V30 2522 C 240.941 6.10441 -1.65964 0
M  V30 2523 C 239.605 6.38382 -1.95 0
M  V30 2524 H 238.875 0.718048 0.182997 0
M  V30 2525 H 241.522 1.90019 -0.237724 0
M  V30 2526 H 239.827 3.44857 1.85959 0
M  V30 2527 H 241.524 3.69573 1.55618 0
M  V30 2528 H 238.114 4.27891 0.246485 0
M  V30 2529 H 242.298 4.93993 -0.477983 0
M  V30 2530 H 237.554 5.93074 -1.48571 0
M  V30 2531 H 241.728 6.60507 -2.20689 0
M  V30 2532 H 239.355 7.09996 -2.71679 0
M  V30 2533 N 240.93 -0.123565 1.57115 0
M  V30 2534 C 242.155 -0.850398 1.89164 0
M  V30 2535 C 242.58 -1.7286 0.741688 0
M  V30 2536 O 241.938 -1.78665 -0.307958 0
M  V30 2537 C 241.986 -1.66353 3.19936 0
M  V30 2538 O 241.09 -2.77004 3.0552 0
M  V30 2539 H 240.431 -0.235454 0.620852 0
M  V30 2540 H 242.961 -0.107335 2.04318 0
M  V30 2541 H 242.971 -2.05372 3.52543 0
M  V30 2542 H 241.646 -1.01881 4.03228 0
M  V30 2543 H 240.223 -2.41221 2.84371 0
M  V30 2544 N 242.408 -1.52605 -0.393616 0
M  V30 2545 C 243.657 -1.66649 -1.13627 0
M  V30 2546 C 243.97 -0.410364 -1.91247 0
M  V30 2547 O 245.176 -0.430854 -2.68059 0
M  V30 2548 C 243.632 -2.9449 -2.06891 0
M  V30 2549 C 243.24 -4.27266 -1.34714 0
M  V30 2550 C 244.984 -3.17899 -2.81319 0
M  V30 2551 C 242.891 -5.46217 -2.26717 0
M  V30 2552 H 241.821 -0.62084 -0.427871 0
M  V30 2553 H 244.472 -1.791 -0.399428 0
M  V30 2554 H 242.854 -2.75774 -2.84191 0
M  V30 2555 H 244.028 -4.56518 -0.626714 0
M  V30 2556 H 242.343 -4.10081 -0.722643 0
M  V30 2557 H 244.94 -4.03949 -3.50328 0
M  V30 2558 H 245.283 -2.32777 -3.45139 0
M  V30 2559 H 245.816 -3.37159 -2.11113 0
M  V30 2560 H 242.555 -6.33733 -1.67521 0
M  V30 2561 H 242.075 -5.21283 -2.96689 0
M  V30 2562 H 243.754 -5.7991 -2.86903 0
M  V30 2563 N 243.887 0.651787 -1.4349 0
M  V30 2564 C 245.134 1.41167 -1.45183 0
M  V30 2565 C 245.462 1.94349 -0.0766601 0
M  V30 2566 O 244.717 1.72804 0.918555 0
M  V30 2567 C 245.016 2.60914 -2.44251 0
M  V30 2568 C 244.682 2.26142 -3.9009 0
M  V30 2569 C 243.344 2.16371 -4.2981 0
M  V30 2570 C 245.696 1.98334 -4.81989 0
M  V30 2571 C 243.024 1.7695 -5.5938 0
M  V30 2572 C 245.376 1.6041 -6.11924 0
M  V30 2573 C 244.04 1.49166 -6.5062 0
M  V30 2574 H 243.31 0.516566 -0.531263 0
M  V30 2575 H 245.957 0.741099 -1.76579 0
M  V30 2576 H 244.262 3.3311 -2.06265 0
M  V30 2577 H 245.959 3.19127 -2.42815 0
M  V30 2578 H 242.549 2.34658 -3.58655 0
M  V30 2579 H 246.733 2.04803 -4.52072 0
M  V30 2580 H 241.989 1.66831 -5.88198 0
M  V30 2581 H 246.163 1.37925 -6.82605 0
M  V30 2582 H 243.79 1.1839 -7.50925 0
M  V30 2583 N 245.365 1.30045 0.890287 0
M  V30 2584 C 246.595 1.21296 1.67245 0
M  V30 2585 C 247.003 -0.227471 1.87828 0
M  V30 2586 O 246.346 -1.16296 1.422 0
M  V30 2587 C 246.408 1.86519 3.07329 0
M  V30 2588 C 246.072 3.35837 3.09939 0
M  V30 2589 C 247.069 4.31915 2.89389 0
M  V30 2590 C 244.754 3.77196 3.31706 0
M  V30 2591 C 246.748 5.67325 2.90552 0
M  V30 2592 C 244.435 5.12725 3.32499 0
M  V30 2593 C 245.433 6.076 3.11947 0
M  V30 2594 O 245.121 7.40655 3.12547 0
M  V30 2595 H 244.853 0.4211 0.528821 0
M  V30 2596 H 247.407 1.72111 1.12103 0
M  V30 2597 H 245.637 1.30228 3.64112 0
M  V30 2598 H 247.326 1.71963 3.67673 0
M  V30 2599 H 248.092 4.01294 2.72375 0
M  V30 2600 H 243.971 3.03796 3.4674 0
M  V30 2601 H 247.515 6.41354 2.74429 0
M  V30 2602 H 243.412 5.42988 3.49047 0
M  V30 2603 H 244.18 7.49577 3.28749 0
M  V30 2604 N 246.843 -1.10192 1.12674 0
M  V30 2605 C 247.773 -2.18652 0.819362 0
M  V30 2606 C 248.754 -1.68698 -0.217915 0
M  V30 2607 O 249.939 -1.94041 -0.0785581 0
M  V30 2608 C 247.069 -3.46202 0.27594 0
M  V30 2609 C 246.023 -4.09444 1.24656 0
M  V30 2610 C 245.349 -5.31725 0.563258 0
M  V30 2611 C 246.649 -4.52863 2.60217 0
M  V30 2612 H 248.343 -2.44622 1.72628 0
M  V30 2613 H 245.889 -1.17571 0.831451 0
M  V30 2614 H 247.842 -4.21372 0.0486149 0
M  V30 2615 H 246.566 -3.1973 -0.666331 0
M  V30 2616 H 245.225 -3.36284 1.45974 0
M  V30 2617 H 244.873 -5.0153 -0.384235 0
M  V30 2618 H 244.573 -5.74991 1.21075 0
M  V30 2619 H 246.097 -6.09624 0.34503 0
M  V30 2620 H 247.511 -5.19294 2.42913 0
M  V30 2621 H 245.908 -5.06986 3.21068 0
M  V30 2622 H 246.978 -3.65656 3.18471 0
M  V30 2623 N 248.321 -0.919034 -1.28029 0
M  V30 2624 C 249.284 -0.416182 -2.2539 0
M  V30 2625 C 250.284 0.460438 -1.54067 0
M  V30 2626 O 251.474 0.262744 -1.72207 0
M  V30 2627 C 248.606 0.402707 -3.38513 0
M  V30 2628 H 249.799 -1.27629 -2.71387 0
M  V30 2629 H 247.352 -0.698919 -1.39803 0
M  V30 2630 H 248.087 1.282 -2.97885 0
M  V30 2631 H 247.872 -0.225698 -3.9145 0
M  V30 2632 H 249.362 0.745191 -4.10897 0
M  V30 2633 N 249.799 1.42003 -0.683588 0
M  V30 2634 C 251.048 2.00638 -0.206681 0
M  V30 2635 C 251.361 1.5472 1.19671 0
M  V30 2636 O 252.567 2.05833 1.77045 0
M  V30 2637 C 251.023 3.58487 -0.318632 0
M  V30 2638 C 250.631 4.1339 -1.72663 0
M  V30 2639 C 252.375 4.24384 0.0991141 0
M  V30 2640 C 250.282 5.63633 -1.79087 0
M  V30 2641 H 249.212 0.750408 -0.0735107 0
M  V30 2642 H 251.863 1.62624 -0.850048 0
M  V30 2643 H 250.245 3.94047 0.392781 0
M  V30 2644 H 251.419 3.89273 -2.46583 0
M  V30 2645 H 249.734 3.59976 -2.09299 0
M  V30 2646 H 252.331 5.34652 0.0713833 0
M  V30 2647 H 252.674 4.00505 1.13586 0
M  V30 2648 H 253.207 3.93816 -0.561599 0
M  V30 2649 H 249.946 5.92323 -2.80774 0
M  V30 2650 H 249.466 5.89714 -1.09535 0
M  V30 2651 H 251.145 6.28201 -1.5483 0
M  V30 2652 N 251.277 0.427512 1.51691 0
M  V30 2653 C 252.225 -0.403359 2.29076 0
M  V30 2654 C 253.219 -1.02962 1.34518 0
M  V30 2655 O 254.425 -0.965715 1.51901 0
M  V30 2656 H 250.8 -0.148879 0.737115 0
M  V30 2657 H 252.771 0.270295 2.97173 0
M  V30 2658 C 251.52 -1.49763 3.13794 0
M  V30 2659 H 250.843 -1.02508 3.86435 0
M  V30 2660 H 252.283 -2.05244 3.71014 0
M  V30 2661 C 250.742 -2.47536 2.28533 0
M  V30 2662 O 251.272 -3.51848 1.93819 0
M  V30 2663 N 249.478 -2.18187 1.91945 0
M  V30 2664 H 249.025 -1.33389 2.20375 0
M  V30 2665 H 248.983 -2.83848 1.35195 0
M  V30 2666 N 252.755 -1.56801 0.158532 0
M  V30 2667 C 253.718 -2.16138 -0.762705 0
M  V30 2668 C 254.718 -1.1061 -1.16713 0
M  V30 2669 O 255.908 -1.36191 -1.08617 0
M  V30 2670 C 253.04 -2.73386 -2.03649 0
M  V30 2671 H 254.233 -2.98886 -0.246354 0
M  V30 2672 H 251.786 -1.56035 -0.0909744 0
M  V30 2673 H 252.521 -1.94335 -2.59623 0
M  V30 2674 H 252.306 -3.50601 -1.75559 0
M  V30 2675 H 253.796 -3.19065 -2.6942 0
M  V30 2676 N 254.233 0.115231 -1.57178 0
M  V30 2677 C 255.481 0.820727 -1.84685 0
M  V30 2678 C 255.802 1.80237 -0.744279 0
M  V30 2679 O 255.072 1.94529 0.231375 0
M  V30 2680 H 253.652 0.306084 -0.681411 0
M  V30 2681 H 256.314 0.101656 -1.94635 0
M  V30 2682 H 255.41 1.36366 -2.80733 0
M  V30 2683 N 255.711 1.52812 0.385517 0
M  V30 2684 C 256.936 1.72207 1.15583 0
M  V30 2685 C 257.361 0.441034 1.82857 0
M  V30 2686 O 256.719 -0.603465 1.70962 0
M  V30 2687 C 256.767 2.87476 2.17692 0
M  V30 2688 O 255.871 2.54693 3.24354 0
M  V30 2689 H 255.212 0.572526 0.336319 0
M  V30 2690 H 257.742 1.99618 0.448744 0
M  V30 2691 H 257.752 3.13072 2.6163 0
M  V30 2692 H 256.427 3.80408 1.68115 0
M  V30 2693 H 255.004 2.3985 2.85529 0
M  V30 2694 N 257.189 -0.644168 1.43834 0
M  V30 2695 C 258.119 -1.76814 1.52509 0
M  V30 2696 C 259.1 -1.65823 0.379052 0
M  V30 2697 O 260.285 -1.84781 0.597466 0
M  V30 2698 C 257.415 -3.15288 1.4564 0
M  V30 2699 C 256.369 -3.41053 2.58586 0
M  V30 2700 C 255.695 -4.79421 2.36769 0
M  V30 2701 C 256.995 -3.34902 4.00797 0
M  V30 2702 H 258.689 -1.69812 2.46586 0
M  V30 2703 H 256.235 -0.815542 1.1868 0
M  V30 2704 H 258.188 -3.93681 1.50311 0
M  V30 2705 H 256.912 -3.23043 0.480725 0
M  V30 2706 H 255.571 -2.65035 2.53282 0
M  V30 2707 H 255.219 -4.83863 1.37424 0
M  V30 2708 H 254.919 -4.9762 3.12487 0
M  V30 2709 H 256.443 -5.6006 2.43238 0
M  V30 2710 H 257.857 -4.03218 4.07539 0
M  V30 2711 H 256.254 -3.64637 4.76613 0
M  V30 2712 H 257.324 -2.32928 4.25291 0
M  V30 2713 N 258.668 -1.30515 -0.883378 0
M  V30 2714 C 259.598 -1.19607 -2.00541 0
M  V30 2715 C 260.579 -0.086346 -1.69881 0
M  V30 2716 O 261.764 -0.268654 -1.92333 0
M  V30 2717 C 258.894 -0.888758 -3.35736 0
M  V30 2718 C 257.848 -1.95659 -3.8066 0
M  V30 2719 C 257.174 -1.50224 -5.13164 0
M  V30 2720 C 258.474 -3.36788 -3.99213 0
M  V30 2721 H 260.168 -2.13476 -2.09925 0
M  V30 2722 H 257.714 -1.02775 -1.00863 0
M  V30 2723 H 259.667 -0.799094 -4.13754 0
M  V30 2724 H 258.391 0.0856125 -3.26488 0
M  V30 2725 H 257.05 -2.03591 -3.04871 0
M  V30 2726 H 256.698 -0.516092 -5.00345 0
M  V30 2727 H 256.398 -2.2165 -5.44192 0
M  V30 2728 H 257.922 -1.42639 -5.93706 0
M  V30 2729 H 259.336 -3.31605 -4.67665 0
M  V30 2730 H 257.733 -4.06314 -4.41621 0
M  V30 2731 H 258.803 -3.78561 -3.03017 0
M  V30 2732 N 260.146 1.09593 -1.13257 0
M  V30 2733 C 261.371 1.8604 -0.916732 0
M  V30 2734 C 261.796 1.80504 0.529146 0
M  V30 2735 O 261.154 1.18127 1.37534 0
M  V30 2736 C 261.202 3.32017 -1.40703 0
M  V30 2737 O 260.306 4.08141 -0.591153 0
M  V30 2738 H 259.647 0.576943 -0.328683 0
M  V30 2739 H 262.177 1.38405 -1.50682 0
M  V30 2740 H 262.187 3.82865 -1.4099 0
M  V30 2741 H 260.862 3.35361 -2.45979 0
M  V30 2742 H 259.439 3.67084 -0.656005 0
M  V30 2743 N 261.624 0.925811 1.2754 0
M  V30 2744 C 262.852 0.581509 1.9856 0
M  V30 2745 C 263.267 -0.840041 1.69082 0
M  V30 2746 O 262.624 -1.55805 0.950312 0
M  V30 2747 C 262.675 0.795589 3.52637 0
M  V30 2748 O 262.396 2.16121 3.81082 0
M  V30 2749 C 263.897 0.459744 4.4091 0
M  V30 2750 H 261.117 0.220538 0.633722 0
M  V30 2751 H 263.661 1.24232 1.6244 0
M  V30 2752 H 261.816 0.18161 3.86974 0
M  V30 2753 H 262.23 2.2098 4.75676 0
M  V30 2754 H 263.704 0.660244 5.48037 0
M  V30 2755 H 264.181 -0.604625 4.35018 0
M  V30 2756 H 264.787 1.05178 4.12089 0
M  V30 2757 N 263.102 -1.41638 0.69111 0
M  V30 2758 C 264.351 -2.00526 0.217318 0
M  V30 2759 C 264.664 -1.55353 -1.18848 0
M  V30 2760 O 265.87 -2.06769 -1.75951 0
M  V30 2761 C 264.326 -3.58313 0.337639 0
M  V30 2762 C 263.934 -4.12469 1.74852 0
M  V30 2763 C 265.678 -4.24431 -0.0766066 0
M  V30 2764 C 263.585 -5.62675 1.82074 0
M  V30 2765 H 262.515 -0.750008 0.0774893 0
M  V30 2766 H 265.166 -1.6217 0.858661 0
M  V30 2767 H 263.548 -3.9425 -0.371879 0
M  V30 2768 H 264.722 -3.8796 2.48644 0
M  V30 2769 H 263.037 -3.58861 2.11205 0
M  V30 2770 H 265.634 -5.34683 -0.0430284 0
M  V30 2771 H 265.977 -4.01101 -1.1146 0
M  V30 2772 H 266.51 -3.93512 0.582476 0
M  V30 2773 H 263.249 -5.90826 2.83911 0
M  V30 2774 H 262.769 -5.89124 1.12661 0
M  V30 2775 H 264.448 -6.27371 1.58159 0
M  V30 2776 N 264.58 -0.43555 -1.51462 0
M  V30 2777 C 265.829 0.133007 -2.01261 0
M  V30 2778 C 266.142 1.43942 -1.32439 0
M  V30 2779 O 267.348 2.09081 -1.73198 0
M  V30 2780 C 265.804 0.287581 -3.58749 0
M  V30 2781 C 265.412 -1.00829 -4.36506 0
M  V30 2782 C 267.156 0.810004 -4.167 0
M  V30 2783 C 265.063 -0.819454 -5.85695 0
M  V30 2784 H 263.993 0.0534822 -0.752101 0
M  V30 2785 H 266.644 -0.565038 -1.74584 0
M  V30 2786 H 265.026 1.04859 -3.81865 0
M  V30 2787 H 266.2 -1.77749 -4.25138 0
M  V30 2788 H 264.515 -1.45911 -3.89999 0
M  V30 2789 H 267.112 0.967743 -5.2587 0
M  V30 2790 H 267.455 1.79196 -3.75758 0
M  V30 2791 H 267.988 0.107357 -3.97655 0
M  V30 2792 H 264.727 -1.77374 -6.31046 0
M  V30 2793 H 264.247 -0.0900208 -5.99732 0
M  V30 2794 H 265.926 -0.471949 -6.45276 0
M  V30 2795 N 266.058 1.56714 -0.166846 0
M  V30 2796 C 267.286 2.0112 0.485644 0
M  V30 2797 C 267.701 1.04705 1.57106 0
M  V30 2798 O 267.058 0.0471923 1.82439 0
M  V30 2799 C 267.109 3.45361 1.06808 0
M  V30 2800 O 266.83 4.38092 0.0259995 0
M  V30 2801 C 268.331 4.05145 1.79924 0
M  V30 2802 H 265.551 0.65931 0.124704 0
M  V30 2803 H 268.095 2.02746 -0.267262 0
M  V30 2804 H 266.25 3.44524 1.7715 0
M  V30 2805 H 266.664 5.22519 0.455398 0
M  V30 2806 H 268.138 5.08009 2.15942 0
M  V30 2807 H 268.615 3.46982 2.69258 0
M  V30 2808 H 269.221 4.09672 1.14234 0
M  V30 2809 N 267.536 -0.106894 1.57237 0
M  V30 2810 C 268.947 -0.662723 1.74542 0
M  V30 2811 C 269.298 -1.7971 0.787319 0
M  V30 2812 O 268.423 -2.16368 -0.0369636 0
M  V30 2813 C 269.018 -1.20896 3.16496 0
M  V30 2814 C 267.577 -1.71096 3.35266 0
M  V30 2815 C 266.724 -0.615642 2.7038 0
M  V30 2816 H 269.675 0.119106 1.58252 0
M  V30 2817 H 269.696 -2.07847 3.18716 0
M  V30 2818 H 269.208 -0.383122 3.86204 0
M  V30 2819 H 267.309 -2.56119 2.70618 0
M  V30 2820 H 267.422 -1.81208 4.43509 0
M  V30 2821 H 265.786 -1.05222 2.31949 0
M  V30 2822 H 266.569 0.199419 3.4272 0
M  V30 2823 N 269.014 -1.53014 -0.377408 0
M  V30 2824 C 269.947 -1.73382 -1.48371 0
M  V30 2825 C 270.925 -0.581879 -1.51832 0
M  V30 2826 O 272.109 -0.81307 -1.70063 0
M  V30 2827 C 269.236 -1.80192 -2.8679 0
M  V30 2828 C 268.282 -3.02056 -3.01105 0
M  V30 2829 S 269.115 -4.61811 -2.71093 0
M  V30 2830 C 270.271 -4.71453 -4.11683 0
M  V30 2831 H 270.504 -2.66946 -1.30872 0
M  V30 2832 H 268.037 -1.43453 -0.571012 0
M  V30 2833 H 269.995 -1.84802 -3.6655 0
M  V30 2834 H 268.656 -0.877008 -3.01608 0
M  V30 2835 H 267.849 -3.03396 -4.02451 0
M  V30 2836 H 267.451 -2.95498 -2.29253 0
M  V30 2837 H 269.743 -4.50781 -5.0577 0
M  V30 2838 H 270.686 -5.73487 -4.15353 0
M  V30 2839 H 271.094 -4.00189 -3.98132 0
M  V30 2840 N 270.492 0.636531 -1.44174 0
M  V30 2841 C 271.422 1.76003 -1.53444 0
M  V30 2842 C 272.403 1.65619 -0.387841 0
M  V30 2843 O 273.588 1.84461 -0.607257 0
M  V30 2844 C 270.718 3.14511 -1.4731 0
M  V30 2845 C 269.672 3.39677 -2.60391 0
M  V30 2846 C 268.998 4.78159 -2.39308 0
M  V30 2847 C 270.298 3.32772 -4.02567 0
M  V30 2848 H 271.992 1.68501 -2.47483 0
M  V30 2849 H 269.538 0.809237 -1.19111 0
M  V30 2850 H 271.491 3.92878 -1.52397 0
M  V30 2851 H 270.215 3.22783 -0.49785 0
M  V30 2852 H 268.874 2.63688 -2.54684 0
M  V30 2853 H 268.522 4.83128 -1.39988 0
M  V30 2854 H 268.222 4.95956 -3.15122 0
M  V30 2855 H 269.746 5.58762 -2.46205 0
M  V30 2856 H 271.16 4.01051 -4.09672 0
M  V30 2857 H 269.557 3.62104 -4.7854 0
M  V30 2858 H 270.627 2.30669 -4.2652 0
M  V30 2859 N 271.97 1.30982 0.876444 0
M  V30 2860 C 273.386 1.09498 1.16113 0
M  V30 2861 C 273.586 -0.13875 2.01022 0
M  V30 2862 O 272.642 -0.829935 2.38471 0
M  V30 2863 C 273.955 2.36308 1.85954 0
M  V30 2864 C 275.503 2.41856 1.98683 0
M  V30 2865 C 275.978 3.6853 2.71937 0
M  V30 2866 N 277.469 3.69387 2.79477 0
M  V30 2867 C 278.204 4.64096 3.36753 0
M  V30 2868 N 277.7 5.69155 3.95012 0
M  V30 2869 N 279.493 4.51626 3.3465 0
M  V30 2870 H 271.644 2.10118 0.310494 0
M  V30 2871 H 273.907 0.926634 0.200131 0
M  V30 2872 H 273.613 3.26388 1.31011 0
M  V30 2873 H 273.487 2.4561 2.86278 0
M  V30 2874 H 275.874 1.52249 2.52793 0
M  V30 2875 H 275.955 2.36523 0.9742 0
M  V30 2876 H 275.599 4.58499 2.18496 0
M  V30 2877 H 275.529 3.71127 3.73593 0
M  V30 2878 H 278.02 2.93438 2.38123 0
M  V30 2879 H 278.333 6.3751 4.36808 0
M  V30 2880 H 276.678 5.72937 3.93406 0
M  V30 2881 H 279.869 3.68728 2.8837 0
M  V30 2882 H 280.042 5.25614 3.7899 0
M  V30 2883 N 273.449 -1.08991 1.13837 0
M  V30 2884 C 274.695 -1.81526 0.90422 0
M  V30 2885 C 275.028 -1.85706 -0.568066 0
M  V30 2886 O 274.303 -1.32855 -1.42056 0
M  V30 2887 C 274.586 -3.27447 1.49835 0
M  V30 2888 C 274.439 -3.31512 3.04006 0
M  V30 2889 C 275.758 -4.24256 1.17025 0
M  V30 2890 H 272.877 -0.659029 0.329923 0
M  V30 2891 H 275.519 -1.27644 1.40737 0
M  V30 2892 H 273.669 -3.73462 1.07044 0
M  V30 2893 H 275.341 -2.93867 3.55584 0
M  V30 2894 H 273.584 -2.70963 3.38765 0
M  V30 2895 H 274.255 -4.34329 3.40679 0
M  V30 2896 H 276.731 -3.86549 1.54009 0
M  V30 2897 H 275.607 -5.24684 1.61237 0
M  V30 2898 H 275.868 -4.42019 0.0846274 0
M  V30 2899 N 274.927 -0.932562 -1.27047 0
M  V30 2900 C 275.859 -0.392734 -2.2581 0
M  V30 2901 C 276.872 0.479241 -1.55586 0
M  V30 2902 O 278.061 0.291078 -1.76111 0
M  V30 2903 C 275.161 0.455456 -3.35826 0
M  V30 2904 C 274.334 -0.398355 -4.35582 0
M  V30 2905 C 273.393 0.387985 -5.24768 0
M  V30 2906 O 272.419 -0.206003 -5.68827 0
M  V30 2907 N 273.621 1.68664 -5.55457 0
M  V30 2908 H 276.386 -1.24173 -2.72766 0
M  V30 2909 H 273.947 -0.800511 -1.40725 0
M  V30 2910 H 275.939 0.988692 -3.92437 0
M  V30 2911 H 274.509 1.20522 -2.88432 0
M  V30 2912 H 273.729 -1.11286 -3.78165 0
M  V30 2913 H 275.017 -0.981889 -4.99236 0
M  V30 2914 H 274.415 2.19147 -5.21528 0
M  V30 2915 H 272.972 2.1663 -6.14748 0
M  V30 2916 N 276.405 1.4127 -0.698611 0
M  V30 2917 C 277.337 2.292 0.00399731 0
M  V30 2918 C 278.35 1.44944 0.741279 0
M  V30 2919 O 279.539 1.68416 0.591477 0
M  V30 2920 C 276.639 3.22875 1.02979 0
M  V30 2921 C 275.812 4.35904 0.36151 0
M  V30 2922 C 274.871 5.10134 1.29033 0
M  V30 2923 O 273.897 5.63809 0.781562 0
M  V30 2924 N 275.099 5.17885 2.6225 0
M  V30 2925 H 277.864 2.9014 -0.750921 0
M  V30 2926 H 275.425 1.52455 -0.544882 0
M  V30 2927 H 277.417 3.69404 1.65296 0
M  V30 2928 H 275.987 2.63221 1.68622 0
M  V30 2929 H 275.207 3.91719 -0.441584 0
M  V30 2930 H 276.495 5.08696 -0.103055 0
M  V30 2931 H 275.893 4.7573 3.061 0
M  V30 2932 H 274.45 5.6798 3.19754 0
M  V30 2933 N 277.883 0.443576 1.51229 0
M  V30 2934 C 279.123 -0.119889 2.04048 0
M  V30 2935 C 279.487 -1.39418 1.32009 0
M  V30 2936 O 280.688 -2.03829 1.75235 0
M  V30 2937 C 278.959 -0.327233 3.55899 0
M  V30 2938 S 280.518 -0.853208 4.30425 0
M  V30 2939 H 277.336 -0.028921 0.710412 0
M  V30 2940 H 279.938 0.604413 1.85922 0
M  V30 2941 H 278.642 0.606445 4.05895 0
M  V30 2942 H 278.173 -1.07844 3.7833 0
M  V30 2943 H 280.188 -2.13005 4.48155 0
M  V30 2944 N 279.361 -1.56624 0.175154 0
M  V30 2945 C 280.609 -1.96609 -0.467885 0
M  V30 2946 C 280.93 -1.06238 -1.63519 0
M  V30 2947 O 280.2 -0.129523 -1.95471 0
M  V30 2948 H 278.78 -0.726008 -0.175845 0
M  V30 2949 H 281.442 -1.93195 0.257234 0
M  V30 2950 H 280.538 -3.00989 -0.825342 0
M  V30 2951 N 280.839 0.0985539 -1.57292 0
M  V30 2952 C 282.088 0.801358 -1.85098 0
M  V30 2953 C 282.401 1.80066 -0.763902 0
M  V30 2954 O 283.607 2.55112 -0.928981 0
M  V30 2955 C 282.063 1.47599 -3.28242 0
M  V30 2956 C 281.671 0.516624 -4.45011 0
M  V30 2957 C 283.415 2.16272 -3.65276 0
M  V30 2958 C 281.322 1.19564 -5.79188 0
M  V30 2959 H 280.252 0.303022 -0.69043 0
M  V30 2960 H 282.903 0.0542623 -1.8342 0
M  V30 2961 H 281.285 2.27042 -3.2445 0
M  V30 2962 H 282.459 -0.246065 -4.60143 0
M  V30 2963 H 280.774 -0.064227 -4.1635 0
M  V30 2964 H 283.371 2.67802 -4.62803 0
M  V30 2965 H 283.714 2.95009 -2.93727 0
M  V30 2966 H 284.247 1.43693 -3.70941 0
M  V30 2967 H 280.986 0.449157 -6.53959 0
M  V30 2968 H 280.506 1.92984 -5.67906 0
M  V30 2969 H 282.185 1.7231 -6.23633 0
M  V30 2970 N 282.317 1.53212 0.369288 0
M  V30 2971 C 283.267 1.75769 1.45222 0
M  V30 2972 C 284.251 0.612136 1.48801 0
M  V30 2973 O 285.443 0.870674 1.54105 0
M  V30 2974 C 282.572 1.94769 2.82701 0
M  V30 2975 C 281.658 3.15315 2.83615 0
M  V30 2976 N 282.049 4.37295 2.54178 0
M  V30 2977 C 280.347 3.15962 3.14776 0
M  V30 2978 C 281.048 5.19015 2.62675 0
M  V30 2979 N 280.024 4.55142 2.97232 0
M  V30 2980 H 283.826 2.67691 1.2132 0
M  V30 2981 H 281.34 1.51787 0.577438 0
M  V30 2982 H 283.337 2.09056 3.60696 0
M  V30 2983 H 281.997 1.04073 3.07569 0
M  V30 2984 H 283.008 4.65091 2.27839 0
M  V30 2985 H 279.685 2.35144 3.44983 0
M  V30 2986 H 281.075 6.26305 2.43294 0
M  V30 2987 N 283.795 -0.628877 1.44509 0
M  V30 2988 C 285.02 -1.42048 1.5112 0
M  V30 2989 C 285.445 -1.87594 0.137818 0
M  V30 2990 O 284.803 -1.58873 -0.873437 0
M  V30 2991 C 284.851 -2.61541 2.48251 0
M  V30 2992 O 283.955 -3.61453 1.98559 0
M  V30 2993 H 283.296 -0.424942 0.510216 0
M  V30 2994 H 285.826 -0.767374 1.89664 0
M  V30 2995 H 285.836 -3.09057 2.66361 0
M  V30 2996 H 284.511 -2.27736 3.48007 0
M  V30 2997 H 283.088 -3.20731 1.90227 0
M  V30 2998 N 285.273 -1.31445 -0.869486 0
M  V30 2999 C 286.22 -1.19135 -1.97675 0
M  V30 3000 C 287.19 -0.0770266 -1.65921 0
M  V30 3001 O 288.375 -0.249972 -1.89155 0
M  V30 3002 C 285.515 -0.905149 -3.33018 0
M  V30 3003 C 284.628 -2.10285 -3.77365 0
M  V30 3004 C 283.763 -1.75339 -5.01427 0
M  V30 3005 C 282.802 -2.91515 -5.38224 0
M  V30 3006 N 281.939 -2.56762 -6.53466 0
M  V30 3007 H 286.779 -2.13853 -2.07535 0
M  V30 3008 H 284.316 -1.06379 -1.01597 0
M  V30 3009 H 286.274 -0.719765 -4.10944 0
M  V30 3010 H 284.904 0.00519624 -3.228 0
M  V30 3011 H 283.956 -2.39899 -2.95216 0
M  V30 3012 H 285.268 -2.97237 -4.00564 0
M  V30 3013 H 284.422 -1.53266 -5.87022 0
M  V30 3014 H 283.161 -0.855801 -4.80133 0
M  V30 3015 H 282.166 -3.14237 -4.51149 0
M  V30 3016 H 283.391 -3.81985 -5.61484 0
M  V30 3017 H 281.337 -1.69526 -6.33717 0
M  V30 3018 H 281.254 -3.37243 -6.76612 0
M  V30 3019 H 282.522 -2.38083 -7.42251 0
M  V30 3020 N 286.751 1.08385 -1.14413 0
M  V30 3021 C 287.683 2.1519 -0.789036 0
M  V30 3022 C 288.696 1.61638 0.19417 0
M  V30 3023 O 289.885 1.78479 -0.0275711 0
M  V30 3024 C 286.985 3.38565 -0.15058 0
M  V30 3025 C 286.158 4.21501 -1.16857 0
M  V30 3026 C 285.217 5.23277 -0.553832 0
M  V30 3027 O 284.243 5.56041 -1.21686 0
M  V30 3028 N 285.445 5.76629 0.669296 0
M  V30 3029 H 288.21 2.46257 -1.70814 0
M  V30 3030 H 285.771 1.24198 -1.03858 0
M  V30 3031 H 287.763 4.03777 0.273181 0
M  V30 3032 H 286.333 3.05299 0.671667 0
M  V30 3033 H 285.553 3.52265 -1.76926 0
M  V30 3034 H 286.841 4.73731 -1.85624 0
M  V30 3035 H 286.239 5.52243 1.22654 0
M  V30 3036 H 284.796 6.43521 1.03556 0
M  V30 3037 N 288.23 0.939286 1.26551 0
M  V30 3038 C 289.193 0.451987 2.24699 0
M  V30 3039 C 290.193 -0.435869 1.5478 0
M  V30 3040 O 291.383 -0.235314 1.72603 0
M  V30 3041 C 288.515 -0.348801 3.39111 0
M  V30 3042 H 289.708 1.3193 2.69322 0
M  V30 3043 H 287.261 0.721072 1.38673 0
M  V30 3044 H 287.996 -1.23444 2.99887 0
M  V30 3045 H 287.781 0.287945 3.91041 0
M  V30 3046 H 289.271 -0.679726 4.12031 0
M  V30 3047 N 289.708 -1.40897 0.706093 0
M  V30 3048 C 290.948 -2.02916 0.245827 0
M  V30 3049 C 291.312 -1.54751 -1.13649 0
M  V30 3050 O 292.513 -2.08768 -1.69321 0
M  V30 3051 C 290.784 -3.56031 0.312537 0
M  V30 3052 S 292.343 -4.38741 -0.0721388 0
M  V30 3053 H 289.161 -0.704186 0.0982007 0
M  V30 3054 H 291.763 -1.72168 0.926207 0
M  V30 3055 H 290.467 -3.88579 1.32039 0
M  V30 3056 H 289.998 -3.91495 -0.386641 0
M  V30 3057 H 292.013 -4.78952 -1.29692 0
M  V30 3058 N 291.186 -0.45159 -1.50991 0
M  V30 3059 C 292.416 0.108177 -2.06317 0
M  V30 3060 C 292.824 1.35774 -1.31765 0
M  V30 3061 O 292.167 1.79838 -0.374694 0
M  V30 3062 C 292.229 0.481659 -3.56259 0
M  V30 3063 C 291.893 -0.663114 -4.52163 0
M  V30 3064 C 292.89 -1.53947 -4.96585 0
M  V30 3065 C 290.575 -0.8479 -4.95092 0
M  V30 3066 C 292.569 -2.58518 -5.82621 0
M  V30 3067 C 290.256 -1.89686 -5.80915 0
M  V30 3068 C 291.254 -2.76388 -6.24579 0
M  V30 3069 O 290.942 -3.79482 -7.08695 0
M  V30 3070 H 290.674 0.00499183 -0.675982 0
M  V30 3071 H 293.228 -0.633659 -1.95381 0
M  V30 3072 H 291.458 1.27641 -3.65027 0
M  V30 3073 H 293.147 0.974233 -3.94035 0
M  V30 3074 H 293.913 -1.4083 -4.64103 0
M  V30 3075 H 289.792 -0.18258 -4.60638 0
M  V30 3076 H 293.336 -3.26224 -6.16623 0
M  V30 3077 H 289.233 -2.02817 -6.12809 0
M  V30 3078 H 290.001 -3.76234 -7.26905 0
M  V30 3079 N 292.664 1.56529 -0.183458 0
M  V30 3080 C 294.075 1.83739 0.331177 0
M  V30 3081 C 294.426 1.10373 1.62211 0
M  V30 3082 O 293.551 0.36071 2.13373 0
M  V30 3083 C 294.146 3.33306 0.607646 0
M  V30 3084 C 292.705 3.60969 1.06668 0
M  V30 3085 C 291.852 2.77086 0.109029 0
M  V30 3086 H 294.803 1.53379 -0.407484 0
M  V30 3087 H 294.824 3.51444 1.45832 0
M  V30 3088 H 294.336 3.86677 -0.332086 0
M  V30 3089 H 292.437 3.13021 2.0211 0
M  V30 3090 H 292.55 4.69231 0.967447 0
M  V30 3091 H 290.914 2.47319 0.608714 0
M  V30 3092 H 291.697 3.33241 -0.82494 0
M  V30 3093 N 294.142 -0.090211 1.57342 0
M  V30 3094 C 295.072 -1.10976 2.05443 0
M  V30 3095 C 296.053 -1.41482 0.944284 0
M  V30 3096 O 297.238 -1.51428 1.21586 0
M  V30 3097 C 294.368 -2.42831 2.48295 0
M  V30 3098 C 293.322 -2.26721 3.63018 0
M  V30 3099 C 292.648 -3.63796 3.91863 0
M  V30 3100 C 293.948 -1.7037 4.93732 0
M  V30 3101 H 295.642 -0.709564 2.9087 0
M  V30 3102 H 293.188 -0.339874 1.39932 0
M  V30 3103 H 295.141 -3.14431 2.80555 0
M  V30 3104 H 293.865 -2.84795 1.59873 0
M  V30 3105 H 292.524 -1.57565 3.31012 0
M  V30 3106 H 292.172 -4.03297 3.00601 0
M  V30 3107 H 291.872 -3.53861 4.69101 0
M  V30 3108 H 293.396 -4.36855 4.26603 0
M  V30 3109 H 294.81 -2.31816 5.24342 0
M  V30 3110 H 293.207 -1.71181 5.75167 0
M  V30 3111 H 294.277 -0.663542 4.80339 0
M  V30 3112 N 295.62 -1.53406 -0.361157 0
M  V30 3113 C 296.583 -1.79479 -1.42548 0
M  V30 3114 C 297.583 -0.665327 -1.4639 0
M  V30 3115 O 298.773 -0.933549 -1.47073 0
M  V30 3116 C 295.905 -1.92087 -2.8163 0
M  V30 3117 H 297.098 -2.74538 -1.20701 0
M  V30 3118 H 294.651 -1.4455 -0.594546 0
M  V30 3119 H 295.386 -0.991099 -3.08784 0
M  V30 3120 H 295.171 -2.74241 -2.80239 0
M  V30 3121 H 296.661 -2.13836 -3.58697 0
M  V30 3122 N 297.098 0.621204 -1.44841 0
M  V30 3123 C 298.345 1.38055 -1.48145 0
M  V30 3124 C 298.673 1.94143 -0.117867 0
M  V30 3125 O 297.928 1.74713 0.881694 0
M  V30 3126 C 298.227 2.55675 -2.4973 0
M  V30 3127 C 297.893 2.17817 -3.94799 0
M  V30 3128 C 296.555 2.07205 -4.34303 0
M  V30 3129 C 298.907 1.88065 -4.86087 0
M  V30 3130 C 296.235 1.65045 -5.63007 0
M  V30 3131 C 298.587 1.47394 -6.15189 0
M  V30 3132 C 297.251 1.35331 -6.53637 0
M  V30 3133 H 296.521 0.505181 -0.542101 0
M  V30 3134 H 299.168 0.703477 -1.78111 0
M  V30 3135 H 297.473 3.2866 -2.13284 0
M  V30 3136 H 299.17 3.13904 -2.4953 0
M  V30 3137 H 295.76 2.26998 -3.63552 0
M  V30 3138 H 299.944 1.95168 -4.56315 0
M  V30 3139 H 295.2 1.54317 -5.91605 0
M  V30 3140 H 299.374 1.23415 -6.85377 0
M  V30 3141 H 297.001 1.02435 -7.53267 0
M  V30 3142 N 298.576 1.31904 0.862503 0
M  V30 3143 C 299.824 1.21776 1.61292 0
M  V30 3144 C 300.145 -0.222413 1.93727 0
M  V30 3145 O 299.415 -1.1451 1.58947 0
M  V30 3146 H 297.995 0.447717 0.597962 0
M  V30 3147 H 300.657 1.65326 1.03215 0
M  V30 3148 H 299.753 1.7948 2.5533 0
M  V30 3149 N 300.054 -1.07777 1.14986 0
M  V30 3150 C 301.3 -1.80557 0.923422 0
M  V30 3151 C 301.633 -1.86298 -0.548337 0
M  V30 3152 O 300.908 -1.34354 -1.40639 0
M  V30 3153 C 301.191 -3.25839 1.53299 0
M  V30 3154 C 301.044 -3.28269 3.07505 0
M  V30 3155 C 302.363 -4.22991 1.21518 0
M  V30 3156 H 299.482 -0.655493 0.336894 0
M  V30 3157 H 302.124 -1.26144 1.42083 0
M  V30 3158 H 300.274 -3.72306 1.10999 0
M  V30 3159 H 301.946 -2.90079 3.58681 0
M  V30 3160 H 300.189 -2.67355 3.4162 0
M  V30 3161 H 300.86 -4.30691 3.45266 0
M  V30 3162 H 303.336 -3.84894 1.581 0
M  V30 3163 H 302.212 -5.22945 1.66793 0
M  V30 3164 H 302.473 -4.41904 0.131505 0
M  V30 3165 N 301.532 -0.945985 -1.26051 0
M  V30 3166 C 302.943 -0.638096 -1.75457 0
M  V30 3167 C 303.294 0.846672 -1.76991 0
M  V30 3168 O 302.419 1.66262 -1.38513 0
M  V30 3169 C 303.014 -1.15157 -3.18629 0
M  V30 3170 C 301.573 -0.894004 -3.65629 0
M  V30 3171 C 300.72 -1.29967 -2.44957 0
M  V30 3172 H 303.671 -1.12376 -1.1206 0
M  V30 3173 H 303.692 -0.507615 -3.77099 0
M  V30 3174 H 303.204 -2.23222 -3.1748 0
M  V30 3175 H 301.305 0.172057 -3.72203 0
M  V30 3176 H 301.418 -1.52439 -4.54202 0
M  V30 3177 H 299.782 -0.718078 -2.44368 0
M  V30 3178 H 300.565 -2.38935 -2.46505 0
M  V30 3179 N 303.011 1.40521 -0.713556 0
M  V30 3180 C 303.974 2.29098 -0.0684347 0
M  V30 3181 C 304.974 1.45268 0.689472 0
M  V30 3182 O 306.164 1.66205 0.521677 0
M  V30 3183 C 303.296 3.28446 0.913024 0
M  V30 3184 H 304.489 2.87645 -0.84855 0
M  V30 3185 H 302.042 1.48809 -0.47809 0
M  V30 3186 H 302.777 2.74913 1.72027 0
M  V30 3187 H 302.562 3.90327 0.372472 0
M  V30 3188 H 304.052 3.94777 1.36165 0
M  V30 3189 N 304.489 0.459591 1.5075 0
M  V30 3190 C 305.452 -0.329093 2.26825 0
M  V30 3191 C 306.452 -0.930481 1.31144 0
M  V30 3192 O 307.642 -0.801453 1.54669 0
M  V30 3193 C 304.774 -1.46768 3.07688 0
M  V30 3194 H 305.967 0.337924 2.9799 0
M  V30 3195 H 303.52 0.213336 1.54837 0
M  V30 3196 H 304.255 -2.17009 2.40993 0
M  V30 3197 H 304.04 -1.04238 3.77991 0
M  V30 3198 H 305.53 -2.02433 3.65254 0
M  V30 3199 N 305.967 -1.56429 0.191757 0
M  V30 3200 C 306.897 -2.21937 -0.725696 0
M  V30 3201 C 307.878 -1.1814 -1.2238 0
M  V30 3202 O 309.063 -1.46636 -1.27325 0
M  V30 3203 C 306.193 -2.87611 -1.94672 0
M  V30 3204 C 305.147 -3.97623 -1.58366 0
M  V30 3205 C 304.473 -4.50446 -2.88102 0
M  V30 3206 C 305.773 -5.16197 -0.796133 0
M  V30 3207 H 307.467 -2.98861 -0.179606 0
M  V30 3208 H 305.013 -1.43749 -0.0849464 0
M  V30 3209 H 306.966 -3.3212 -2.59373 0
M  V30 3210 H 305.69 -2.08087 -2.51728 0
M  V30 3211 H 304.349 -3.53801 -0.960247 0
M  V30 3212 H 303.997 -3.67688 -3.43241 0
M  V30 3213 H 303.697 -5.24675 -2.64556 0
M  V30 3214 H 305.221 -4.97654 -3.53798 0
M  V30 3215 H 306.635 -5.57271 -1.34618 0
M  V30 3216 H 305.032 -5.96471 -0.658928 0
M  V30 3217 H 306.102 -4.84473 0.203478 0
M  V30 3218 N 307.445 0.0818655 -1.57387 0
M  V30 3219 C 308.378 1.12986 -1.98266 0
M  V30 3220 C 309.356 1.38123 -0.857954 0
M  V30 3221 O 310.54 1.51663 -1.1194 0
M  V30 3222 C 307.667 2.47632 -2.31076 0
M  V30 3223 C 306.713 2.38693 -3.53452 0
M  V30 3224 S 307.546 1.79071 -5.04672 0
M  V30 3225 C 308.702 3.15316 -5.40673 0
M  V30 3226 H 308.935 0.781435 -2.86846 0
M  V30 3227 H 306.468 0.290034 -1.51651 0
M  V30 3228 H 308.426 3.25089 -2.50654 0
M  V30 3229 H 307.087 2.79638 -1.43043 0
M  V30 3230 H 306.28 3.37964 -3.73893 0
M  V30 3231 H 305.882 1.69369 -3.33452 0
M  V30 3232 H 308.174 4.11613 -5.38127 0
M  V30 3233 H 309.117 2.99664 -6.41566 0
M  V30 3234 H 309.525 3.15457 -4.68132 0
M  V30 3235 N 308.923 1.53595 0.353017 0
M  V30 3236 C 309.886 1.80232 1.41594 0
M  V30 3237 C 310.886 0.673081 1.46035 0
M  V30 3238 O 312.076 0.941335 1.46576 0
M  V30 3239 C 309.208 1.93578 2.80607 0
M  V30 3240 H 310.401 2.75174 1.19244 0
M  V30 3241 H 307.954 1.44864 0.586872 0
M  V30 3242 H 308.689 1.00746 3.08254 0
M  V30 3243 H 308.474 2.75724 2.78781 0
M  V30 3244 H 309.964 2.15735 3.57558 0
M  V30 3245 N 310.401 -0.613514 1.45168 0
M  V30 3246 C 311.647 -1.37471 1.49096 0
M  V30 3247 C 311.98 -1.93765 0.129901 0
M  V30 3248 O 311.255 -1.74707 -0.854858 0
M  V30 3249 C 311.538 -2.52701 2.56542 0
M  V30 3250 C 311.391 -2.01643 4.0207 0
M  V30 3251 C 312.71 -3.54849 2.60327 0
M  V30 3252 H 309.829 -0.498502 0.54283 0
M  V30 3253 H 312.471 -0.692125 1.76945 0
M  V30 3254 H 310.621 -3.10931 2.32926 0
M  V30 3255 H 312.293 -1.48108 4.36877 0
M  V30 3256 H 310.536 -1.32688 4.13009 0
M  V30 3257 H 311.207 -2.84681 4.72928 0
M  V30 3258 H 313.683 -3.0645 2.81474 0
M  V30 3259 H 312.559 -4.32973 3.37381 0
M  V30 3260 H 312.82 -4.10079 1.6519 0
M  V30 3261 N 311.879 -1.3236 -0.855495 0
M  V30 3262 C 312.842 -1.21164 -1.94556 0
M  V30 3263 C 313.842 -0.134908 -1.60233 0
M  V30 3264 O 315.032 -0.385249 -1.69887 0
M  V30 3265 C 312.164 -0.863192 -3.29791 0
M  V30 3266 H 313.357 -2.18038 -2.05911 0
M  V30 3267 H 310.91 -1.16179 -1.04557 0
M  V30 3268 H 311.645 0.103769 -3.24134 0
M  V30 3269 H 311.43 -1.64166 -3.56078 0
M  V30 3270 H 312.92 -0.809156 -4.09686 0
M  V30 3271 N 313.357 1.07166 -1.15556 0
M  V30 3272 C 314.287 2.16403 -0.877046 0
M  V30 3273 C 315.268 1.69217 0.173111 0
M  V30 3274 O 316.453 1.94181 0.027084 0
M  V30 3275 C 313.583 3.45349 -0.367632 0
M  V30 3276 C 312.537 4.05995 -1.35468 0
M  V30 3277 C 311.863 5.30045 -0.704038 0
M  V30 3278 C 313.163 4.45804 -2.72132 0
M  V30 3279 H 314.857 2.39959 -1.79053 0
M  V30 3280 H 312.403 1.15325 -0.862331 0
M  V30 3281 H 314.356 4.21095 -0.160317 0
M  V30 3282 H 313.08 3.21385 0.581326 0
M  V30 3283 H 311.739 3.32296 -1.54839 0
M  V30 3284 H 311.387 5.02373 0.251128 0
M  V30 3285 H 311.087 5.71579 -1.36277 0
M  V30 3286 H 312.611 6.08495 -0.50654 0
M  V30 3287 H 314.025 5.12671 -2.56595 0
M  V30 3288 H 312.422 4.98296 -3.34397 0
M  V30 3289 H 313.492 3.57083 -3.28054 0
M  V30 3290 N 314.835 0.952656 1.25548 0
M  V30 3291 C 316.084 0.602053 1.92505 0
M  V30 3292 C 316.397 -0.864663 1.75451 0
M  V30 3293 O 317.603 -1.32514 2.36965 0
M  V30 3294 C 316.059 1.02607 3.44963 0
M  V30 3295 C 315.667 2.51519 3.70732 0
M  V30 3296 C 317.411 0.747905 4.1786 0
M  V30 3297 C 315.318 2.87732 5.16686 0
M  V30 3298 H 314.248 0.22146 0.720744 0
M  V30 3299 H 316.899 1.15684 1.42441 0
M  V30 3300 H 315.281 0.399712 3.93978 0
M  V30 3301 H 316.455 3.19157 3.32378 0
M  V30 3302 H 314.77 2.76786 3.11092 0
M  V30 3303 H 317.367 0.994647 5.25367 0
M  V30 3304 H 317.71 -0.315629 4.15102 0
M  V30 3305 H 318.243 1.33452 3.74747 0
M  V30 3306 H 314.982 3.93095 5.24554 0
M  V30 3307 H 314.502 2.24765 5.56094 0
M  V30 3308 H 316.181 2.76817 5.84792 0
M  V30 3309 N 316.313 -1.40141 0.720998 0
M  V30 3310 C 317.559 -2.01084 0.263231 0
M  V30 3311 C 317.892 -1.57052 -1.14229 0
M  V30 3312 O 317.167 -0.793027 -1.77599 0
M  V30 3313 C 317.45 -3.58401 0.349344 0
M  V30 3314 C 317.303 -4.12491 1.79363 0
M  V30 3315 C 318.622 -4.39231 -0.276351 0
M  V30 3316 H 315.741 -0.730572 0.0971228 0
M  V30 3317 H 318.383 -1.66543 0.914518 0
M  V30 3318 H 316.533 -3.87958 -0.205165 0
M  V30 3319 H 318.205 -3.93711 2.40394 0
M  V30 3320 H 316.448 -3.66576 2.31958 0
M  V30 3321 H 317.119 -5.21646 1.80524 0
M  V30 3322 H 319.595 -4.15637 0.196184 0
M  V30 3323 H 318.471 -5.48586 -0.185681 0
M  V30 3324 H 318.732 -4.20643 -1.36059 0
M  V30 3325 N 317.792 -0.46758 -1.50504 0
M  V30 3326 C 319.039 0.0886219 -2.02306 0
M  V30 3327 C 319.367 1.40037 -1.34981 0
M  V30 3328 O 318.622 1.90136 -0.463318 0
M  V30 3329 C 318.921 0.323995 -3.55928 0
M  V30 3330 C 318.587 -0.905618 -4.41712 0
M  V30 3331 C 317.249 -1.24275 -4.64875 0
M  V30 3332 C 319.601 -1.72448 -4.91845 0
M  V30 3333 C 316.929 -2.39888 -5.35417 0
M  V30 3334 C 319.281 -2.87185 -5.63656 0
M  V30 3335 C 317.945 -3.21317 -5.85074 0
M  V30 3336 H 317.215 0.0324291 -0.74029 0
M  V30 3337 H 319.862 -0.620945 -1.81153 0
M  V30 3338 H 318.167 1.11577 -3.75577 0
M  V30 3339 H 319.864 0.76826 -3.93572 0
M  V30 3340 H 316.454 -0.632956 -4.239 0
M  V30 3341 H 320.638 -1.4772 -4.73806 0
M  V30 3342 H 315.894 -2.66611 -5.50208 0
M  V30 3343 H 320.068 -3.50985 -6.01484 0
M  V30 3344 H 317.695 -4.1101 -6.39511 0
M  V30 3345 N 319.27 1.56325 -0.20005 0
M  V30 3346 C 320.516 1.98012 0.438059 0
M  V30 3347 C 320.849 1.08702 1.60927 0
M  V30 3348 O 320.124 0.140064 1.93995 0
M  V30 3349 C 320.407 3.48841 0.893419 0
M  V30 3350 C 320.26 4.48928 -0.279947 0
M  V30 3351 C 321.579 4.03498 1.75719 0
M  V30 3352 H 318.698 0.719918 0.157757 0
M  V30 3353 H 321.34 1.87743 -0.291968 0
M  V30 3354 H 319.49 3.57723 1.51547 0
M  V30 3355 H 321.162 4.52079 -0.91772 0
M  V30 3356 H 319.405 4.23694 -0.930919 0
M  V30 3357 H 320.076 5.5194 0.0812601 0
M  V30 3358 H 322.552 3.97427 1.23253 0
M  V30 3359 H 321.428 5.09393 2.04476 0
M  V30 3360 H 321.689 3.4906 2.71311 0
M  V30 3361 N 320.748 -0.0735177 1.57428 0
M  V30 3362 C 321.678 -1.0879 2.06608 0
M  V30 3363 C 322.659 -1.40473 0.959237 0
M  V30 3364 O 323.844 -1.5013 1.23185 0
M  V30 3365 C 320.974 -2.40183 2.50857 0
M  V30 3366 C 319.928 -2.22858 3.65402 0
M  V30 3367 C 319.254 -3.59619 3.957 0
M  V30 3368 C 320.554 -1.65123 4.95511 0
M  V30 3369 H 322.248 -0.678673 2.91607 0
M  V30 3370 H 319.794 -0.325013 1.40284 0
M  V30 3371 H 321.747 -3.11437 2.83874 0
M  V30 3372 H 320.471 -2.83083 1.62885 0
M  V30 3373 H 319.13 -1.54045 3.32664 0
M  V30 3374 H 318.778 -4.00086 3.04861 0
M  V30 3375 H 318.478 -3.48866 4.72828 0
M  V30 3376 H 320.002 -4.32306 4.31212 0
M  V30 3377 H 321.416 -2.26241 5.26771 0
M  V30 3378 H 319.813 -1.65071 5.7695 0
M  V30 3379 H 320.883 -0.612559 4.81015 0
M  V30 3380 N 322.226 -1.5378 -0.344866 0
M  V30 3381 C 323.474 -1.70625 -1.08311 0
M  V30 3382 C 323.795 -0.471447 -1.89215 0
M  V30 3383 O 323.065 0.514616 -1.8902 0
M  V30 3384 H 321.645 -0.629058 -0.402859 0
M  V30 3385 H 324.307 -1.9103 -0.386459 0
M  V30 3386 H 323.403 -2.57656 -1.76124 0
M  V30 3387 N 323.704 0.605807 -1.45491 0
M  V30 3388 C 324.929 1.39625 -1.53361 0
M  V30 3389 C 325.354 1.87351 -0.167645 0
M  V30 3390 O 324.712 1.60243 0.848051 0
M  V30 3391 C 324.76 2.57559 -2.5238 0
M  V30 3392 O 323.864 3.58248 -2.04285 0
M  V30 3393 H 323.205 0.416771 -0.516912 0
M  V30 3394 H 325.735 0.737103 -1.90861 0
M  V30 3395 H 325.745 3.0478 -2.71244 0
M  V30 3396 H 324.42 2.22171 -3.51586 0
M  V30 3397 H 322.997 3.17664 -1.95305 0
M  V30 3398 N 325.182 1.32811 0.848464 0
M  V30 3399 C 326.43 1.23479 1.59991 0
M  V30 3400 C 326.751 -0.201853 1.93952 0
M  V30 3401 O 326.021 -1.12818 1.60153 0
M  V30 3402 H 324.601 0.454034 0.593179 0
M  V30 3403 H 327.263 1.66412 1.01455 0
M  V30 3404 H 326.359 1.82178 2.53412 0
M  V30 3405 N 326.66 -1.06551 1.16123 0
M  V30 3406 C 327.593 -2.13382 0.80892 0
M  V30 3407 C 328.571 -1.61128 -0.21827 0
M  V30 3408 O 329.755 -1.88219 -0.102952 0
M  V30 3409 C 326.882 -3.38083 0.204303 0
M  V30 3410 C 325.928 -4.09133 1.20469 0
M  V30 3411 S 326.761 -4.5948 2.75024 0
M  V30 3412 C 327.917 -5.87446 2.16005 0
M  V30 3413 H 328.15 -2.42937 1.71373 0
M  V30 3414 H 325.683 -1.18947 0.984428 0
M  V30 3415 H 327.641 -4.10268 -0.138081 0
M  V30 3416 H 326.302 -3.0669 -0.678234 0
M  V30 3417 H 325.495 -4.98685 0.730019 0
M  V30 3418 H 325.097 -3.4295 1.49202 0
M  V30 3419 H 327.389 -6.60065 1.5271 0
M  V30 3420 H 328.332 -6.39639 3.03756 0
M  V30 3421 H 328.74 -5.41354 1.59989 0
M  V30 3422 N 328.138 -0.959301 -1.25041 0
M  V30 3423 C 329.368 -0.63303 -1.96663 0
M  V30 3424 C 329.776 0.800031 -1.71453 0
M  V30 3425 O 329.119 1.54736 -0.99008 0
M  V30 3426 C 329.181 -0.817523 -3.50081 0
M  V30 3427 C 328.845 -2.22863 -3.98975 0
M  V30 3428 C 329.842 -3.20569 -4.09306 0
M  V30 3429 C 327.527 -2.55407 -4.32519 0
M  V30 3430 C 329.521 -4.4891 -4.52503 0
M  V30 3431 C 327.208 -3.83976 -4.754 0
M  V30 3432 C 328.206 -4.8054 -4.85356 0
M  V30 3433 O 327.894 -6.06817 -5.27284 0
M  V30 3434 H 327.626 -0.235866 -0.633516 0
M  V30 3435 H 330.18 -1.2874 -1.60047 0
M  V30 3436 H 328.41 -0.105992 -3.86555 0
M  V30 3437 H 330.099 -0.491604 -4.02912 0
M  V30 3438 H 330.865 -2.96753 -3.83618 0
M  V30 3439 H 326.744 -1.8097 -4.23994 0
M  V30 3440 H 330.288 -5.24283 -4.60188 0
M  V30 3441 H 326.185 -4.07596 -5.00535 0
M  V30 3442 H 326.953 -6.10262 -5.45457 0
M  V30 3443 N 329.616 1.39756 -0.72842 0
M  V30 3444 C 330.563 2.30647 -0.0841519 0
M  V30 3445 C 331.533 1.48869 0.7367 0
M  V30 3446 O 332.718 1.77574 0.698015 0
M  V30 3447 C 329.858 3.35165 0.822091 0
M  V30 3448 C 328.971 4.31999 -0.0106663 0
M  V30 3449 C 328.106 5.23585 0.896241 0
M  V30 3450 C 327.145 6.12072 0.0583381 0
M  V30 3451 N 326.282 6.96035 0.920818 0
M  V30 3452 H 331.122 2.85173 -0.864891 0
M  V30 3453 H 328.659 1.40422 -0.438179 0
M  V30 3454 H 330.617 3.94345 1.36189 0
M  V30 3455 H 329.247 2.8211 1.56888 0
M  V30 3456 H 328.299 3.74492 -0.66781 0
M  V30 3457 H 329.611 4.9443 -0.658825 0
M  V30 3458 H 328.765 5.87759 1.50412 0
M  V30 3459 H 327.504 4.61459 1.57819 0
M  V30 3460 H 326.509 5.46916 -0.562389 0
M  V30 3461 H 327.734 6.76261 -0.6203 0
M  V30 3462 H 325.68 6.36485 1.58818 0
M  V30 3463 H 325.597 7.55284 0.32899 0
M  V30 3464 H 326.865 7.64646 1.51447 0
M  V30 3465 N 331.094 0.475555 1.50254 0
M  V30 3466 C 332.041 -0.316293 2.28622 0
M  V30 3467 C 333.011 -0.983227 1.33873 0
M  V30 3468 O 334.196 -0.994805 1.62814 0
M  V30 3469 C 331.336 -1.38975 3.1588 0
M  V30 3470 C 330.449 -0.737146 4.25664 0
M  V30 3471 C 329.584 -1.78887 5.00173 0
M  V30 3472 C 328.623 -1.11676 6.01826 0
M  V30 3473 N 327.76 -2.11154 6.69596 0
M  V30 3474 H 332.6 0.358297 2.95838 0
M  V30 3475 H 330.137 0.188541 1.45887 0
M  V30 3476 H 332.095 -2.02383 3.64825 0
M  V30 3477 H 330.725 -2.03344 2.50701 0
M  V30 3478 H 329.777 0.0096065 3.80399 0
M  V30 3479 H 331.089 -0.206816 4.98371 0
M  V30 3480 H 330.243 -2.49865 5.52859 0
M  V30 3481 H 328.982 -2.35302 4.27182 0
M  V30 3482 H 327.987 -0.392633 5.48396 0
M  V30 3483 H 329.212 -0.55945 6.76792 0
M  V30 3484 H 327.158 -2.66577 5.99394 0
M  V30 3485 H 327.075 -1.63118 7.38193 0
M  V30 3486 H 328.343 -2.81497 7.26897 0
M  V30 3487 N 332.573 -1.56217 0.208337 0
M  V30 3488 C 333.82 -1.97949 -0.42692 0
M  V30 3489 C 334.148 -1.09562 -1.60706 0
M  V30 3490 O 333.403 -0.137616 -1.95216 0
M  V30 3491 C 333.702 -3.45441 -0.916797 0
M  V30 3492 C 333.368 -4.50646 0.151391 0
M  V30 3493 C 332.03 -4.79139 0.444867 0
M  V30 3494 C 334.382 -5.13811 0.874492 0
M  V30 3495 C 331.71 -5.68084 1.46619 0
M  V30 3496 C 334.062 -6.03861 1.88506 0
M  V30 3497 C 332.726 -6.30704 2.18559 0
M  V30 3498 H 331.996 -0.724345 -0.156221 0
M  V30 3499 H 334.643 -1.89006 0.308084 0
M  V30 3500 H 332.948 -3.51521 -1.73032 0
M  V30 3501 H 334.645 -3.75094 -1.41794 0
M  V30 3502 H 331.235 -4.28511 -0.0875068 0
M  V30 3503 H 335.419 -4.91879 0.660996 0
M  V30 3504 H 330.675 -5.87151 1.7048 0
M  V30 3505 H 334.849 -6.51861 2.45051 0
M  V30 3506 H 332.476 -6.99424 2.97843 0
M  V30 3507 N 334.051 0.0651679 -1.57465 0
M  V30 3508 C 334.998 1.07675 -2.04144 0
M  V30 3509 C 335.968 1.38071 -0.923335 0
M  V30 3510 O 337.153 1.49026 -1.19146 0
M  V30 3511 C 334.293 2.38337 -2.49579 0
M  V30 3512 C 333.406 2.14413 -3.75035 0
M  V30 3513 C 332.541 3.38686 -4.09225 0
M  V30 3514 C 331.58 3.10156 -5.27702 0
M  V30 3515 N 330.717 4.26778 -5.57499 0
M  V30 3516 H 335.557 0.671716 -2.90331 0
M  V30 3517 H 333.094 0.3201 -1.43575 0
M  V30 3518 H 335.052 3.14632 -2.73975 0
M  V30 3519 H 333.682 2.7663 -1.6636 0
M  V30 3520 H 332.734 1.2878 -3.57939 0
M  V30 3521 H 334.046 1.89344 -4.61466 0
M  V30 3522 H 333.2 4.23373 -4.34558 0
M  V30 3523 H 331.939 3.66837 -3.21374 0
M  V30 3524 H 330.944 2.23866 -5.02159 0
M  V30 3525 H 332.169 2.8332 -6.17176 0
M  V30 3526 H 330.115 4.54948 -4.72608 0
M  V30 3527 H 330.032 4.05005 -6.38362 0
M  V30 3528 H 331.3 5.12443 -5.87386 0
M  V30 3529 N 335.529 1.53961 0.336706 0
M  V30 3530 C 336.94 1.62914 0.911925 0
M  V30 3531 C 337.291 0.514795 1.89326 0
M  V30 3532 O 336.416 -0.354395 2.13478 0
M  V30 3533 C 337.011 2.95304 1.66076 0
M  V30 3534 C 335.57 3.06496 2.18489 0
M  V30 3535 C 334.717 2.58403 1.00613 0
M  V30 3536 H 337.668 1.58285 0.114649 0
M  V30 3537 H 337.689 2.84727 2.5241 0
M  V30 3538 H 337.201 3.76387 0.946276 0
M  V30 3539 H 335.302 2.3006 2.93092 0
M  V30 3540 H 335.415 4.1208 2.44391 0
M  V30 3541 H 333.779 2.13977 1.38152 0
M  V30 3542 H 334.562 3.41932 0.306179 0
M  V30 3543 N 337.007 -0.598083 1.45811 0
M  V30 3544 C 337.939 -1.72231 1.51225 0
M  V30 3545 C 338.952 -1.57757 0.402059 0
M  V30 3546 O 340.141 -1.65464 0.669624 0
M  V30 3547 C 337.241 -3.10331 1.3619 0
M  V30 3548 C 336.414 -3.50955 2.61054 0
M  V30 3549 C 335.473 -4.68055 2.40439 0
M  V30 3550 O 334.499 -4.74691 3.14097 0
M  V30 3551 N 335.701 -5.61941 1.45612 0
M  V30 3552 H 338.466 -1.68046 2.48154 0
M  V30 3553 H 336.027 -0.783637 1.41671 0
M  V30 3554 H 338.019 -3.86439 1.20195 0
M  V30 3555 H 336.589 -3.0897 0.475015 0
M  V30 3556 H 335.809 -2.64711 2.92099 0
M  V30 3557 H 337.097 -3.74858 3.44034 0
M  V30 3558 H 336.495 -5.59301 0.848431 0
M  V30 3559 H 335.052 -6.37542 1.35585 0
M  V30 3560 N 338.485 -1.33259 -0.841409 0
M  V30 3561 C 339.733 -1.24326 -1.59334 0
M  V30 3562 C 340.054 0.191564 -1.94057 0
M  V30 3563 O 339.324 1.11967 -1.60749 0
M  V30 3564 H 337.904 -0.457174 -0.590763 0
M  V30 3565 H 340.566 -1.66947 -1.00571 0
M  V30 3566 H 339.662 -1.8352 -2.52442 0
M  V30 3567 N 339.963 1.05934 -1.16686 0
M  V30 3568 C 340.911 2.15603 -0.872817 0
M  V30 3569 C 341.905 1.68647 0.159576 0
M  V30 3570 O 343.111 1.79995 0.0132125 0
M  V30 3571 H 339.486 0.703885 -0.264671 0
M  V30 3572 H 341.457 2.37613 -1.80507 0
M  V30 3573 C 340.206 3.45457 -0.394344 0
M  V30 3574 H 339.529 3.81984 -1.18019 0
M  V30 3575 H 340.969 4.2339 -0.227408 0
M  V30 3576 C 339.428 3.25021 0.88673 0
M  V30 3577 O 339.958 3.50906 1.95519 0
M  V30 3578 N 338.164 2.78437 0.831925 0
M  V30 3579 H 337.711 2.57572 -0.0377619 0
M  V30 3580 H 337.669 2.65144 1.68956 0
M  V30 3581 N 341.441 0.965919 1.2453 0
M  V30 3582 C 342.69 0.622437 1.91856 0
M  V30 3583 C 343.003 -0.846006 1.76358 0
M  V30 3584 O 344.209 -1.29993 2.38357 0
M  V30 3585 C 342.665 1.0626 3.43856 0
M  V30 3586 C 342.273 2.55437 3.68043 0
M  V30 3587 C 344.017 0.792183 4.17043 0
M  V30 3588 C 341.924 2.93196 5.13605 0
M  V30 3589 H 340.854 0.229092 0.718354 0
M  V30 3590 H 343.505 1.17189 1.41206 0
M  V30 3591 H 341.887 0.441476 3.93531 0
M  V30 3592 H 343.061 3.22665 3.28974 0
M  V30 3593 H 341.376 2.8007 3.08139 0
M  V30 3594 H 343.973 1.05031 5.24283 0
M  V30 3595 H 344.316 -0.271584 4.15413 0
M  V30 3596 H 344.849 1.37419 3.73311 0
M  V30 3597 H 341.588 3.98636 5.20355 0
M  V30 3598 H 341.108 2.30651 5.53679 0
M  V30 3599 H 342.787 2.83004 5.81823 0
M  V30 3600 N 342.919 -1.39368 0.735821 0
M  V30 3601 C 343.852 -2.28155 0.0451175 0
M  V30 3602 C 344.83 -1.44433 -0.746852 0
M  V30 3603 O 346.014 -1.73823 -0.729237 0
M  V30 3604 C 343.141 -3.253 -0.943266 0
M  V30 3605 C 342.187 -4.25826 -0.239685 0
M  V30 3606 S 343.02 -5.25166 1.04693 0
M  V30 3607 C 344.176 -6.2587 0.0611639 0
M  V30 3608 H 344.409 -2.86388 0.79807 0
M  V30 3609 H 341.942 -1.45104 0.527653 0
M  V30 3610 H 343.9 -3.81789 -1.50824 0
M  V30 3611 H 342.561 -2.66085 -1.66906 0
M  V30 3612 H 341.754 -4.94229 -0.987596 0
M  V30 3613 H 341.356 -3.73141 0.253274 0
M  V30 3614 H 343.648 -6.73007 -0.778941 0
M  V30 3615 H 344.591 -7.04508 0.712362 0
M  V30 3616 H 344.999 -5.63639 -0.311602 0
M  V30 3617 N 344.397 -0.483516 -1.5 0
M  V30 3618 C 345.645 0.067027 -2.01989 0
M  V30 3619 C 345.966 1.3909 -1.36671 0
M  V30 3620 O 345.236 1.88978 -0.516152 0
M  V30 3621 H 343.816 0.0277606 -0.746484 0
M  V30 3622 H 346.478 -0.636773 -1.84204 0
M  V30 3623 H 345.574 0.209484 -3.11396 0
M  V30 3624 N 345.875 1.56104 -0.216619 0
M  V30 3625 C 346.822 2.2007 0.695531 0
M  V30 3626 C 347.792 1.15471 1.19397 0
M  V30 3627 O 348.977 1.43807 1.25396 0
M  V30 3628 C 346.117 2.88073 1.90021 0
M  V30 3629 C 345.23 4.07253 1.44113 0
M  V30 3630 C 344.365 4.63052 2.603 0
M  V30 3631 C 343.404 5.74545 2.11103 0
M  V30 3632 N 342.541 6.24656 3.20545 0
M  V30 3633 H 347.381 2.97655 0.143327 0
M  V30 3634 H 344.918 1.46982 0.0589934 0
M  V30 3635 H 346.876 3.25681 2.60745 0
M  V30 3636 H 345.506 2.13015 2.42538 0
M  V30 3637 H 344.558 3.75164 0.628999 0
M  V30 3638 H 345.87 4.8783 1.04036 0
M  V30 3639 H 345.024 5.03078 3.39113 0
M  V30 3640 H 343.763 3.81628 3.03663 0
M  V30 3641 H 342.768 5.34027 1.3075 0
M  V30 3642 H 343.993 6.57801 1.68746 0
M  V30 3643 H 341.939 5.46148 3.63399 0
M  V30 3644 H 341.856 7.00343 2.84704 0
M  V30 3645 H 343.124 6.69338 3.99508 0
M  V30 3646 N 347.353 -0.0568162 1.57498 0
M  V30 3647 C 348.599 -0.75422 1.88253 0
M  V30 3648 C 348.932 -1.76461 0.810865 0
M  V30 3649 O 348.207 -1.93691 -0.177259 0
M  V30 3650 C 348.49 -1.44878 3.2967 0
M  V30 3651 C 348.343 -0.453789 4.47505 0
M  V30 3652 C 349.662 -2.38994 3.69554 0
M  V30 3653 H 346.781 -0.272724 0.684683 0
M  V30 3654 H 349.423 -0.0172113 1.89992 0
M  V30 3655 H 347.573 -2.077 3.28318 0
M  V30 3656 H 349.245 0.170371 4.60985 0
M  V30 3657 H 347.488 0.229552 4.33192 0
M  V30 3658 H 348.159 -0.977699 5.43273 0
M  V30 3659 H 350.635 -1.86239 3.72095 0
M  V30 3660 H 349.511 -2.84587 4.69363 0
M  V30 3661 H 349.772 -3.24461 3.00296 0
M  V30 3662 N 348.832 -1.54138 -0.328536 0
M  V30 3663 C 349.795 -1.82462 -1.38709 0
M  V30 3664 C 350.795 -0.696229 -1.44946 0
M  V30 3665 O 351.985 -0.964535 -1.4506 0
M  V30 3666 C 349.117 -1.98018 -2.77492 0
M  V30 3667 H 350.31 -2.77037 -1.14851 0
M  V30 3668 H 347.863 -1.45779 -0.563751 0
M  V30 3669 H 348.598 -1.05637 -3.06613 0
M  V30 3670 H 348.383 -2.80124 -2.74359 0
M  V30 3671 H 349.873 -2.21396 -3.54081 0
M  V30 3672 N 350.31 0.590341 -1.46126 0
M  V30 3673 C 351.257 1.69994 -1.56111 0
M  V30 3674 C 352.227 1.61065 -0.405867 0
M  V30 3675 O 353.412 1.8039 -0.621613 0
M  V30 3676 C 350.552 3.08326 -1.55013 0
M  V30 3677 C 349.665 3.27936 -2.81215 0
M  V30 3678 C 348.8 4.56473 -2.71673 0
M  V30 3679 C 347.839 4.694 -3.92849 0
M  V30 3680 N 346.976 5.89254 -3.81738 0
M  V30 3681 H 351.816 1.60797 -2.50895 0
M  V30 3682 H 349.353 0.783799 -1.24479 0
M  V30 3683 H 351.311 3.88383 -1.52362 0
M  V30 3684 H 349.941 3.16439 -0.637667 0
M  V30 3685 H 348.993 2.41536 -2.93879 0
M  V30 3686 H 350.305 3.33357 -3.71045 0
M  V30 3687 H 349.459 5.44748 -2.67085 0
M  V30 3688 H 348.198 4.53477 -1.7947 0
M  V30 3689 H 347.203 3.79544 -3.97777 0
M  V30 3690 H 348.428 4.7418 -4.86138 0
M  V30 3691 H 346.374 5.87271 -2.92317 0
M  V30 3692 H 346.291 5.95911 -4.65217 0
M  V30 3693 H 347.559 6.79981 -3.81112 0
M  V30 3694 N 351.788 1.33704 0.83433 0
M  V30 3695 C 353.028 1.26754 1.60352 0
M  V30 3696 C 353.392 -0.163182 1.91305 0
M  V30 3697 O 354.593 -0.3567 2.66423 0
M  V30 3698 C 352.864 2.12262 2.8754 0
M  V30 3699 S 354.423 2.22549 3.78176 0
M  V30 3700 H 351.241 0.450879 0.549753 0
M  V30 3701 H 353.843 1.68788 0.986444 0
M  V30 3702 H 352.547 3.15238 2.62779 0
M  V30 3703 H 352.078 1.71082 3.54252 0
M  V30 3704 H 354.093 1.3899 4.76336 0
M  V30 3705 N 353.266 -1.05314 1.17247 0
M  V30 3706 C 354.515 -1.77685 0.954521 0
M  V30 3707 C 354.828 -1.88616 -0.518025 0
M  V30 3708 O 356.034 -2.57714 -0.854144 0
M  V30 3709 C 354.49 -3.19402 1.65863 0
M  V30 3710 C 354.098 -3.16605 3.16963 0
M  V30 3711 C 355.842 -3.96237 1.52303 0
M  V30 3712 C 353.749 -4.53103 3.80068 0
M  V30 3713 H 352.679 -0.666 0.353496 0
M  V30 3714 H 355.33 -1.1805 1.40486 0
M  V30 3715 H 353.712 -3.79355 1.13602 0
M  V30 3716 H 354.886 -2.66176 3.76148 0
M  V30 3717 H 353.201 -2.53268 3.30521 0
M  V30 3718 H 355.798 -4.97157 1.96822 0
M  V30 3719 H 356.141 -4.136 0.473401 0
M  V30 3720 H 356.674 -3.42829 2.01775 0
M  V30 3721 H 353.413 -4.40946 4.85023 0
M  V30 3722 H 352.933 -5.03686 3.2567 0
M  V30 3723 H 354.612 -5.22045 3.82202 0
M  V30 3724 N 354.744 -0.972509 -1.24016 0
M  V30 3725 C 355.992 -0.635776 -1.91839 0
M  V30 3726 C 356.313 0.832312 -1.76345 0
M  V30 3727 O 355.583 1.5946 -1.13795 0
M  V30 3728 H 354.163 -0.232157 -0.710009 0
M  V30 3729 H 356.825 -1.23462 -1.50809 0
M  V30 3730 H 355.921 -0.880545 -2.99421 0
M  V30 3731 N 356.222 1.38976 -0.743202 0
M  V30 3732 C 357.469 2.00343 -0.294752 0
M  V30 3733 C 357.797 1.58983 1.12047 0
M  V30 3734 O 357.052 0.813809 1.77977 0
M  V30 3735 C 357.351 3.55647 -0.353517 0
M  V30 3736 C 357.017 4.16685 -1.72292 0
M  V30 3737 C 355.679 4.3307 -2.09771 0
M  V30 3738 C 358.031 4.50464 -2.62168 0
M  V30 3739 C 355.359 4.80526 -3.36618 0
M  V30 3740 C 357.711 4.99332 -3.88395 0
M  V30 3741 C 356.375 5.13924 -4.25956 0
M  V30 3742 H 355.645 0.733108 -0.107857 0
M  V30 3743 H 358.292 1.6618 -0.951651 0
M  V30 3744 H 356.597 3.89884 0.386954 0
M  V30 3745 H 358.294 4.00998 0.0117269 0
M  V30 3746 H 354.884 4.04339 -1.42155 0
M  V30 3747 H 359.068 4.37416 -2.3448 0
M  V30 3748 H 354.324 4.90008 -3.65653 0
M  V30 3749 H 358.498 5.2444 -4.58187 0
M  V30 3750 H 356.125 5.50457 -5.2431 0
M  V30 3751 N 357.7 0.491464 1.49741 0
M  V30 3752 C 358.663 -0.280906 2.27472 0
M  V30 3753 C 359.663 -0.902454 1.33088 0
M  V30 3754 O 360.853 -0.768465 1.56334 0
M  V30 3755 C 357.985 -1.40209 3.10732 0
M  V30 3756 H 359.178 0.401056 2.97206 0
M  V30 3757 H 356.731 0.246131 1.5435 0
M  V30 3758 H 357.466 -2.11849 2.45541 0
M  V30 3759 H 357.251 -0.961969 3.80117 0
M  V30 3760 H 358.741 -1.9464 3.69466 0
M  V30 3761 N 359.178 -1.55987 0.224894 0
M  V30 3762 C 360.427 -1.97566 -0.406273 0
M  V30 3763 C 360.74 -1.11569 -1.6066 0
M  V30 3764 O 361.946 -1.43062 -2.3075 0
M  V30 3765 C 360.402 -3.51474 -0.774207 0
M  V30 3766 C 360.01 -4.46179 0.403496 0
M  V30 3767 C 361.754 -4.01758 -1.37079 0
M  V30 3768 C 359.661 -5.91399 0.0129412 0
M  V30 3769 H 358.591 -0.737777 -0.155565 0
M  V30 3770 H 361.242 -1.80659 0.321635 0
M  V30 3771 H 359.624 -3.63994 -1.55963 0
M  V30 3772 H 360.798 -4.45409 1.18101 0
M  V30 3773 H 359.113 -4.06255 0.913536 0
M  V30 3774 H 361.71 -5.07756 -1.67596 0
M  V30 3775 H 362.053 -3.47805 -2.28773 0
M  V30 3776 H 362.586 -3.92475 -0.648733 0
M  V30 3777 H 359.325 -6.49341 0.896451 0
M  V30 3778 H 358.845 -5.95356 -0.728821 0
M  V30 3779 H 360.524 -6.45683 -0.412582 0
M  V30 3780 N 360.656 0.0484629 -1.57525 0
M  V30 3781 C 361.603 1.05504 -2.05275 0
M  V30 3782 C 362.573 1.37084 -0.937927 0
M  V30 3783 O 363.758 1.47754 -1.2072 0
M  V30 3784 C 360.898 2.35676 -2.52093 0
M  V30 3785 C 360.011 2.10423 -3.77288 0
M  V30 3786 C 359.146 3.34327 -4.12794 0
M  V30 3787 C 358.185 3.04542 -5.30962 0
M  V30 3788 N 357.322 4.20841 -5.61994 0
M  V30 3789 H 362.162 0.640885 -2.91027 0
M  V30 3790 H 359.699 0.304854 -1.43906 0
M  V30 3791 H 361.657 3.11709 -2.77297 0
M  V30 3792 H 360.287 2.7485 -1.69285 0
M  V30 3793 H 359.339 1.24976 -3.59284 0
M  V30 3794 H 360.651 1.84438 -4.63448 0
M  V30 3795 H 359.805 4.1874 -4.39024 0
M  V30 3796 H 358.544 3.63408 -3.25247 0
M  V30 3797 H 357.549 2.18528 -5.04505 0
M  V30 3798 H 358.774 2.76758 -6.20146 0
M  V30 3799 H 356.72 4.4991 -4.77406 0
M  V30 3800 H 356.637 3.98212 -6.42622 0
M  V30 3801 H 357.905 5.06184 -5.92789 0
M  V30 3802 N 362.134 1.5431 0.320358 0
M  V30 3803 C 363.082 1.84647 1.4145 0
M  V30 3804 C 364.076 0.718624 1.53402 0
M  V30 3805 O 365.282 0.902335 1.5575 0
M  V30 3806 H 361.657 0.585349 0.472091 0
M  V30 3807 H 363.628 2.7614 1.13089 0
M  V30 3808 C 362.377 2.09341 2.77617 0
M  V30 3809 H 361.7 2.9559 2.69196 0
M  V30 3810 H 363.14 2.3452 3.53237 0
M  V30 3811 C 361.599 0.885939 3.25043 0
M  V30 3812 O 362.129 0.0967891 4.01583 0
M  V30 3813 N 360.335 0.696682 2.82125 0
M  V30 3814 H 359.882 1.34006 2.2 0
M  V30 3815 H 359.84 -0.109712 3.14209 0
M  V30 3816 N 363.613 -0.582584 1.46437 0
M  V30 3817 C 365.029 -0.905962 1.31394 0
M  V30 3818 C 365.229 -1.99468 0.285476 0
M  V30 3819 O 364.285 -2.50566 -0.311914 0
M  V30 3820 C 365.598 -1.3232 2.70022 0
M  V30 3821 C 367.146 -1.43604 2.78113 0
M  V30 3822 C 367.621 -1.88694 4.17323 0
M  V30 3823 N 369.112 -1.95887 4.19741 0
M  V30 3824 C 369.847 -2.32051 5.24347 0
M  V30 3825 N 369.343 -2.67006 6.39281 0
M  V30 3826 N 371.136 -2.32606 5.11713 0
M  V30 3827 H 363.287 0.1366 2.1196 0
M  V30 3828 H 365.55 -0.00155736 0.947999 0
M  V30 3829 H 365.256 -0.597242 3.46592 0
M  V30 3830 H 365.13 -2.28469 3.00136 0
M  V30 3831 H 367.517 -2.15286 2.01832 0
M  V30 3832 H 367.598 -0.457059 2.51684 0
M  V30 3833 H 367.242 -1.1759 4.941 0
M  V30 3834 H 367.172 -2.8755 4.4116 0
M  V30 3835 H 369.663 -1.71362 3.36814 0
M  V30 3836 H 369.976 -2.93554 7.14875 0
M  V30 3837 H 368.321 -2.64644 6.42642 0
M  V30 3838 H 371.512 -2.04721 4.2096 0
M  V30 3839 H 371.685 -2.60462 5.93349 0
M  V30 3840 N 365.091 -1.34144 -0.827227 0
M  V30 3841 C 366.338 -1.26258 -1.58319 0
M  V30 3842 C 366.666 0.168595 -1.93768 0
M  V30 3843 O 365.921 1.12877 -1.59866 0
M  V30 3844 C 366.22 -2.09464 -2.89585 0
M  V30 3845 C 365.886 -3.58521 -2.73448 0
M  V30 3846 C 364.548 -3.99155 -2.68754 0
M  V30 3847 C 366.9 -4.53189 -2.57428 0
M  V30 3848 C 364.228 -5.32656 -2.45957 0
M  V30 3849 C 366.58 -5.86864 -2.36163 0
M  V30 3850 C 365.244 -6.26667 -2.29879 0
M  V30 3851 H 364.514 -0.462013 -0.579332 0
M  V30 3852 H 367.161 -1.65845 -0.95748 0
M  V30 3853 H 365.466 -1.62692 -3.56425 0
M  V30 3854 H 367.163 -2.00712 -3.47154 0
M  V30 3855 H 363.753 -3.26264 -2.77939 0
M  V30 3856 H 367.937 -4.22696 -2.60081 0
M  V30 3857 H 363.193 -5.62519 -2.39546 0
M  V30 3858 H 367.367 -6.59813 -2.22754 0
M  V30 3859 H 364.994 -7.30049 -2.11975 0
M  V30 3860 N 366.569 1.04691 -1.17803 0
M  V30 3861 C 367.985 1.29963 -0.926379 0
M  V30 3862 C 368.185 1.97251 0.411635 0
M  V30 3863 O 367.241 2.24922 1.14744 0
M  V30 3864 C 368.554 2.16447 -2.08737 0
M  V30 3865 C 370.102 2.29814 -2.12496 0
M  V30 3866 C 370.577 3.19661 -3.27995 0
M  V30 3867 N 372.068 3.27247 -3.27816 0
M  V30 3868 C 372.803 3.96906 -4.13827 0
M  V30 3869 N 372.299 4.6895 -5.09959 0
M  V30 3870 N 374.092 3.93122 -4.01761 0
M  V30 3871 H 366.243 0.594182 -2.0392 0
M  V30 3872 H 368.506 0.324649 -0.890678 0
M  V30 3873 H 368.212 1.74304 -3.05469 0
M  V30 3874 H 368.086 3.17103 -2.04268 0
M  V30 3875 H 370.473 2.71196 -1.16347 0
M  V30 3876 H 370.554 1.2877 -2.21025 0
M  V30 3877 H 370.198 2.78991 -4.24413 0
M  V30 3878 H 370.128 4.20722 -3.16703 0
M  V30 3879 H 372.619 2.75921 -2.58217 0
M  V30 3880 H 372.932 5.19679 -5.71974 0
M  V30 3881 H 371.277 4.67875 -5.13924 0
M  V30 3882 H 374.468 3.35967 -3.2595 0
M  V30 3883 H 374.641 4.47139 -4.6901 0
M  V30 3884 N 368.047 0.979072 1.23499 0
M  V30 3885 C 368.997 0.489378 2.22686 0
M  V30 3886 C 369.981 -0.434871 1.54912 0
M  V30 3887 O 371.173 -0.263941 1.75021 0
M  V30 3888 C 368.302 -0.208178 3.42668 0
M  V30 3889 C 367.388 0.735563 4.17672 0
M  V30 3890 N 367.779 1.87763 4.69658 0
M  V30 3891 C 366.077 0.548625 4.42613 0
M  V30 3892 C 366.778 2.46886 5.26709 0
M  V30 3893 N 365.754 1.75287 5.14563 0
M  V30 3894 H 369.556 1.36062 2.60508 0
M  V30 3895 H 367.07 0.83958 1.39014 0
M  V30 3896 H 369.067 -0.576295 4.12898 0
M  V30 3897 H 367.727 -1.07572 3.06363 0
M  V30 3898 H 368.738 2.25885 4.66043 0
M  V30 3899 H 365.415 -0.274006 4.166 0
M  V30 3900 H 366.805 3.43326 5.77561 0
M  V30 3901 N 369.525 -1.3858 0.750561 0
M  V30 3902 C 370.941 -1.53759 0.427824 0
M  V30 3903 C 371.141 -1.71401 -1.05943 0
M  V30 3904 O 370.197 -1.72331 -1.84549 0
M  V30 3905 C 371.51 -2.74642 1.22443 0
M  V30 3906 C 373.058 -2.88489 1.2142 0
M  V30 3907 C 373.533 -4.12329 1.9937 0
M  V30 3908 N 375.024 -4.194 1.96616 0
M  V30 3909 C 375.759 -5.14209 2.53727 0
M  V30 3910 N 375.255 -6.14709 3.19539 0
M  V30 3911 N 377.048 -5.06537 2.43673 0
M  V30 3912 H 369.199 -1.25377 1.71447 0
M  V30 3913 H 371.462 -0.608844 0.726645 0
M  V30 3914 H 371.168 -2.68 2.27747 0
M  V30 3915 H 371.042 -3.67745 0.839273 0
M  V30 3916 H 373.429 -2.94614 0.169232 0
M  V30 3917 H 373.51 -1.96406 1.63885 0
M  V30 3918 H 373.154 -4.06966 3.03877 0
M  V30 3919 H 373.084 -5.03486 1.54302 0
M  V30 3920 H 375.575 -3.47421 1.48684 0
M  V30 3921 H 375.888 -6.8354 3.60545 0
M  V30 3922 H 374.233 -6.1505 3.23633 0
M  V30 3923 H 377.424 -4.26962 1.91889 0
M  V30 3924 H 377.597 -5.80245 2.88479 0
M  V30 3925 N 371.003 -0.499398 -1.49478 0
M  V30 3926 C 372.228 0.044722 -2.07352 0
M  V30 3927 C 372.653 1.30207 -1.35749 0
M  V30 3928 O 372.011 1.76516 -0.413732 0
M  V30 3929 C 372.059 0.283013 -3.59488 0
M  V30 3930 O 371.163 1.35804 -3.89398 0
M  V30 3931 H 370.504 -0.0255147 -0.66351 0
M  V30 3932 H 373.034 -0.698561 -1.92305 0
M  V30 3933 H 373.044 0.515007 -4.04737 0
M  V30 3934 H 371.719 -0.635636 -4.11014 0
M  V30 3935 H 370.296 1.11113 -3.55961 0
M  V30 3936 N 372.481 1.55866 -0.233164 0
M  V30 3937 C 373.428 2.20796 0.67215 0
M  V30 3938 C 374.398 1.16731 1.18166 0
M  V30 3939 O 375.583 1.45129 1.23864 0
M  V30 3940 C 372.723 2.90072 1.86955 0
M  V30 3941 C 371.836 4.08759 1.39786 0
M  V30 3942 C 370.971 4.65787 2.55374 0
M  V30 3943 C 370.01 5.76752 2.04998 0
M  V30 3944 N 369.147 6.28021 3.13901 0
M  V30 3945 H 373.987 2.9779 0.111749 0
M  V30 3946 H 371.524 1.47036 0.0434007 0
M  V30 3947 H 373.482 3.28428 2.57276 0
M  V30 3948 H 372.112 2.15575 2.40265 0
M  V30 3949 H 371.164 3.7581 0.589173 0
M  V30 3950 H 372.476 4.88906 0.98856 0
M  V30 3951 H 371.63 5.06646 3.33758 0
M  V30 3952 H 370.369 3.84828 2.99598 0
M  V30 3953 H 369.374 5.35383 1.25079 0
M  V30 3954 H 370.599 6.59553 1.61759 0
M  V30 3955 H 368.545 5.49971 3.57586 0
M  V30 3956 H 368.462 7.03323 2.7726 0
M  V30 3957 H 369.73 6.73538 3.92386 0
M  V30 3958 N 373.959 -0.0401083 1.57549 0
M  V30 3959 C 374.922 -1.02871 2.04817 0
M  V30 3960 C 375.922 -1.29708 0.950388 0
M  V30 3961 O 377.112 -1.24897 1.21435 0
M  V30 3962 C 374.244 -2.36443 2.45576 0
M  V30 3963 H 375.437 -0.620631 2.93408 0
M  V30 3964 H 372.99 -0.286667 1.53649 0
M  V30 3965 H 373.725 -2.82021 1.60108 0
M  V30 3966 H 373.51 -2.18296 3.25713 0
M  V30 3967 H 375 -3.07441 2.82612 0
M  V30 3968 N 375.437 -1.54477 -0.31217 0
M  V30 3969 C 376.684 -1.73227 -1.04875 0
M  V30 3970 C 377.012 -0.512042 -1.87639 0
M  V30 3971 O 376.267 0.506131 -1.89042 0
M  V30 3972 C 376.566 -2.967 -1.99258 0
M  V30 3973 C 376.232 -4.30974 -1.32559 0
M  V30 3974 C 374.894 -4.67477 -1.141 0
M  V30 3975 C 377.246 -5.14258 -0.847835 0
M  V30 3976 C 374.574 -5.84852 -0.465326 0
M  V30 3977 C 376.926 -6.32327 -0.185931 0
M  V30 3978 C 375.59 -6.67499 0.0107077 0
M  V30 3979 H 374.86 -0.633881 -0.383765 0
M  V30 3980 H 377.507 -1.88727 -0.324731 0
M  V30 3981 H 375.812 -2.75935 -2.7815 0
M  V30 3982 H 377.509 -3.08401 -2.563 0
M  V30 3983 H 374.099 -4.02262 -1.4793 0
M  V30 3984 H 378.283 -4.86565 -0.978192 0
M  V30 3985 H 373.539 -6.10654 -0.301883 0
M  V30 3986 H 377.713 -6.96135 0.192211 0
M  V30 3987 H 375.34 -7.58306 0.536287 0
M  V30 3988 N 376.915 0.57481 -1.46744 0
M  V30 3989 C 378.326 1.15695 -1.46532 0
M  V30 3990 C 378.677 1.95068 -0.210425 0
M  V30 3991 O 377.802 2.05241 0.685944 0
M  V30 3992 C 378.397 2.1048 -2.65487 0
M  V30 3993 C 376.956 2.64002 -2.68291 0
M  V30 3994 C 376.103 1.40026 -2.39349 0
M  V30 3995 H 379.054 0.362325 -1.54509 0
M  V30 3996 H 379.075 2.94074 -2.41455 0
M  V30 3997 H 378.587 1.52683 -3.56805 0
M  V30 3998 H 376.688 3.25646 -1.81067 0
M  V30 3999 H 376.801 3.06197 -3.68483 0
M  V30 4000 H 375.165 1.70106 -1.89568 0
M  V30 4001 H 375.948 0.840485 -3.32852 0
M  V30 4002 N 378.394 1.34581 0.820102 0
M  V30 4003 C 379.341 1.2639 1.93117 0
M  V30 4004 C 380.311 0.138554 1.65521 0
M  V30 4005 O 381.496 0.320004 1.88097 0
M  V30 4006 C 378.636 1.02812 3.29429 0
M  V30 4007 C 377.749 2.24146 3.693 0
M  V30 4008 C 376.884 1.93829 4.94574 0
M  V30 4009 C 375.923 3.1129 5.27034 0
M  V30 4010 N 375.06 2.80838 6.43486 0
M  V30 4011 H 379.9 2.21408 1.99455 0
M  V30 4012 H 377.437 1.10077 0.975784 0
M  V30 4013 H 379.395 0.871788 4.0799 0
M  V30 4014 H 378.025 0.114612 3.22596 0
M  V30 4015 H 377.077 2.50691 2.86109 0
M  V30 4016 H 378.389 3.11899 3.89257 0
M  V30 4017 H 377.543 1.74948 5.80929 0
M  V30 4018 H 376.282 1.03341 4.76626 0
M  V30 4019 H 375.287 3.30764 4.39175 0
M  V30 4020 H 376.512 4.02561 5.4692 0
M  V30 4021 H 374.458 1.92929 6.26988 0
M  V30 4022 H 374.375 3.62123 6.63629 0
M  V30 4023 H 375.643 2.65467 7.32903 0
M  V30 4024 N 379.872 -1.04064 1.18357 0
M  V30 4025 C 381.288 -1.2947 0.933258 0
M  V30 4026 C 381.488 -1.97466 -0.401169 0
M  V30 4027 O 380.544 -2.25528 -1.13549 0
M  V30 4028 C 381.857 -2.15337 2.09882 0
M  V30 4029 C 383.405 -2.28683 2.13712 0
M  V30 4030 C 383.88 -3.17917 3.29686 0
M  V30 4031 N 385.371 -3.25504 3.29547 0
M  V30 4032 C 386.106 -3.94706 4.15926 0
M  V30 4033 N 385.602 -4.66239 5.12439 0
M  V30 4034 N 387.395 -3.90986 4.0384 0
M  V30 4035 H 379.546 -0.583359 2.04232 0
M  V30 4036 H 381.809 -0.319921 0.892387 0
M  V30 4037 H 381.515 -1.72682 3.06389 0
M  V30 4038 H 381.389 -3.16015 2.05947 0
M  V30 4039 H 383.776 -2.70575 1.17784 0
M  V30 4040 H 383.857 -1.27596 2.21705 0
M  V30 4041 H 383.501 -2.76736 4.25887 0
M  V30 4042 H 383.431 -4.19036 3.1893 0
M  V30 4043 H 385.922 -2.74547 2.59677 0
M  V30 4044 H 386.235 -5.16638 5.74722 0
M  V30 4045 H 384.58 -4.65143 5.16398 0
M  V30 4046 H 387.771 -3.34234 3.27727 0
M  V30 4047 H 387.944 -4.44646 4.71375 0
M  V30 4048 N 381.35 -0.985608 -1.22978 0
M  V30 4049 C 382.26 -0.538548 -2.28335 0
M  V30 4050 C 383.276 0.409163 -1.69121 0
M  V30 4051 O 384.452 0.277797 -1.99475 0
M  V30 4052 C 381.517 0.146867 -3.46389 0
M  V30 4053 C 380.578 -0.842896 -4.20944 0
M  V30 4054 C 379.811 -0.190095 -5.33361 0
M  V30 4055 O 380.034 1.01767 -5.61248 0
M  V30 4056 O 378.968 -0.891289 -5.95264 0
M  V30 4057 H 382.794 -1.41487 -2.68729 0
M  V30 4058 H 380.379 -0.753495 -1.29007 0
M  V30 4059 H 382.261 0.531125 -4.1804 0
M  V30 4060 H 380.936 0.997871 -3.07935 0
M  V30 4061 H 379.843 -1.27795 -3.51595 0
M  V30 4062 H 381.176 -1.66287 -4.6326 0
M  V30 4063 N 382.828 1.3818 -0.7579 0
M  V30 4064 C 383.778 2.27741 -0.108674 0
M  V30 4065 C 384.762 1.45415 0.688709 0
M  V30 4066 O 385.954 1.68108 0.553956 0
M  V30 4067 C 383.083 3.34313 0.780367 0
M  V30 4068 C 382.169 4.24093 -0.0240977 0
M  V30 4069 N 382.56 4.9451 -1.06271 0
M  V30 4070 C 380.858 4.45542 0.202049 0
M  V30 4071 C 381.559 5.60675 -1.54979 0
M  V30 4072 N 380.535 5.36684 -0.864348 0
M  V30 4073 H 384.337 2.79649 -0.904071 0
M  V30 4074 H 381.851 1.51133 -0.594346 0
M  V30 4075 H 383.848 3.97368 1.26114 0
M  V30 4076 H 382.508 2.83962 1.57467 0
M  V30 4077 H 383.519 4.97345 -1.44459 0
M  V30 4078 H 380.196 4.06091 0.96935 0
M  V30 4079 H 381.586 6.26992 -2.41517 0
M  V30 4080 N 384.306 0.507319 1.49211 0
M  V30 4081 C 385.552 -0.0269732 2.03382 0
M  V30 4082 C 385.907 -1.34111 1.37957 0
M  V30 4083 O 385.2 -1.84733 0.508351 0
M  V30 4084 C 385.394 -0.229513 3.56662 0
M  V30 4085 C 385.223 1.06344 4.36945 0
M  V30 4086 C 383.993 1.617 4.78729 0
M  V30 4087 C 386.191 1.96833 4.75143 0
M  V30 4088 N 384.173 2.8552 5.43463 0
M  V30 4089 C 385.544 3.0523 5.39661 0
M  V30 4090 C 387.599 1.97434 4.57082 0
M  V30 4091 C 386.302 4.14265 5.88028 0
M  V30 4092 C 388.328 3.05448 5.06414 0
M  V30 4093 C 387.69 4.12564 5.70938 0
M  V30 4094 H 383.789 0.0310673 0.781383 0
M  V30 4095 H 386.373 0.683579 1.82305 0
M  V30 4096 H 384.544 -0.909127 3.7761 0
M  V30 4097 H 386.276 -0.761377 3.97473 0
M  V30 4098 H 383.031 1.16132 4.59141 0
M  V30 4099 H 383.455 3.48499 5.80412 0
M  V30 4100 H 388.097 1.15924 4.06597 0
M  V30 4101 H 385.815 4.96569 6.3753 0
M  V30 4102 H 389.401 3.06941 4.94246 0
M  V30 4103 H 388.281 4.94767 6.0842 0
M  V30 4104 N 385.784 -1.5574 0.241426 0
M  V30 4105 C 386.714 -2.24133 -0.654722 0
M  V30 4106 C 387.695 -1.21974 -1.1856 0
M  V30 4107 O 388.88 -1.50612 -1.22595 0
M  V30 4108 C 386.01 -2.93659 -1.85423 0
M  V30 4109 C 384.964 -4.0246 -1.45636 0
M  V30 4110 C 384.29 -4.59383 -2.73626 0
M  V30 4111 C 385.59 -5.18468 -0.631506 0
M  V30 4112 H 387.284 -2.99281 -0.0844353 0
M  V30 4113 H 384.83 -1.43947 -0.0391707 0
M  V30 4114 H 386.783 -3.40203 -2.48676 0
M  V30 4115 H 385.507 -2.15991 -2.44981 0
M  V30 4116 H 384.166 -3.56676 -0.847202 0
M  V30 4117 H 383.814 -3.78422 -3.3137 0
M  V30 4118 H 383.514 -5.32826 -2.4773 0
M  V30 4119 H 385.038 -5.08658 -3.37786 0
M  V30 4120 H 386.452 -5.61272 -1.1682 0
M  V30 4121 H 384.849 -5.98266 -0.468831 0
M  V30 4122 H 385.919 -4.8358 0.357506 0
M  V30 4123 N 387.262 0.0317525 -1.57568 0
M  V30 4124 C 388.539 0.758366 -1.803 0
M  V30 4125 C 388.919 1.93718 -0.838845 0
M  V30 4126 O 388.267 2.28187 0.119571 0
M  V30 4127 C 388.477 1.19392 -3.27943 0
M  V30 4128 C 389.825 1.61094 -3.92854 0
M  V30 4129 O 390.849 1.28857 -3.32076 0
M  V30 4130 O 389.708 2.20918 -4.99858 0
M  V30 4131 H 386.802 0.366514 -0.741348 0
M  V30 4132 H 389.348 0.00873765 -1.69698 0
M  V30 4133 H 388.12 0.352275 -3.89711 0
M  V30 4134 H 387.743 2.00365 -3.43424 0
M  V30 4135 N 388.74 1.54641 0.303973 0
M  V30 4136 C 389.986 1.74969 1.03718 0
M  V30 4137 C 390.341 0.527461 1.85029 0
M  V30 4138 O 389.634 -0.480143 1.85486 0
M  V30 4139 C 389.828 2.97753 1.97681 0
M  V30 4140 C 389.657 4.318 1.25613 0
M  V30 4141 C 388.427 4.95616 0.984518 0
M  V30 4142 C 390.625 5.10021 0.662081 0
M  V30 4143 N 388.607 6.13455 0.233794 0
M  V30 4144 C 389.978 6.19984 0.0439736 0
M  V30 4145 C 392.033 4.94663 0.566835 0
M  V30 4146 C 390.736 7.16264 -0.66016 0
M  V30 4147 C 392.762 5.91271 -0.123637 0
M  V30 4148 C 392.124 7.00601 -0.730608 0
M  V30 4149 H 388.223 0.692873 0.362562 0
M  V30 4150 H 390.807 1.92116 0.316135 0
M  V30 4151 H 388.978 2.82036 2.6704 0
M  V30 4152 H 390.71 3.06621 2.64132 0
M  V30 4153 H 387.465 4.55921 1.28191 0
M  V30 4154 H 387.889 6.76879 -0.127996 0
M  V30 4155 H 392.531 4.10267 1.02181 0
M  V30 4156 H 390.249 8.00204 -1.12691 0
M  V30 4157 H 393.835 5.81466 -0.197236 0
M  V30 4158 H 392.715 7.7407 -1.2564 0
M  V30 4159 N 390.218 -0.567019 1.47046 0
M  V30 4160 C 391.181 -1.65696 1.58359 0
M  V30 4161 C 392.181 -1.54097 0.459441 0
M  V30 4162 O 393.371 -1.58432 0.724225 0
M  V30 4163 C 390.503 -3.05197 1.51879 0
M  V30 4164 H 391.696 -1.57019 2.5551 0
M  V30 4165 H 389.249 -0.786148 1.3509 0
M  V30 4166 H 389.984 -3.19417 0.560673 0
M  V30 4167 H 389.769 -3.15025 2.33455 0
M  V30 4168 H 391.259 -3.84511 1.62913 0
M  V30 4169 N 391.696 -1.35014 -0.812953 0
M  V30 4170 C 392.643 -1.27412 -1.92444 0
M  V30 4171 C 393.613 -0.14733 -1.65445 0
M  V30 4172 O 394.798 -0.329974 -1.87925 0
M  V30 4173 C 391.938 -1.04558 -3.28879 0
M  V30 4174 C 391.051 -2.26101 -3.68106 0
M  V30 4175 C 390.186 -1.96449 -4.9354 0
M  V30 4176 C 389.225 -3.14081 -5.25376 0
M  V30 4177 N 388.362 -2.84246 -6.41988 0
M  V30 4178 H 393.202 -2.22463 -1.98278 0
M  V30 4179 H 390.739 -1.10593 -0.969933 0
M  V30 4180 H 392.697 -0.893413 -4.07522 0
M  V30 4181 H 391.327 -0.131719 -3.22531 0
M  V30 4182 H 390.379 -2.52204 -2.84775 0
M  V30 4183 H 391.691 -3.13959 -3.87597 0
M  V30 4184 H 390.845 -1.78026 -5.79993 0
M  V30 4185 H 389.584 -1.05867 -4.76071 0
M  V30 4186 H 388.589 -3.33089 -4.37415 0
M  V30 4187 H 389.814 -4.05455 -5.44778 0
M  V30 4188 H 387.76 -1.96252 -6.25956 0
M  V30 4189 H 387.677 -3.65637 -6.61699 0
M  V30 4190 H 388.945 -2.6935 -7.31485 0
M  V30 4191 N 393.175 1.03435 -1.18907 0
M  V30 4192 C 394.085 2.15075 -0.937015 0
M  V30 4193 C 395.101 1.73706 0.101085 0
M  V30 4194 O 396.277 2.01232 -0.0822948 0
M  V30 4195 C 393.342 3.43458 -0.473057 0
M  V30 4196 C 392.403 3.99172 -1.57989 0
M  V30 4197 C 391.636 5.21427 -1.13797 0
M  V30 4198 O 391.859 5.704 0.000725941 0
M  V30 4199 O 390.793 5.69837 -1.9383 0
M  V30 4200 H 394.619 2.39198 -1.87131 0
M  V30 4201 H 392.204 1.13506 -0.971427 0
M  V30 4202 H 394.086 4.20811 -0.222702 0
M  V30 4203 H 392.761 3.20793 0.432869 0
M  V30 4204 H 391.668 3.23178 -1.88433 0
M  V30 4205 H 393.001 4.2619 -2.46217 0
M  V30 4206 N 394.653 0.992116 1.22453 0
M  V30 4207 C 395.6 0.541731 2.24352 0
M  V30 4208 C 396.57 -0.425519 1.60557 0
M  V30 4209 O 397.755 -0.330453 1.87917 0
M  V30 4210 C 394.895 -0.138248 3.44823 0
M  V30 4211 C 394.008 0.870649 4.23136 0
M  V30 4212 C 393.143 0.164269 5.30946 0
M  V30 4213 C 392.182 1.16159 6.00977 0
M  V30 4214 N 391.319 0.483568 7.00433 0
M  V30 4215 H 396.159 1.41541 2.62241 0
M  V30 4216 H 393.696 0.709013 1.28885 0
M  V30 4217 H 395.654 -0.5494 4.13567 0
M  V30 4218 H 394.284 -0.975721 3.077 0
M  V30 4219 H 393.336 1.40013 3.53696 0
M  V30 4220 H 394.648 1.63014 4.7141 0
M  V30 4221 H 393.802 -0.303653 6.0594 0
M  V30 4222 H 392.541 -0.627733 4.83643 0
M  V30 4223 H 391.546 1.64015 5.24766 0
M  V30 4224 H 392.771 1.95445 6.50368 0
M  V30 4225 H 390.717 -0.289012 6.55363 0
M  V30 4226 H 390.634 1.18152 7.4671 0
M  V30 4227 H 391.902 0.0384219 7.79491 0
M  V30 4228 N 396.131 -1.37776 0.765217 0
M  V30 4229 C 397.361 -2.03828 0.337277 0
M  V30 4230 C 397.769 -1.57841 -1.04321 0
M  V30 4231 O 397.112 -0.752043 -1.67601 0
M  V30 4232 C 397.174 -3.58292 0.294407 0
M  V30 4233 C 396.838 -4.27384 1.61838 0
M  V30 4234 C 397.835 -4.51956 2.56967 0
M  V30 4235 C 395.52 -4.65345 1.89102 0
M  V30 4236 C 397.514 -5.13536 3.77571 0
M  V30 4237 C 395.201 -5.26647 3.09978 0
M  V30 4238 C 396.199 -5.50679 4.04032 0
M  V30 4239 O 395.887 -6.10702 5.2278 0
M  V30 4240 H 395.619 -0.661292 0.140248 0
M  V30 4241 H 398.173 -1.77222 1.03834 0
M  V30 4242 H 396.403 -3.83918 -0.462983 0
M  V30 4243 H 398.092 -4.05763 -0.105581 0
M  V30 4244 H 398.858 -4.23048 2.37183 0
M  V30 4245 H 394.737 -4.45978 1.16725 0
M  V30 4246 H 398.281 -5.3221 4.50997 0
M  V30 4247 H 394.178 -5.54979 3.29649 0
M  V30 4248 H 394.946 -6.29183 5.23517 0
M  V30 4249 N 397.609 -0.515225 -1.4894 0
M  V30 4250 C 398.886 0.0879088 -1.95402 0
M  V30 4251 C 399.266 1.52745 -1.45712 0
M  V30 4252 O 398.614 2.18238 -0.677093 0
M  V30 4253 C 398.824 -0.0141055 -3.48997 0
M  V30 4254 C 400.172 0.152646 -4.24326 0
M  V30 4255 O 401.196 0.0604025 -3.56149 0
M  V30 4256 O 400.055 0.34384 -5.45417 0
M  V30 4257 H 397.149 0.0874636 -0.822362 0
M  V30 4258 H 399.695 -0.578775 -1.59525 0
M  V30 4259 H 398.467 -1.01745 -3.77841 0
M  V30 4260 H 398.09 0.692091 -3.9153 0
M  V30 4261 N 399.087 1.5561 -0.249682 0
M  V30 4262 C 399.997 2.25143 0.659375 0
M  V30 4263 C 401.013 1.2685 1.19101 0
M  V30 4264 O 402.189 1.59732 1.22669 0
M  V30 4265 C 399.254 2.93945 1.8384 0
M  V30 4266 C 398.315 4.07655 1.34596 0
M  V30 4267 C 397.548 4.73167 2.46878 0
M  V30 4268 O 397.771 4.37768 3.65671 0
M  V30 4269 O 396.705 5.61623 2.16478 0
M  V30 4270 H 400.531 3.03545 0.0968698 0
M  V30 4271 H 398.116 1.49389 -0.018074 0
M  V30 4272 H 399.998 3.37271 2.52638 0
M  V30 4273 H 398.673 2.18481 2.38847 0
M  V30 4274 H 397.58 3.68839 0.625174 0
M  V30 4275 H 398.913 4.84946 0.841941 0
M  V30 4276 N 400.565 -0.0233959 1.57583 0
M  V30 4277 C 401.981 -0.379134 1.55031 0
M  V30 4278 C 402.181 -1.76255 0.976548 0
M  V30 4279 O 401.237 -2.45266 0.600078 0
M  V30 4280 C 402.55 -0.275792 2.99433 0
M  V30 4281 C 404.098 -0.352458 3.11009 0
M  V30 4282 C 404.573 -0.278501 4.57152 0
M  V30 4283 N 406.064 -0.337123 4.61972 0
M  V30 4284 C 406.799 -0.302876 5.726 0
M  V30 4285 N 406.295 -0.220589 6.92449 0
M  V30 4286 N 408.088 -0.353023 5.6099 0
M  V30 4287 H 400.239 0.881869 1.93227 0
M  V30 4288 H 402.502 0.335867 0.886509 0
M  V30 4289 H 402.208 0.675108 3.4516 0
M  V30 4290 H 402.082 -1.06721 3.61788 0
M  V30 4291 H 404.469 -1.29379 2.65226 0
M  V30 4292 H 404.55 0.468409 2.51475 0
M  V30 4293 H 404.194 0.659189 5.03604 0
M  V30 4294 H 404.124 -1.11755 5.14605 0
M  V30 4295 H 406.615 -0.403002 3.75745 0
M  V30 4296 H 406.928 -0.199713 7.72542 0
M  V30 4297 H 405.273 -0.186555 6.9475 0
M  V30 4298 H 408.464 -0.415339 4.66254 0
M  V30 4299 H 408.637 -0.322866 6.47195 0
M  V30 4300 N 402.043 -1.548 -0.295768 0
M  V30 4301 C 402.973 -1.89115 -1.36959 0
M  V30 4302 C 403.954 -0.75059 -1.52644 0
M  V30 4303 O 405.139 -1.00678 -1.66065 0
M  V30 4304 C 402.269 -2.14307 -2.73295 0
M  V30 4305 C 401.223 -3.30151 -2.72368 0
M  V30 4306 C 400.549 -3.40772 -4.12042 0
M  V30 4307 C 401.849 -4.67126 -2.33646 0
M  V30 4308 H 403.543 -2.79053 -1.08488 0
M  V30 4309 H 401.089 -1.34266 -0.520443 0
M  V30 4310 H 403.042 -2.36898 -3.48507 0
M  V30 4311 H 401.766 -1.21145 -3.03301 0
M  V30 4312 H 400.425 -3.0749 -1.99613 0
M  V30 4313 H 400.073 -2.45117 -4.39234 0
M  V30 4314 H 399.773 -4.18645 -4.12322 0
M  V30 4315 H 401.297 -3.6563 -4.89027 0
M  V30 4316 H 402.711 -4.89414 -2.98575 0
M  V30 4317 H 401.108 -5.47751 -2.45129 0
M  V30 4318 H 402.178 -4.67489 -1.28772 0
M  V30 4319 N 403.521 0.559213 -1.47345 0
M  V30 4320 C 404.77 1.31281 -1.53128 0
M  V30 4321 C 405.083 1.94602 -0.197344 0
M  V30 4322 O 406.289 2.71173 -0.133154 0
M  V30 4323 C 404.745 2.38051 -2.69925 0
M  V30 4324 C 404.353 1.8093 -4.0984 0
M  V30 4325 C 406.097 3.14604 -2.84999 0
M  V30 4326 C 404.004 2.85468 -5.1794 0
M  V30 4327 H 402.934 0.493614 -0.569966 0
M  V30 4328 H 405.585 0.594155 -1.73615 0
M  V30 4329 H 403.967 3.12822 -2.42814 0
M  V30 4330 H 405.141 1.12544 -4.46845 0
M  V30 4331 H 403.456 1.16967 -3.99634 0
M  V30 4332 H 406.053 3.92666 -3.62929 0
M  V30 4333 H 406.396 3.68665 -1.93369 0
M  V30 4334 H 406.929 2.46945 -3.1187 0
M  V30 4335 H 403.668 2.36264 -6.1144 0
M  V30 4336 H 403.188 3.52269 -4.85455 0
M  V30 4337 H 404.867 3.48996 -5.44803 0
M  V30 4338 N 404.999 1.35443 0.805782 0
M  V30 4339 C 406.224 1.32037 1.59941 0
M  V30 4340 C 406.649 -0.0994215 1.87837 0
M  V30 4341 O 406.007 -1.06648 1.46615 0
M  V30 4342 C 406.055 2.13354 2.90711 0
M  V30 4343 O 405.159 1.5148 3.83572 0
M  V30 4344 H 404.5 0.452666 0.485787 0
M  V30 4345 H 407.03 1.78496 1.00002 0
M  V30 4346 H 407.04 2.25338 3.40128 0
M  V30 4347 H 405.715 3.16572 2.69732 0
M  V30 4348 H 404.292 1.4834 3.42125 0
M  V30 4349 N 406.477 -1.02803 1.19454 0
M  V30 4350 C 407.409 -2.11181 0.890807 0
M  V30 4351 C 408.422 -1.6238 -0.116829 0
M  V30 4352 O 409.611 -1.78144 0.112694 0
M  V30 4353 C 406.711 -3.37461 0.311942 0
M  V30 4354 C 405.884 -4.15446 1.36834 0
M  V30 4355 C 404.943 -5.20039 0.802864 0
M  V30 4356 O 403.969 -5.49602 1.48077 0
M  V30 4357 N 405.171 -5.79165 -0.393417 0
M  V30 4358 H 407.936 -2.37827 1.82369 0
M  V30 4359 H 405.497 -1.19101 1.09666 0
M  V30 4360 H 407.489 -4.0462 -0.0802225 0
M  V30 4361 H 406.059 -3.08156 -0.52524 0
M  V30 4362 H 405.279 -3.43423 1.93531 0
M  V30 4363 H 406.567 -4.64335 2.08015 0
M  V30 4364 H 405.965 -5.57466 -0.961658 0
M  V30 4365 H 404.522 -6.47729 -0.727351 0
M  V30 4366 N 407.956 -0.998596 -1.21925 0
M  V30 4367 C 409.205 -0.673085 -1.90138 0
M  V30 4368 C 409.518 0.79895 -1.78539 0
M  V30 4369 O 410.724 1.23628 -2.4172 0
M  V30 4370 C 409.18 -1.15339 -3.40918 0
M  V30 4371 C 408.788 -2.65106 -3.61141 0
M  V30 4372 C 410.532 -0.902476 -4.14796 0
M  V30 4373 C 408.439 -3.0671 -5.05651 0
M  V30 4374 H 407.369 -0.248057 -0.712028 0
M  V30 4375 H 410.02 -1.20891 -1.38049 0
M  V30 4376 H 408.402 -0.545658 -3.92223 0
M  V30 4377 H 409.576 -3.31274 -3.20304 0
M  V30 4378 H 407.891 -2.88142 -3.00605 0
M  V30 4379 H 410.488 -1.18895 -5.21314 0
M  V30 4380 H 410.831 0.161349 -4.15987 0
M  V30 4381 H 411.364 -1.47269 -3.69536 0
M  V30 4382 H 408.103 -4.12292 -5.09603 0
M  V30 4383 H 407.623 -2.45249 -5.47369 0
M  V30 4384 H 409.302 -2.9833 -5.74115 0
M  V30 4385 N 409.434 1.37368 -0.772513 0
M  V30 4386 C 410.381 2.30262 -0.157488 0
M  V30 4387 C 411.351 1.51137 0.688965 0
M  V30 4388 O 412.536 1.79704 0.641168 0
M  V30 4389 C 409.676 3.37611 0.715045 0
M  V30 4390 C 408.789 4.31746 -0.148098 0
M  V30 4391 C 407.924 5.26171 0.729213 0
M  V30 4392 C 406.963 6.11948 -0.136418 0
M  V30 4393 N 406.1 6.98613 0.698914 0
M  V30 4394 H 410.94 2.82277 -0.955179 0
M  V30 4395 H 408.477 1.38957 -0.482631 0
M  V30 4396 H 410.435 3.98479 1.23575 0
M  V30 4397 H 409.065 2.86959 1.47833 0
M  V30 4398 H 408.117 3.72178 -0.786613 0
M  V30 4399 H 409.429 4.92084 -0.81579 0
M  V30 4400 H 408.583 5.92247 1.31637 0
M  V30 4401 H 407.322 4.66246 1.43059 0
M  V30 4402 H 406.327 5.4485 -0.736102 0
M  V30 4403 H 407.552 6.73945 -0.835134 0
M  V30 4404 H 405.498 6.41215 1.38489 0
M  V30 4405 H 405.415 7.55948 0.0885358 0
M  V30 4406 H 406.683 7.69077 1.27044 0
M  V30 4407 N 410.912 0.523116 1.48665 0
M  V30 4408 C 411.845 -0.290518 2.26343 0
M  V30 4409 C 412.823 -0.950913 1.31895 0
M  V30 4410 O 414.007 -0.976662 1.61225 0
M  V30 4411 C 411.134 -1.41088 3.07915 0
M  V30 4412 C 410.18 -0.862597 4.17686 0
M  V30 4413 S 411.013 0.264135 5.34848 0
M  V30 4414 C 412.169 -0.858864 6.19979 0
M  V30 4415 H 412.402 0.368726 2.95005 0
M  V30 4416 H 409.935 0.30878 1.51281 0
M  V30 4417 H 411.893 -2.0527 3.55492 0
M  V30 4418 H 410.554 -2.04182 2.38681 0
M  V30 4419 H 409.747 -1.70287 4.74361 0
M  V30 4420 H 409.349 -0.297595 3.72814 0
M  V30 4421 H 411.641 -1.7591 6.54264 0
M  V30 4422 H 412.584 -0.330244 7.07329 0
M  V30 4423 H 412.992 -1.13617 5.52948 0
M  V30 4424 N 412.39 -1.55475 0.257931 0
M  V30 4425 C 413.636 -1.99502 -0.364266 0
M  V30 4426 C 413.969 -1.146 -1.56782 0
M  V30 4427 O 413.244 -0.211968 -1.93342 0
M  V30 4428 C 413.527 -3.51917 -0.763333 0
M  V30 4429 C 413.38 -4.4758 0.446371 0
M  V30 4430 C 414.699 -4.09742 -1.60623 0
M  V30 4431 H 411.818 -0.725277 -0.130929 0
M  V30 4432 H 414.46 -1.8653 0.361446 0
M  V30 4433 H 412.61 -3.63101 -1.38166 0
M  V30 4434 H 414.282 -4.48362 1.08487 0
M  V30 4435 H 412.525 -4.19947 1.08753 0
M  V30 4436 H 413.196 -5.51862 0.123645 0
M  V30 4437 H 415.672 -4.01727 -1.08418 0
M  V30 4438 H 414.548 -5.16631 -1.85429 0
M  V30 4439 H 414.809 -3.58889 -2.58169 0
M  V30 4440 N 413.868 0.0150385 -1.57593 0
M  V30 4441 C 415.096 0.714395 -1.94175 0
M  V30 4442 C 415.511 1.68135 -0.858841 0
M  V30 4443 O 414.868 1.81766 0.163567 0
M  V30 4444 C 414.919 1.45933 -3.30735 0
M  V30 4445 O 414.64 0.531167 -4.34868 0
M  V30 4446 C 416.141 2.25456 -3.81686 0
M  V30 4447 H 413.361 0.199923 -0.640525 0
M  V30 4448 H 415.905 -0.0316096 -2.04476 0
M  V30 4449 H 414.06 2.15709 -3.21789 0
M  V30 4450 H 414.474 1.05509 -5.13778 0
M  V30 4451 H 415.948 2.731 -4.79709 0
M  V30 4452 H 416.425 3.07485 -3.13607 0
M  V30 4453 H 417.031 1.60727 -3.9376 0
M  V30 4454 N 415.346 1.54954 0.287554 0
M  V30 4455 C 416.762 1.46469 0.633964 0
M  V30 4456 C 416.962 0.666865 1.90145 0
M  V30 4457 O 416.018 0.179906 2.51858 0
M  V30 4458 C 417.331 2.90556 0.774454 0
M  V30 4459 C 418.879 3.00681 0.869462 0
M  V30 4460 C 419.354 4.45993 1.04184 0
M  V30 4461 N 420.845 4.4976 1.10772 0
M  V30 4462 C 421.58 5.59393 1.25964 0
M  V30 4463 N 421.076 6.78923 1.37968 0
M  V30 4464 N 422.869 5.47107 1.28959 0
M  V30 4465 H 415.02 2.05288 -0.545041 0
M  V30 4466 H 417.283 0.930305 -0.182308 0
M  V30 4467 H 416.989 3.51594 -0.086207 0
M  V30 4468 H 416.863 3.38743 1.6593 0
M  V30 4469 H 419.25 2.39749 1.7206 0
M  V30 4470 H 419.331 2.55769 -0.0396831 0
M  V30 4471 H 418.975 5.07524 0.195422 0
M  V30 4472 H 418.905 4.88548 1.96542 0
M  V30 4473 H 421.396 3.63651 1.02794 0
M  V30 4474 H 421.709 7.58231 1.49353 0
M  V30 4475 H 420.054 6.81763 1.34999 0
M  V30 4476 H 423.245 4.52668 1.19202 0
M  V30 4477 H 423.418 6.32595 1.40455 0
M  V30 4478 N 416.824 -0.551391 1.4764 0
M  V30 4479 C 418.07 -1.31024 1.54792 0
M  V30 4480 C 418.403 -1.9304 0.211967 0
M  V30 4481 O 417.678 -1.78175 -0.77999 0
M  V30 4482 C 417.961 -2.41593 2.67029 0
M  V30 4483 C 417.814 -1.84408 4.10261 0
M  V30 4484 C 419.133 -3.43488 2.75143 0
M  V30 4485 H 416.252 -0.475031 0.563485 0
M  V30 4486 H 418.894 -0.616454 1.79722 0
M  V30 4487 H 417.044 -3.00772 2.45904 0
M  V30 4488 H 418.716 -1.29445 4.42766 0
M  V30 4489 H 416.959 -1.15051 4.18265 0
M  V30 4490 H 417.63 -2.64367 4.84576 0
M  V30 4491 H 420.106 -2.94236 2.94218 0
M  V30 4492 H 418.982 -4.18274 3.55441 0
M  V30 4493 H 419.243 -4.02703 1.82435 0
M  V30 4494 N 418.302 -1.35869 -0.798587 0
M  V30 4495 C 419.235 -1.23801 -1.91699 0
M  V30 4496 C 420.213 -0.124143 -1.62125 0
M  V30 4497 O 421.397 -0.293656 -1.86199 0
M  V30 4498 C 418.524 -0.908063 -3.263 0
M  V30 4499 C 417.57 -2.0351 -3.74815 0
M  V30 4500 S 418.403 -3.65183 -3.91665 0
M  V30 4501 C 419.559 -3.34283 -5.29156 0
M  V30 4502 H 419.792 -2.18466 -2.01643 0
M  V30 4503 H 417.325 -1.21178 -0.956833 0
M  V30 4504 H 419.283 -0.724506 -4.04056 0
M  V30 4505 H 417.944 0.0206584 -3.14093 0
M  V30 4506 H 417.137 -1.75858 -4.72324 0
M  V30 4507 H 416.739 -2.1774 -3.04081 0
M  V30 4508 H 419.031 -2.87607 -6.13424 0
M  V30 4509 H 419.974 -4.31022 -5.61806 0
M  V30 4510 H 420.382 -2.69854 -4.95822 0
M  V30 4511 N 419.78 1.02168 -1.19998 0
M  V30 4512 C 421.027 1.75685 -1.00702 0
M  V30 4513 C 421.355 1.88947 0.461426 0
M  V30 4514 O 420.61 1.40832 1.35885 0
M  V30 4515 C 420.909 3.18081 -1.62969 0
M  V30 4516 C 420.575 3.24809 -3.12746 0
M  V30 4517 C 419.237 3.26352 -3.53621 0
M  V30 4518 C 421.589 3.23379 -4.08749 0
M  V30 4519 C 418.917 3.2413 -4.89036 0
M  V30 4520 C 421.269 3.22698 -5.44104 0
M  V30 4521 C 419.933 3.22542 -5.84399 0
M  V30 4522 H 419.203 0.642877 -0.368496 0
M  V30 4523 H 421.85 1.19865 -1.49348 0
M  V30 4524 H 420.155 3.77027 -1.06573 0
M  V30 4525 H 421.852 3.73648 -1.45561 0
M  V30 4526 H 418.442 3.2434 -2.80181 0
M  V30 4527 H 422.626 3.21361 -3.78207 0
M  V30 4528 H 417.882 3.22338 -5.19527 0
M  V30 4529 H 422.056 3.20543 -6.18244 0
M  V30 4530 H 419.683 3.20575 -6.89301 0
M  V30 4531 N 421.258 1.00505 1.21394 0
M  V30 4532 C 422.188 0.585684 2.26035 0
M  V30 4533 C 423.169 -0.393525 1.65485 0
M  V30 4534 O 424.354 -0.281497 1.92149 0
M  V30 4535 C 421.484 -0.0884283 3.47187 0
M  V30 4536 C 420.438 0.810567 4.20254 0
M  V30 4537 C 419.764 0.00286382 5.347 0
M  V30 4538 C 421.064 2.1132 4.77641 0
M  V30 4539 H 422.758 1.46039 2.61368 0
M  V30 4540 H 420.304 0.703648 1.25638 0
M  V30 4541 H 422.257 -0.393286 4.19561 0
M  V30 4542 H 420.981 -0.997766 3.10986 0
M  V30 4543 H 419.64 1.09925 3.49731 0
M  V30 4544 H 419.288 -0.907765 4.94741 0
M  V30 4545 H 418.988 0.601444 5.84514 0
M  V30 4546 H 420.512 -0.295808 6.09883 0
M  V30 4547 H 421.926 1.87148 5.41893 0
M  V30 4548 H 420.323 2.66164 5.37845 0
M  V30 4549 H 421.393 2.78393 3.9702 0
M  V30 4550 N 422.737 -1.36956 0.779787 0
M  V30 4551 C 423.967 -2.03459 0.358877 0
M  V30 4552 C 424.375 -1.58939 -1.02641 0
M  V30 4553 O 423.718 -0.769777 -1.66794 0
M  V30 4554 C 423.78 -3.5796 0.332393 0
M  V30 4555 C 423.444 -4.25644 1.66362 0
M  V30 4556 C 424.441 -4.49205 2.61746 0
M  V30 4557 C 422.126 -4.63313 1.94027 0
M  V30 4558 C 424.12 -5.09503 3.82996 0
M  V30 4559 C 421.807 -5.2333 3.15546 0
M  V30 4560 C 422.805 -5.46363 4.0985 0
M  V30 4561 O 422.493 -6.05122 5.29228 0
M  V30 4562 H 422.225 -0.659767 0.147254 0
M  V30 4563 H 424.779 -1.76111 1.05708 0
M  V30 4564 H 423.009 -3.84388 -0.422237 0
M  V30 4565 H 424.698 -4.05852 -0.0625389 0
M  V30 4566 H 425.464 -4.20508 2.41657 0
M  V30 4567 H 421.343 -4.44715 1.21448 0
M  V30 4568 H 424.887 -5.27397 4.56617 0
M  V30 4569 H 420.784 -5.51451 3.35517 0
M  V30 4570 H 421.552 -6.23595 5.30161 0
M  V30 4571 N 424.215 -0.530993 -1.48385 0
M  V30 4572 C 425.464 0.00474348 -2.01699 0
M  V30 4573 C 425.777 1.35227 -1.41325 0
M  V30 4574 O 426.983 1.97643 -1.86144 0
M  V30 4575 C 425.439 0.0588473 -3.59852 0
M  V30 4576 C 425.047 -1.28385 -4.2921 0
M  V30 4577 C 426.791 0.543358 -4.21008 0
M  V30 4578 C 424.698 -1.19028 -5.79298 0
M  V30 4579 H 423.628 0.00554317 -0.75398 0
M  V30 4580 H 426.279 -0.674924 -1.70637 0
M  V30 4581 H 424.661 0.803612 -3.8776 0
M  V30 4582 H 425.835 -2.04426 -4.12973 0
M  V30 4583 H 424.15 -1.70418 -3.7993 0
M  V30 4584 H 426.747 0.631351 -5.3096 0
M  V30 4585 H 427.09 1.54937 -3.86394 0
M  V30 4586 H 427.623 -0.145754 -3.97533 0
M  V30 4587 H 424.362 -2.17147 -6.18488 0
M  V30 4588 H 423.882 -0.471246 -5.97946 0
M  V30 4589 H 425.561 -0.881365 -6.40969 0
M  V30 4590 N 425.693 1.55336 -0.266172 0
M  V30 4591 C 427.104 1.85236 0.233315 0
M  V30 4592 C 427.455 1.18816 1.56132 0
M  V30 4593 O 426.58 0.473307 2.11161 0
M  V30 4594 C 427.175 3.36059 0.430113 0
M  V30 4595 C 425.734 3.66116 0.873842 0
M  V30 4596 C 424.881 2.77274 -0.0380016 0
M  V30 4597 H 427.832 1.51004 -0.488214 0
M  V30 4598 H 427.853 3.58681 1.26998 0
M  V30 4599 H 427.365 3.84373 -0.536588 0
M  V30 4600 H 425.466 3.23295 1.85233 0
M  V30 4601 H 425.579 4.73699 0.717358 0
M  V30 4602 H 423.943 2.50198 0.476759 0
M  V30 4603 H 424.726 3.284 -1.00042 0
M  V30 4604 N 427.171 -0.0066808 1.57599 0
M  V30 4605 C 428.101 -0.999296 2.11036 0
M  V30 4606 C 429.082 -1.36278 1.01795 0
M  V30 4607 O 430.267 -1.4477 1.29442 0
M  V30 4608 C 427.397 -2.29328 2.60818 0
M  V30 4609 C 426.351 -2.07159 3.74525 0
M  V30 4610 C 425.677 -3.42512 4.10596 0
M  V30 4611 C 426.977 -1.43959 5.02069 0
M  V30 4612 H 428.671 -0.554382 2.94223 0
M  V30 4613 H 426.217 -0.265221 1.41536 0
M  V30 4614 H 428.17 -2.99117 2.96828 0
M  V30 4615 H 426.894 -2.7592 1.74745 0
M  V30 4616 H 425.553 -1.39797 3.38899 0
M  V30 4617 H 425.201 -3.86795 3.21556 0
M  V30 4618 H 424.901 -3.28498 4.87199 0
M  V30 4619 H 426.425 -4.13628 4.4916 0
M  V30 4620 H 427.839 -2.03696 5.35893 0
M  V30 4621 H 426.236 -1.40452 5.83432 0
M  V30 4622 H 427.306 -0.407992 4.83181 0
M  V30 4623 N 428.649 -1.55105 -0.279332 0
M  V30 4624 C 430.06 -1.66186 -0.850832 0
M  V30 4625 C 430.411 -0.584707 -1.87285 0
M  V30 4626 O 429.536 0.274919 -2.14647 0
M  V30 4627 C 430.131 -3.01264 -1.55001 0
M  V30 4628 C 428.69 -3.14394 -2.06963 0
M  V30 4629 C 427.837 -2.61959 -0.909536 0
M  V30 4630 H 430.788 -1.58602 -0.0558235 0
M  V30 4631 H 430.809 -2.93899 -2.41669 0
M  V30 4632 H 430.321 -3.7964 -0.805931 0
M  V30 4633 H 428.422 -2.4078 -2.84352 0
M  V30 4634 H 428.535 -4.20867 -2.28928 0
M  V30 4635 H 426.899 -2.18957 -1.30116 0
M  V30 4636 H 427.682 -3.42833 -0.179062 0
M  V30 4637 N 430.127 0.543554 -1.4793 0
M  V30 4638 C 431.06 1.66556 -1.55995 0
M  V30 4639 C 432.038 1.57315 -0.411205 0
M  V30 4640 O 433.222 1.7798 -0.620922 0
M  V30 4641 C 430.349 3.04883 -1.47527 0
M  V30 4642 C 429.395 3.32526 -2.67074 0
M  V30 4643 S 430.228 3.20282 -4.29162 0
M  V30 4644 C 431.384 4.61079 -4.23269 0
M  V30 4645 H 431.617 1.59462 -2.50917 0
M  V30 4646 H 429.15 0.725456 -1.36296 0
M  V30 4647 H 431.108 3.84665 -1.43328 0
M  V30 4648 H 429.769 3.09429 -0.539665 0
M  V30 4649 H 428.962 4.33403 -2.5725 0
M  V30 4650 H 428.564 2.60389 -2.68466 0
M  V30 4651 H 430.856 5.52318 -3.92365 0
M  V30 4652 H 431.799 4.75959 -5.24279 0
M  V30 4653 H 432.207 4.39766 -3.5393 0
M  V30 4654 N 431.605 1.3629 0.791371 0
M  V30 4655 C 432.852 1.30412 1.54916 0
M  V30 4656 C 433.18 -0.117162 1.94147 0
M  V30 4657 O 432.435 -1.08599 1.62803 0
M  V30 4658 C 432.734 2.17068 2.8393 0
M  V30 4659 C 432.4 3.65645 2.63846 0
M  V30 4660 C 431.062 4.0614 2.58077 0
M  V30 4661 C 433.414 4.59855 2.45322 0
M  V30 4662 C 430.742 5.3899 2.31748 0
M  V30 4663 C 433.094 5.9292 2.2052 0
M  V30 4664 C 431.758 6.32542 2.13183 0
M  V30 4665 H 431.028 0.47721 0.566879 0
M  V30 4666 H 433.675 1.68325 0.913172 0
M  V30 4667 H 431.98 1.72085 3.51986 0
M  V30 4668 H 433.677 2.09846 3.4171 0
M  V30 4669 H 430.267 3.33518 2.69191 0
M  V30 4670 H 434.451 4.29443 2.48782 0
M  V30 4671 H 429.707 5.68672 2.24548 0
M  V30 4672 H 433.881 6.65487 2.05182 0
M  V30 4673 H 431.508 7.35412 1.92544 0
M  V30 4674 N 433.083 -1.0153 1.20538 0
M  V30 4675 C 434.329 -1.75517 1.02787 0
M  V30 4676 C 434.684 -1.87411 -0.435289 0
M  V30 4677 O 433.977 -1.38982 -1.31889 0
M  V30 4678 C 434.171 -3.17213 1.64654 0
M  V30 4679 C 434 -3.19134 3.16834 0
M  V30 4680 C 432.77 -3.26301 3.85818 0
M  V30 4681 C 434.968 -3.05077 4.14044 0
M  V30 4682 N 432.95 -3.17739 5.25276 0
M  V30 4683 C 434.321 -3.04299 5.40187 0
M  V30 4684 C 436.376 -2.89303 4.05226 0
M  V30 4685 C 435.079 -2.89365 6.58529 0
M  V30 4686 C 437.105 -2.75723 5.23193 0
M  V30 4687 C 436.467 -2.75612 6.48242 0
M  V30 4688 H 432.566 -0.652919 0.430373 0
M  V30 4689 H 435.15 -1.20755 1.52729 0
M  V30 4690 H 433.321 -3.70266 1.17294 0
M  V30 4691 H 435.053 -3.79637 1.40208 0
M  V30 4692 H 431.808 -3.33078 3.36684 0
M  V30 4693 H 432.232 -3.16829 5.98288 0
M  V30 4694 H 436.874 -2.88201 3.09354 0
M  V30 4695 H 434.592 -2.89216 7.54573 0
M  V30 4696 H 438.178 -2.64533 5.18183 0
M  V30 4697 H 437.058 -2.65224 7.37988 0
M  V30 4698 N 434.561 -1.01147 -1.20859 0
M  V30 4699 C 435.524 -0.582224 -2.21682 0
M  V30 4700 C 436.524 0.344887 -1.57058 0
M  V30 4701 O 437.714 0.134281 -1.73682 0
M  V30 4702 C 434.846 0.150496 -3.40568 0
M  V30 4703 H 436.039 -1.47408 -2.61172 0
M  V30 4704 H 433.592 -0.800695 -1.34233 0
M  V30 4705 H 434.327 1.0575 -3.06574 0
M  V30 4706 H 434.112 -0.515444 -3.88697 0
M  V30 4707 H 435.602 0.438344 -4.15293 0
M  V30 4708 N 436.039 1.36541 -0.78704 0
M  V30 4709 C 436.969 2.32659 -0.197992 0
M  V30 4710 C 437.95 1.56533 0.665697 0
M  V30 4711 O 439.135 1.84698 0.60001 0
M  V30 4712 C 436.265 3.40778 0.669901 0
M  V30 4713 C 435.219 4.27897 -0.0937039 0
M  V30 4714 C 434.545 5.27163 0.894629 0
M  V30 4715 C 435.845 5.06334 -1.28154 0
M  V30 4716 H 437.539 2.82171 -1.00099 0
M  V30 4717 H 435.085 1.35665 -0.482793 0
M  V30 4718 H 437.038 4.07008 1.09191 0
M  V30 4719 H 435.762 2.89827 1.50558 0
M  V30 4720 H 434.421 3.6322 -0.49666 0
M  V30 4721 H 434.069 4.72486 1.72527 0
M  V30 4722 H 433.769 5.86317 0.388149 0
M  V30 4723 H 435.293 5.96266 1.31525 0
M  V30 4724 H 436.707 5.65617 -0.93541 0
M  V30 4725 H 435.104 5.74888 -1.72115 0
M  V30 4726 H 436.174 4.38114 -2.07807 0
M  V30 4727 N 437.518 0.538854 1.48102 0
M  V30 4728 C 438.765 0.0080018 2.02498 0
M  V30 4729 C 439.093 -1.33437 1.41509 0
M  V30 4730 O 438.348 -1.87709 0.553507 0
M  V30 4731 C 438.647 -0.153808 3.57069 0
M  V30 4732 C 438.313 1.11533 4.36888 0
M  V30 4733 C 436.975 1.46314 4.58417 0
M  V30 4734 C 439.327 1.95718 4.83057 0
M  V30 4735 C 436.655 2.6516 5.23361 0
M  V30 4736 C 439.007 3.13751 5.49312 0
M  V30 4737 C 437.671 3.48866 5.69077 0
M  V30 4738 H 436.941 0.00292807 0.740994 0
M  V30 4739 H 439.588 0.706668 1.77984 0
M  V30 4740 H 437.893 -0.935309 3.80472 0
M  V30 4741 H 439.59 -0.579607 3.96789 0
M  V30 4742 H 436.18 0.834484 4.20398 0
M  V30 4743 H 440.364 1.70158 4.66219 0
M  V30 4744 H 435.62 2.92558 5.36861 0
M  V30 4745 H 439.794 3.79282 5.84053 0
M  V30 4746 H 437.421 4.41054 6.19173 0
M  V30 4747 N 438.996 -1.55193 0.274407 0
M  V30 4748 C 440.273 -1.91584 -0.394331 0
M  V30 4749 C 440.653 -1.19858 -1.73774 0
M  V30 4750 O 440.001 -0.3252 -2.26174 0
M  V30 4751 C 440.211 -3.4487 -0.535311 0
M  V30 4752 C 441.559 -4.16636 -0.818534 0
M  V30 4753 O 442.583 -3.5076 -0.620146 0
M  V30 4754 O 441.442 -5.33209 -1.19792 0
M  V30 4755 H 438.536 -0.798349 -0.215794 0
M  V30 4756 H 441.082 -1.66646 0.320507 0
M  V30 4757 H 439.854 -3.89145 0.410141 0
M  V30 4758 H 439.477 -3.75759 -1.29964 0
M  V30 4759 N 440.474 -0.00167713 -1.576 0
M  V30 4760 C 441.406 1.0174 -2.05382 0
M  V30 4761 C 442.419 1.30595 -0.972052 0
M  V30 4762 O 443.608 1.27542 -1.24882 0
M  V30 4763 C 440.708 2.35174 -2.44022 0
M  V30 4764 C 439.881 2.25234 -3.74951 0
M  V30 4765 C 438.94 3.4137 -4.00441 0
M  V30 4766 O 437.966 3.19483 -4.71083 0
M  V30 4767 N 439.168 4.64275 -3.48467 0
M  V30 4768 H 441.933 0.609902 -2.93428 0
M  V30 4769 H 439.494 0.185672 -1.60832 0
M  V30 4770 H 441.486 3.11643 -2.58187 0
M  V30 4771 H 440.056 2.67659 -1.61485 0
M  V30 4772 H 439.276 1.33664 -3.70847 0
M  V30 4773 H 440.564 2.15767 -4.60784 0
M  V30 4774 H 439.962 4.84955 -2.91264 0
M  V30 4775 H 438.519 5.38005 -3.67959 0
M  V30 4776 N 441.952 1.55251 0.271103 0
M  V30 4777 C 442.884 1.84675 1.35749 0
M  V30 4778 C 443.897 0.731366 1.45447 0
M  V30 4779 O 445.086 1.00924 1.4723 0
M  V30 4780 C 442.186 1.99638 2.73857 0
M  V30 4781 C 441.359 3.30312 2.86727 0
M  V30 4782 C 440.418 3.35318 4.05522 0
M  V30 4783 O 439.444 4.08682 3.96191 0
M  V30 4784 N 440.646 2.62857 5.17577 0
M  V30 4785 H 443.411 2.78445 1.10853 0
M  V30 4786 H 440.972 1.55191 0.461218 0
M  V30 4787 H 442.964 2.00355 3.51625 0
M  V30 4788 H 441.534 1.12725 2.91568 0
M  V30 4789 H 440.754 3.42118 1.95829 0
M  V30 4790 H 442.042 4.16488 2.92258 0
M  V30 4791 H 441.44 2.02939 5.28046 0
M  V30 4792 H 439.997 2.69295 5.93568 0
M  V30 4793 N 443.43 -0.535701 1.48216 0
M  V30 4794 C 444.678 -1.28928 1.55634 0
M  V30 4795 C 444.999 -1.93645 0.229514 0
M  V30 4796 O 444.269 -1.81038 -0.74846 0
M  V30 4797 H 442.849 -0.47884 0.573342 0
M  V30 4798 H 445.511 -0.623853 1.84646 0
M  V30 4799 H 444.607 -2.07157 2.33436 0
M  V30 4800 N 444.908 -1.36708 -0.784132 0
M  V30 4801 C 446.133 -1.34565 -1.5782 0
M  V30 4802 C 446.558 0.0695257 -1.87971 0
M  V30 4803 O 445.916 1.04302 -1.48293 0
M  V30 4804 C 445.964 -2.17952 -2.87279 0
M  V30 4805 O 445.068 -1.57563 -3.81114 0
M  V30 4806 H 444.409 -0.460337 -0.478524 0
M  V30 4807 H 446.939 -1.80064 -0.971495 0
M  V30 4808 H 446.949 -2.30721 -3.365 0
M  V30 4809 H 445.624 -3.20823 -2.64661 0
M  V30 4810 H 444.201 -1.53764 -3.39722 0
M  V30 4811 N 446.386 1.0089 -1.21074 0
M  V30 4812 C 447.802 1.2695 -0.967257 0
M  V30 4813 C 448.002 1.9846 0.348673 0
M  V30 4814 O 447.058 2.28459 1.0753 0
M  V30 4815 C 448.371 2.09697 -2.15517 0
M  V30 4816 C 449.919 2.22937 -2.197 0
M  V30 4817 C 450.394 3.09064 -3.37999 0
M  V30 4818 N 451.885 3.16653 -3.38061 0
M  V30 4819 C 452.62 3.8354 -4.26245 0
M  V30 4820 N 452.116 4.52488 -5.2462 0
M  V30 4821 N 453.909 3.80141 -4.14064 0
M  V30 4822 H 446.06 0.529005 -2.05707 0
M  V30 4823 H 448.323 0.296148 -0.900556 0
M  V30 4824 H 448.029 1.64497 -3.10859 0
M  V30 4825 H 447.903 3.10444 -2.14253 0
M  V30 4826 H 450.29 2.67357 -1.24916 0
M  V30 4827 H 450.371 1.21673 -2.2501 0
M  V30 4828 H 450.015 2.65347 -4.33074 0
M  V30 4829 H 449.945 4.10433 -3.29928 0
M  V30 4830 H 452.436 2.67566 -2.66865 0
M  V30 4831 H 452.749 5.01219 -5.88217 0
M  V30 4832 H 451.094 4.51288 -5.28549 0
M  V30 4833 H 454.285 3.25427 -3.36474 0
M  V30 4834 H 454.458 4.31992 -4.82998 0
M  V30 4835 N 447.864 1.01787 1.20321 0
M  V30 4836 C 449.11 0.718699 1.90279 0
M  V30 4837 C 449.465 -0.743669 1.77447 0
M  V30 4838 O 448.758 -1.53345 1.14874 0
M  V30 4839 C 448.952 1.09076 3.40349 0
M  V30 4840 C 448.781 2.58775 3.67784 0
M  V30 4841 C 447.551 3.25578 3.86428 0
M  V30 4842 C 449.749 3.56966 3.70243 0
M  V30 4843 N 447.731 4.64495 4.01395 0
M  V30 4844 C 449.102 4.8145 3.90649 0
M  V30 4845 C 451.157 3.5092 3.53213 0
M  V30 4846 C 449.86 6.00619 3.95789 0
M  V30 4847 C 451.886 4.69493 3.59625 0
M  V30 4848 C 451.248 5.92786 3.80505 0
M  V30 4849 H 447.347 0.31468 0.715891 0
M  V30 4850 H 449.931 1.30295 1.44677 0
M  V30 4851 H 448.102 0.534839 3.847 0
M  V30 4852 H 449.834 0.744997 3.97784 0
M  V30 4853 H 446.589 2.76003 3.84862 0
M  V30 4854 H 447.013 5.36624 4.12752 0
M  V30 4855 H 451.655 2.56593 3.36035 0
M  V30 4856 H 449.373 6.95326 4.11762 0
M  V30 4857 H 452.959 4.66432 3.47754 0
M  V30 4858 H 451.839 6.83003 3.85327 0
M  V30 4859 N 449.342 -1.36122 0.79427 0
M  V30 4860 C 450.57 -2.03362 0.380989 0
M  V30 4861 C 450.985 -1.59881 -1.00416 0
M  V30 4862 O 450.342 -0.790515 -1.6449 0
M  V30 4863 C 450.393 -3.58804 0.440649 0
M  V30 4864 O 450.114 -4.007 1.77118 0
M  V30 4865 C 451.615 -4.43296 0.0186117 0
M  V30 4866 H 448.835 -0.652526 0.156367 0
M  V30 4867 H 451.379 -1.73998 1.07447 0
M  V30 4868 H 449.534 -3.8686 -0.204458 0
M  V30 4869 H 449.948 -4.95309 1.72538 0
M  V30 4870 H 451.422 -5.51887 0.111488 0
M  V30 4871 H 451.899 -4.2684 -1.03461 0
M  V30 4872 H 452.505 -4.20512 0.636395 0
M  V30 4873 N 450.82 -0.546701 -1.47814 0
M  V30 4874 C 451.75 0.195317 -2.32682 0
M  V30 4875 C 452.731 0.918981 -1.43139 0
M  V30 4876 O 453.916 0.901501 -1.72008 0
M  V30 4877 C 451.046 1.23237 -3.247 0
M  V30 4878 C 450 0.625818 -4.234 0
M  V30 4879 C 449.326 1.76674 -5.04669 0
M  V30 4880 C 450.626 -0.413515 -5.2066 0
M  V30 4881 H 452.32 -0.513184 -2.94969 0
M  V30 4882 H 449.866 -0.248241 -1.41844 0
M  V30 4883 H 451.819 1.75955 -3.82907 0
M  V30 4884 H 450.543 1.97067 -2.60446 0
M  V30 4885 H 449.202 0.120023 -3.66403 0
M  V30 4886 H 448.85 2.49383 -4.36826 0
M  V30 4887 H 448.55 1.36673 -5.71484 0
M  V30 4888 H 450.074 2.29738 -5.65732 0
M  V30 4889 H 451.488 0.0272042 -5.73294 0
M  V30 4890 H 449.885 -0.731825 -5.95621 0
M  V30 4891 H 450.955 -1.31325 -4.66778 0
M  V30 4892 N 452.299 1.55045 -0.282633 0
M  V30 4893 C 453.231 2.2023 0.634924 0
M  V30 4894 C 454.244 1.18931 1.11172 0
M  V30 4895 O 455.433 1.4562 1.03233 0
M  V30 4896 C 452.533 2.82041 1.87899 0
M  V30 4897 C 451.706 4.091 1.54776 0
M  V30 4898 C 450.765 4.54887 2.64507 0
M  V30 4899 O 449.791 5.20496 2.30375 0
M  V30 4900 N 450.993 4.25659 3.94709 0
M  V30 4901 H 453.758 2.99601 0.0769811 0
M  V30 4902 H 451.319 1.61565 -0.104048 0
M  V30 4903 H 453.311 3.09613 2.60619 0
M  V30 4904 H 451.881 2.06618 2.3458 0
M  V30 4905 H 451.101 3.88736 0.654049 0
M  V30 4906 H 452.389 4.9187 1.30158 0
M  V30 4907 H 451.787 3.7306 4.25256 0
M  V30 4908 H 450.344 4.57984 4.63782 0
M  V30 4909 N 453.777 0.010035 1.57597 0
M  V30 4910 C 454.74 -0.963029 2.07986 0
M  V30 4911 C 455.74 -1.26619 0.991173 0
M  V30 4912 O 456.93 -1.2097 1.25347 0
M  V30 4913 C 454.062 -2.2851 2.52974 0
M  V30 4914 H 455.255 -0.526971 2.95234 0
M  V30 4915 H 452.808 -0.237639 1.54483 0
M  V30 4916 H 453.543 -2.76784 1.69 0
M  V30 4917 H 453.328 -2.07824 3.32493 0
M  V30 4918 H 454.818 -2.98294 2.9225 0
M  V30 4919 N 455.255 -1.55392 -0.262866 0
M  V30 4920 C 456.483 -1.80513 -1.01108 0
M  V30 4921 C 456.898 -0.583533 -1.79556 0
M  V30 4922 O 456.255 0.447585 -1.76926 0
M  V30 4923 C 456.306 -3.03648 -1.96164 0
M  V30 4924 O 456.027 -4.2109 -1.20893 0
M  V30 4925 C 457.528 -3.41448 -2.82715 0
M  V30 4926 H 454.748 -0.601079 -0.298236 0
M  V30 4927 H 457.292 -2.02425 -0.290582 0
M  V30 4928 H 455.447 -2.83832 -2.63663 0
M  V30 4929 H 455.861 -4.90771 -1.85051 0
M  V30 4930 H 457.335 -4.30751 -3.45192 0
M  V30 4931 H 457.812 -2.61308 -3.53008 0
M  V30 4932 H 458.418 -3.63559 -2.20693 0
M  V30 4933 N 456.733 0.527833 -1.48498 0
M  V30 4934 C 457.961 1.30823 -1.6029 0
M  V30 4935 C 458.376 1.86945 -0.263974 0
M  V30 4936 O 457.733 1.6651 0.747034 0
M  V30 4937 C 457.784 2.45756 -2.65116 0
M  V30 4938 O 457.505 1.91946 -3.93813 0
M  V30 4939 C 459.006 3.37543 -2.87367 0
M  V30 4940 H 456.226 0.397763 -0.540394 0
M  V30 4941 H 458.77 0.636529 -1.94341 0
M  V30 4942 H 456.925 3.08806 -2.33917 0
M  V30 4943 H 457.339 2.67195 -4.51339 0
M  V30 4944 H 458.813 4.14532 -3.6451 0
M  V30 4945 H 459.29 3.92905 -1.9627 0
M  V30 4946 H 459.896 2.80283 -3.19878 0
M  V30 4947 N 458.211 1.37122 0.776871 0
M  V30 4948 C 459.144 1.26835 1.89705 0
M  V30 4949 C 460.122 0.14992 1.61907 0
M  V30 4950 O 461.306 0.323242 1.85708 0
M  V30 4951 C 458.433 0.95986 3.24814 0
M  V30 4952 C 457.479 2.09447 3.7153 0
M  V30 4953 S 458.312 3.71368 3.85806 0
M  V30 4954 C 459.468 3.42659 5.23771 0
M  V30 4955 H 459.701 2.21647 1.98141 0
M  V30 4956 H 457.234 1.22685 0.937433 0
M  V30 4957 H 459.192 0.788696 4.02852 0
M  V30 4958 H 457.853 0.0293137 3.14086 0
M  V30 4959 H 457.046 1.8335 4.69467 0
M  V30 4960 H 456.648 2.2255 3.00578 0
M  V30 4961 H 458.94 2.9733 6.0877 0
M  V30 4962 H 459.883 4.39905 5.54878 0
M  V30 4963 H 460.291 2.77708 4.91466 0
M  V30 4964 N 459.689 -1.00246 1.21608 0
M  V30 4965 C 460.914 -1.78167 1.06167 0
M  V30 4966 C 461.339 -1.84138 -0.384035 0
M  V30 4967 O 460.697 -1.28683 -1.27712 0
M  V30 4968 C 460.745 -3.19786 1.66642 0
M  V30 4969 O 459.849 -4.02153 0.913613 0
M  V30 4970 H 459.19 -0.549 0.37349 0
M  V30 4971 H 461.72 -1.25994 1.61204 0
M  V30 4972 H 461.73 -3.70451 1.70969 0
M  V30 4973 H 460.405 -3.14754 2.7185 0
M  V30 4974 H 458.982 -3.60711 0.945635 0
M  V30 4975 N 461.167 -1.02423 -1.1978 0
M  V30 4976 C 462.415 -0.716569 -1.8897 0
M  V30 4977 C 462.736 0.756769 -1.79716 0
M  V30 4978 O 462.006 1.5449 -1.20456 0
M  V30 4979 H 460.586 -0.262062 -0.699523 0
M  V30 4980 H 463.248 -1.29747 -1.45436 0
M  V30 4981 H 462.344 -1.00675 -2.95417 0
M  V30 4982 N 462.645 1.35699 -0.801477 0
M  V30 4983 C 463.592 2.29876 -0.206294 0
M  V30 4984 C 464.562 1.52565 0.656752 0
M  V30 4985 O 465.747 1.81024 0.602906 0
M  V30 4986 C 462.887 3.39052 0.643272 0
M  V30 4987 C 462 4.31335 -0.239644 0
M  V30 4988 C 461.135 5.27599 0.61744 0
M  V30 4989 C 460.174 6.11521 -0.26619 0
M  V30 4990 N 459.311 6.99938 0.550571 0
M  V30 4991 H 464.151 2.80187 -1.01484 0
M  V30 4992 H 461.688 1.37902 -0.511997 0
M  V30 4993 H 463.646 4.0101 1.15094 0
M  V30 4994 H 462.276 2.9003 1.41713 0
M  V30 4995 H 461.328 3.70426 -0.865381 0
M  V30 4996 H 462.64 4.90243 -0.919985 0
M  V30 4997 H 461.794 5.94906 1.19045 0
M  V30 4998 H 460.533 4.69176 1.33137 0
M  V30 4999 H 459.538 5.43166 -0.851507 0
M  V30 5000 H 460.763 6.72022 -0.9779 0
M  V30 5001 H 458.709 6.44008 1.24856 0
M  V30 5002 H 458.626 7.55966 -0.071832 0
M  V30 5003 H 459.894 7.71599 1.10702 0
M  V30 5004 N 464.123 0.554532 1.47522 0
M  V30 5005 C 465.372 0.0273458 2.01681 0
M  V30 5006 C 465.685 -1.32962 1.43459 0
M  V30 5007 O 466.891 -1.94657 1.89265 0
M  V30 5008 C 465.347 -0.00159057 3.599 0
M  V30 5009 C 464.955 1.35197 4.27113 0
M  V30 5010 C 466.699 -0.476311 4.21819 0
M  V30 5011 C 464.606 1.28229 5.77331 0
M  V30 5012 H 463.536 0.00645269 0.753972 0
M  V30 5013 H 466.187 0.701985 1.69542 0
M  V30 5014 H 464.569 -0.741821 3.8899 0
M  V30 5015 H 465.743 2.1097 4.09668 0
M  V30 5016 H 464.058 1.76441 3.77171 0
M  V30 5017 H 466.655 -0.5468 5.31897 0
M  V30 5018 H 466.998 -1.4877 3.8881 0
M  V30 5019 H 467.531 0.20898 3.97251 0
M  V30 5020 H 464.27 2.26959 6.14955 0
M  V30 5021 H 463.79 0.566314 5.97121 0
M  V30 5022 H 465.469 0.983226 6.39485 0
M  V30 5023 N 465.601 -1.54893 0.290851 0
M  V30 5024 C 466.849 -1.99538 -0.320756 0
M  V30 5025 C 467.17 -1.18075 -1.55188 0
M  V30 5026 O 466.44 -0.274162 -1.93972 0
M  V30 5027 H 465.02 -0.737052 -0.121507 0
M  V30 5028 H 467.682 -1.90755 0.399832 0
M  V30 5029 H 466.778 -3.06282 -0.599802 0
M  V30 5030 N 467.08 -0.0183926 -1.57589 0
M  V30 5031 C 468.043 0.951986 -2.08494 0
M  V30 5032 C 469.043 1.26092 -0.997874 0
M  V30 5033 O 470.233 1.20304 -1.25987 0
M  V30 5034 C 467.365 2.27165 -2.54182 0
M  V30 5035 H 468.558 0.511307 -2.95509 0
M  V30 5036 H 466.111 0.229444 -1.54607 0
M  V30 5037 H 466.846 2.75884 -1.70465 0
M  V30 5038 H 466.631 2.06057 -3.33591 0
M  V30 5039 H 468.121 2.9674 -2.93828 0
M  V30 5040 N 468.558 1.5553 0.254621 0
M  V30 5041 C 469.488 1.9268 1.31897 0
M  V30 5042 C 470.469 0.790797 1.506 0
M  V30 5043 O 471.654 1.05045 1.63337 0
M  V30 5044 C 468.784 2.21477 2.67517 0
M  V30 5045 C 467.738 3.37256 2.63519 0
M  V30 5046 C 467.064 3.51576 4.02862 0
M  V30 5047 C 468.364 4.73157 2.21179 0
M  V30 5048 H 470.058 2.81832 1.01051 0
M  V30 5049 H 467.604 1.35599 0.484662 0
M  V30 5050 H 469.557 2.46055 3.42104 0
M  V30 5051 H 468.281 1.29144 2.99982 0
M  V30 5052 H 466.94 3.12675 1.9139 0
M  V30 5053 H 466.588 2.56676 4.32581 0
M  V30 5054 H 466.288 4.2943 4.01078 0
M  V30 5055 H 467.812 3.78467 4.79161 0
M  V30 5056 H 469.226 4.97158 2.85494 0
M  V30 5057 H 467.623 5.54058 2.30521 0
M  V30 5058 H 468.693 4.70739 1.16332 0
M  V30 5059 N 470.036 -0.519951 1.48776 0
M  V30 5060 C 470.946 -1.65025 1.66745 0
M  V30 5061 C 471.962 -1.6508 0.549954 0
M  V30 5062 O 473.138 -1.83848 0.822295 0
M  V30 5063 C 470.203 -3.0146 1.71238 0
M  V30 5064 C 469.264 -3.12182 2.94688 0
M  V30 5065 C 468.497 -4.42109 2.98958 0
M  V30 5066 O 468.72 -5.29799 2.1135 0
M  V30 5067 O 467.654 -4.57406 3.91233 0
M  V30 5068 H 471.48 -1.52801 2.62461 0
M  V30 5069 H 469.065 -0.694157 1.32294 0
M  V30 5070 H 470.947 -3.82584 1.76657 0
M  V30 5071 H 469.622 -3.13988 0.786975 0
M  V30 5072 H 468.529 -2.30316 2.94797 0
M  V30 5073 H 469.862 -3.04574 3.86646 0
M  V30 5074 N 471.514 -1.37532 -0.769588 0
M  V30 5075 C 472.763 -1.32183 -1.5235 0
M  V30 5076 C 473.076 0.0906555 -1.9539 0
M  V30 5077 O 474.282 0.266628 -2.70188 0
M  V30 5078 C 472.738 -2.32029 -2.75119 0
M  V30 5079 C 472.346 -3.78816 -2.3917 0
M  V30 5080 C 474.09 -2.35694 -3.53056 0
M  V30 5081 C 471.997 -4.70388 -3.58453 0
M  V30 5082 H 470.927 -0.491275 -0.571984 0
M  V30 5083 H 473.578 -1.63004 -0.842739 0
M  V30 5084 H 471.96 -1.94229 -3.45096 0
M  V30 5085 H 473.134 -4.25466 -1.76962 0
M  V30 5086 H 471.449 -3.78117 -1.74402 0
M  V30 5087 H 474.046 -3.01312 -4.41718 0
M  V30 5088 H 474.389 -1.37117 -3.93071 0
M  V30 5089 H 474.922 -2.72212 -2.90078 0
M  V30 5090 H 471.661 -5.70102 -3.23518 0
M  V30 5091 H 471.181 -4.28442 -4.19758 0
M  V30 5092 H 472.86 -4.87628 -4.25239 0
M  V30 5093 N 472.992 0.995999 -1.22138 0
M  V30 5094 C 473.924 2.08745 -0.946485 0
M  V30 5095 C 474.937 1.62633 0.0737356 0
M  V30 5096 O 476.126 1.77782 -0.159886 0
M  V30 5097 C 473.226 3.36516 -0.401305 0
M  V30 5098 C 472.399 4.11672 -1.47801 0
M  V30 5099 C 471.458 5.17728 -0.940461 0
M  V30 5100 O 470.484 5.45482 -1.62596 0
M  V30 5101 N 471.686 5.80005 0.239723 0
M  V30 5102 H 474.451 2.32908 -1.88611 0
M  V30 5103 H 472.012 1.16152 -1.12785 0
M  V30 5104 H 474.004 4.04691 -0.0270837 0
M  V30 5105 H 472.574 3.0944 0.443354 0
M  V30 5106 H 471.794 3.38171 -2.02568 0
M  V30 5107 H 473.082 4.58657 -2.20253 0
M  V30 5108 H 472.48 5.5982 0.813518 0
M  V30 5109 H 471.037 6.4943 0.555361 0
M  V30 5110 N 474.47 1.03057 1.19235 0
M  V30 5111 C 475.881 0.757449 1.70645 0
M  V30 5112 C 476.232 -0.722735 1.82403 0
M  V30 5113 O 475.357 -1.56325 1.49638 0
M  V30 5114 C 475.952 1.36833 3.09939 0
M  V30 5115 C 474.511 1.14375 3.58602 0
M  V30 5116 C 473.658 1.46533 2.35422 0
M  V30 5117 H 476.609 1.19828 1.04052 0
M  V30 5118 H 476.63 0.766184 3.72706 0
M  V30 5119 H 476.142 2.44562 3.01349 0
M  V30 5120 H 474.243 0.0847542 3.72504 0
M  V30 5121 H 474.356 1.83366 4.42622 0
M  V30 5122 H 472.72 0.884712 2.38841 0
M  V30 5123 H 473.503 2.55349 2.2946 0
M  V30 5124 N 475.948 -1.35272 0.808662 0
M  V30 5125 C 477.225 -1.93077 0.313181 0
M  V30 5126 C 477.605 -1.73847 -1.19752 0
M  V30 5127 O 476.953 -1.1087 -1.998 0
M  V30 5128 C 477.163 -3.41347 0.726859 0
M  V30 5129 C 478.511 -4.18493 0.717532 0
M  V30 5130 O 479.535 -3.4987 0.668535 0
M  V30 5131 O 478.394 -5.40937 0.777779 0
M  V30 5132 H 475.488 -0.822885 0.0824018 0
M  V30 5133 H 478.034 -1.44335 0.892499 0
M  V30 5134 H 476.806 -3.49082 1.76797 0
M  V30 5135 H 476.429 -3.97411 0.122461 0
M  V30 5136 N 477.426 -0.562348 -1.47226 0
M  V30 5137 C 478.358 0.220011 -2.28142 0
M  V30 5138 C 479.371 0.874596 -1.37312 0
M  V30 5139 O 480.56 0.747583 -1.62091 0
M  V30 5140 C 477.66 1.32953 -3.11732 0
M  V30 5141 C 476.833 0.770759 -4.30556 0
M  V30 5142 C 475.892 1.76541 -4.95701 0
M  V30 5143 O 474.918 1.3095 -5.53932 0
M  V30 5144 N 476.12 3.09896 -4.90861 0
M  V30 5145 H 478.885 -0.474107 -2.95926 0
M  V30 5146 H 476.446 -0.398761 -1.56912 0
M  V30 5147 H 478.438 1.99378 -3.5218 0
M  V30 5148 H 477.008 1.92681 -2.46156 0
M  V30 5149 H 476.228 -0.0704056 -3.94137 0
M  V30 5150 H 477.516 0.376872 -5.07402 0
M  V30 5151 H 476.914 3.49577 -4.44761 0
M  V30 5152 H 475.471 3.71865 -5.35313 0
M  V30 5153 N 478.904 1.54736 -0.299062 0
M  V30 5154 C 479.837 2.1962 0.619851 0
M  V30 5155 C 480.815 1.16496 1.13434 0
M  V30 5156 O 481.999 1.4513 1.2029 0
M  V30 5157 C 479.126 2.8385 1.84788 0
M  V30 5158 C 478.172 4.00484 1.46679 0
M  V30 5159 S 479.005 5.32926 0.524389 0
M  V30 5160 C 480.161 6.00638 1.76026 0
M  V30 5161 H 480.394 2.97221 0.0686177 0
M  V30 5162 H 477.927 1.54176 -0.0832085 0
M  V30 5163 H 479.885 3.21483 2.55263 0
M  V30 5164 H 478.546 2.06099 2.37028 0
M  V30 5165 H 477.739 4.44201 2.38121 0
M  V30 5166 H 477.341 3.64398 0.842008 0
M  V30 5167 H 479.633 6.21327 2.70109 0
M  V30 5168 H 480.576 6.94805 1.36569 0
M  V30 5169 H 480.984 5.3026 1.93609 0
M  V30 5170 N 480.382 0.0267497 1.57577 0
M  V30 5171 C 481.314 -0.984594 2.06974 0
M  V30 5172 C 482.327 -1.29032 0.992705 0
M  V30 5173 O 483.516 -1.25539 1.26895 0
M  V30 5174 C 480.616 -2.31262 2.47732 0
M  V30 5175 C 479.789 -2.1924 3.78487 0
M  V30 5176 C 478.848 -3.34956 4.05821 0
M  V30 5177 O 477.874 -3.11948 4.76106 0
M  V30 5178 N 479.076 -4.58672 3.55809 0
M  V30 5179 H 481.841 -0.563143 2.94362 0
M  V30 5180 H 479.402 -0.160061 1.61107 0
M  V30 5181 H 481.394 -3.07496 2.63112 0
M  V30 5182 H 479.964 -2.65056 1.65723 0
M  V30 5183 H 479.184 -1.27747 3.72927 0
M  V30 5184 H 480.472 -2.08409 4.64158 0
M  V30 5185 H 479.87 -4.8026 2.98942 0
M  V30 5186 H 478.427 -5.32083 3.76472 0
M  V30 5187 N 481.861 -1.55662 -0.24637 0
M  V30 5188 C 483.089 -1.81575 -0.991876 0
M  V30 5189 C 483.504 -0.602545 -1.78927 0
M  V30 5190 O 482.861 0.428795 -1.77391 0
M  V30 5191 C 482.912 -3.05711 -1.92933 0
M  V30 5192 O 482.633 -4.22348 -1.1642 0
M  V30 5193 C 484.134 -3.44428 -2.79078 0
M  V30 5194 H 481.354 -0.604209 -0.291844 0
M  V30 5195 H 483.898 -2.02722 -0.269095 0
M  V30 5196 H 482.053 -2.86612 -2.60638 0
M  V30 5197 H 482.467 -4.92706 -1.79835 0
M  V30 5198 H 483.941 -4.34388 -3.40603 0
M  V30 5199 H 484.418 -2.65037 -3.50217 0
M  V30 5200 H 485.024 -3.65879 -2.16824 0
M  V30 5201 N 483.339 0.512053 -1.4905 0
M  V30 5202 C 484.585 1.26874 -1.58212 0
M  V30 5203 C 484.918 1.9241 -0.263073 0
M  V30 5204 O 484.193 1.80181 0.732476 0
M  V30 5205 C 484.476 2.34428 -2.73341 0
M  V30 5206 C 484.329 1.73466 -4.15006 0
M  V30 5207 C 485.648 3.36073 -2.84154 0
M  V30 5208 H 482.767 0.459924 -0.575881 0
M  V30 5209 H 485.409 0.568587 -1.81293 0
M  V30 5210 H 483.559 2.94146 -2.53792 0
M  V30 5211 H 485.231 1.17661 -4.46042 0
M  V30 5212 H 483.474 1.03921 -4.21168 0
M  V30 5213 H 484.145 2.51426 -4.91415 0
M  V30 5214 H 486.621 2.86332 -3.01916 0
M  V30 5215 H 485.497 4.08703 -3.66406 0
M  V30 5216 H 485.758 3.97725 -1.93048 0
M  V30 5217 N 484.817 1.37938 0.762283 0
M  V30 5218 C 485.765 1.34569 1.89721 0
M  V30 5219 C 486.759 0.232929 1.67791 0
M  V30 5220 O 487.965 0.401485 1.75465 0
M  V30 5221 H 484.34 0.419594 0.624055 0
M  V30 5222 H 486.311 2.30357 1.8968 0
M  V30 5223 C 485.06 1.17898 3.27101 0
M  V30 5224 H 484.383 2.02781 3.44558 0
M  V30 5225 H 485.823 1.19593 4.06784 0
M  V30 5226 C 484.282 -0.114728 3.36705 0
M  V30 5227 O 484.812 -1.0949 3.8649 0
M  V30 5228 N 483.018 -0.16863 2.9011 0
M  V30 5229 H 482.565 0.62967 2.49786 0
M  V30 5230 H 482.523 -1.03383 2.96916 0
M  V30 5231 N 486.295 -0.989507 1.22664 0
M  V30 5232 C 487.258 -2.06183 1.00106 0
M  V30 5233 C 488.258 -1.60765 -0.0337726 0
M  V30 5234 O 489.448 -1.72989 0.205072 0
M  V30 5235 C 486.58 -3.37021 0.51279 0
M  V30 5236 H 487.773 -2.27629 1.95256 0
M  V30 5237 H 485.326 -1.16158 1.0458 0
M  V30 5238 H 486.061 -3.21261 -0.442917 0
M  V30 5239 H 485.846 -3.71323 1.25942 0
M  V30 5240 H 487.336 -4.1591 0.375315 0
M  V30 5241 N 487.773 -1.03688 -1.18687 0
M  V30 5242 C 489.022 -0.733235 -1.879 0
M  V30 5243 C 489.335 0.741745 -1.8099 0
M  V30 5244 O 490.541 1.15875 -2.4553 0
M  V30 5245 C 488.997 -1.26127 -3.37076 0
M  V30 5246 C 488.605 -2.76461 -3.52524 0
M  V30 5247 C 490.349 -1.03398 -4.11715 0
M  V30 5248 C 488.256 -3.22642 -4.95637 0
M  V30 5249 H 487.186 -0.270584 -0.703776 0
M  V30 5250 H 489.837 -1.25222 -1.34133 0
M  V30 5251 H 488.219 -0.670165 -3.90288 0
M  V30 5252 H 489.393 -3.41296 -3.09602 0
M  V30 5253 H 487.708 -2.97559 -2.91286 0
M  V30 5254 H 490.305 -1.3542 -5.17267 0
M  V30 5255 H 490.648 0.0289246 -4.1629 0
M  V30 5256 H 491.181 -1.5895 -3.64664 0
M  V30 5257 H 487.92 -4.28296 -4.96228 0
M  V30 5258 H 487.44 -2.62539 -5.39289 0
M  V30 5259 H 489.119 -3.16444 -5.64333 0
M  V30 5260 N 489.251 1.34841 -0.815825 0
M  V30 5261 C 490.181 2.32187 -0.247298 0
M  V30 5262 C 491.162 1.5791 0.632344 0
M  V30 5263 O 492.347 1.8593 0.560698 0
M  V30 5264 C 489.477 3.42122 0.597466 0
M  V30 5265 C 488.431 4.27602 -0.184446 0
M  V30 5266 C 487.757 5.28942 0.782609 0
M  V30 5267 C 489.057 5.03502 -1.38865 0
M  V30 5268 H 490.751 2.79985 -1.06061 0
M  V30 5269 H 488.297 1.34611 -0.511461 0
M  V30 5270 H 490.25 4.09232 1.00533 0
M  V30 5271 H 488.974 2.92956 1.44376 0
M  V30 5272 H 487.633 3.62085 -0.573592 0
M  V30 5273 H 487.281 4.7604 1.62466 0
M  V30 5274 H 486.981 5.87008 0.263695 0
M  V30 5275 H 488.505 5.98922 1.18848 0
M  V30 5276 H 489.919 5.63506 -1.05518 0
M  V30 5277 H 488.316 5.71108 -1.8427 0
M  V30 5278 H 489.386 4.33608 -2.17054 0
M  V30 5279 N 490.729 0.570148 1.46925 0
M  V30 5280 C 491.978 0.0487352 2.01641 0
M  V30 5281 C 492.291 -1.31433 1.44861 0
M  V30 5282 O 493.497 -1.92638 1.91318 0
M  V30 5283 C 491.953 0.0365817 3.59881 0
M  V30 5284 C 491.561 1.39719 4.25655 0
M  V30 5285 C 493.305 -0.431545 4.22301 0
M  V30 5286 C 491.212 1.34345 5.75939 0
M  V30 5287 H 490.142 0.0144492 0.753862 0
M  V30 5288 H 492.793 0.719928 1.68788 0
M  V30 5289 H 491.175 -0.700522 3.89755 0
M  V30 5290 H 492.349 2.15303 4.07408 0
M  V30 5291 H 490.664 1.80431 3.75278 0
M  V30 5292 H 493.261 -0.490354 5.32447 0
M  V30 5293 H 493.604 -1.44638 3.90366 0
M  V30 5294 H 494.137 0.251102 3.97007 0
M  V30 5295 H 490.876 2.33469 6.12513 0
M  V30 5296 H 490.396 0.629615 5.96486 0
M  V30 5297 H 492.075 1.051 6.38407 0
M  V30 5298 N 492.207 -1.54576 0.307264 0
M  V30 5299 C 493.453 -2.0056 -0.300612 0
M  V30 5300 C 493.786 -1.1953 -1.53057 0
M  V30 5301 O 493.061 -0.27337 -1.92569 0
M  V30 5302 C 493.344 -3.54167 -0.650987 0
M  V30 5303 C 493.197 -4.45933 0.588539 0
M  V30 5304 C 494.516 -4.14645 -1.47506 0
M  V30 5305 H 491.635 -0.729075 -0.107788 0
M  V30 5306 H 494.277 -1.85286 0.420606 0
M  V30 5307 H 492.427 -3.67313 -1.26544 0
M  V30 5308 H 494.099 -4.44683 1.22697 0
M  V30 5309 H 492.342 -4.16274 1.22058 0
M  V30 5310 H 493.013 -5.51189 0.299153 0
M  V30 5311 H 495.489 -4.04973 -0.955821 0
M  V30 5312 H 494.365 -5.22269 -1.68899 0
M  V30 5313 H 494.626 -3.66921 -2.4662 0
M  V30 5314 N 493.685 -0.035106 -1.57561 0
M  V30 5315 C 494.934 0.641604 -1.91223 0
M  V30 5316 C 495.247 1.72944 -0.913761 0
M  V30 5317 O 496.453 2.46321 -1.14185 0
M  V30 5318 C 494.909 1.19249 -3.3957 0
M  V30 5319 C 494.517 0.137616 -4.47789 0
M  V30 5320 C 496.261 1.84537 -3.82291 0
M  V30 5321 C 494.168 0.700478 -5.87237 0
M  V30 5322 H 493.098 0.243417 -0.713627 0
M  V30 5323 H 495.749 -0.101382 -1.8322 0
M  V30 5324 H 494.131 1.98728 -3.42525 0
M  V30 5325 H 495.305 -0.635153 -4.56402 0
M  V30 5326 H 493.62 -0.416855 -4.14308 0
M  V30 5327 H 496.217 2.27616 -4.83834 0
M  V30 5328 H 496.56 2.69054 -3.17672 0
M  V30 5329 H 497.093 1.11739 -3.81784 0
M  V30 5330 H 493.832 -0.106693 -6.55413 0
M  V30 5331 H 493.352 1.4416 -5.82218 0
M  V30 5332 H 495.031 1.18837 -6.35993 0
M  V30 5333 N 495.163 1.55791 0.238111 0
M  V30 5334 C 496.096 1.86036 1.32158 0
M  V30 5335 C 497.074 0.716216 1.45976 0
M  V30 5336 O 498.258 0.962882 1.62052 0
M  V30 5337 C 495.385 2.05281 2.69402 0
M  V30 5338 C 494.431 3.27939 2.72687 0
M  V30 5339 S 495.264 4.84342 2.28413 0
M  V30 5340 C 496.42 5.06604 3.67565 0
M  V30 5341 H 496.653 2.77644 1.06306 0
M  V30 5342 H 494.186 1.48012 0.439537 0
M  V30 5343 H 496.144 2.17053 3.48423 0
M  V30 5344 H 494.805 1.14499 2.92487 0
M  V30 5345 H 493.998 3.38398 3.73501 0
M  V30 5346 H 493.6 3.14938 2.01717 0
M  V30 5347 H 495.892 4.94486 4.6313 0
M  V30 5348 H 496.835 6.08554 3.62033 0
M  V30 5349 H 497.243 4.34409 3.60485 0
M  V30 5350 N 496.642 -0.504142 1.49319 0
M  V30 5351 C 497.888 -1.26033 1.58882 0
M  V30 5352 C 498.221 -1.92268 0.273274 0
M  V30 5353 O 497.496 -1.80567 -0.72291 0
M  V30 5354 C 497.779 -2.32976 2.7458 0
M  V30 5355 C 497.632 -1.71263 4.1592 0
M  V30 5356 C 498.951 -3.34561 2.85932 0
M  V30 5357 H 496.07 -0.456863 0.578312 0
M  V30 5358 H 498.712 -0.558965 1.81592 0
M  V30 5359 H 496.862 -2.92796 2.55348 0
M  V30 5360 H 498.534 -1.15294 4.4666 0
M  V30 5361 H 496.777 -1.01686 4.21714 0
M  V30 5362 H 497.448 -2.48816 4.92742 0
M  V30 5363 H 499.924 -2.84727 3.0343 0
M  V30 5364 H 498.8 -4.06754 3.68568 0
M  V30 5365 H 499.061 -3.96695 1.95154 0
M  V30 5366 N 498.12 -1.38341 -0.754957 0
M  V30 5367 C 499.531 -1.30803 -1.3322 0
M  V30 5368 C 499.882 0.0368 -1.96165 0
M  V30 5369 O 499.007 0.938844 -1.94974 0
M  V30 5370 C 499.602 -2.3688 -2.42225 0
M  V30 5371 C 498.161 -2.32925 -2.95674 0
M  V30 5372 C 497.308 -2.19819 -1.69042 0
M  V30 5373 H 500.259 -1.48719 -0.553937 0
M  V30 5374 H 500.28 -2.02517 -3.22129 0
M  V30 5375 H 499.792 -3.34747 -1.96383 0
M  V30 5376 H 497.893 -1.38635 -3.45848 0
M  V30 5377 H 498.006 -3.27008 -3.50146 0
M  V30 5378 H 496.37 -1.66648 -1.92615 0
M  V30 5379 H 497.153 -3.19625 -1.25279 0
M  V30 5380 N 499.598 0.982988 -1.23187 0
M  V30 5381 C 500.847 1.71817 -1.05649 0
M  V30 5382 C 501.16 1.91315 0.407176 0
M  V30 5383 O 502.366 2.62256 0.702436 0
M  V30 5384 C 500.822 3.09188 -1.84203 0
M  V30 5385 C 500.43 2.97586 -3.34882 0
M  V30 5386 C 502.174 3.86684 -1.75146 0
M  V30 5387 C 500.081 4.30173 -4.05839 0
M  V30 5388 H 499.011 0.644258 -0.391724 0
M  V30 5389 H 501.662 1.09659 -1.4713 0
M  V30 5390 H 500.044 3.72087 -1.35527 0
M  V30 5391 H 501.218 2.43793 -3.91026 0
M  V30 5392 H 499.533 2.33567 -3.44725 0
M  V30 5393 H 502.13 4.84836 -2.25473 0
M  V30 5394 H 502.473 4.10136 -0.713737 0
M  V30 5395 H 503.006 3.30482 -2.21419 0
M  V30 5396 H 499.745 4.11918 -5.09906 0
M  V30 5397 H 499.265 4.83841 -3.54482 0
M  V30 5398 H 500.944 4.98873 -4.11989 0
M  V30 5399 N 501.076 1.04316 1.18135 0
M  V30 5400 C 502.323 0.74802 1.88178 0
M  V30 5401 C 502.651 -0.72441 1.80506 0
M  V30 5402 O 501.906 -1.54463 1.20165 0
M  V30 5403 C 502.205 1.16271 3.37958 0
M  V30 5404 C 501.871 2.63585 3.65833 0
M  V30 5405 C 500.533 3.03829 3.73151 0
M  V30 5406 C 502.885 3.58822 3.78016 0
M  V30 5407 C 500.213 4.38194 3.90132 0
M  V30 5408 C 502.565 4.92909 3.96514 0
M  V30 5409 C 501.229 5.3282 4.02068 0
M  V30 5410 H 500.499 0.27372 0.688592 0
M  V30 5411 H 503.146 1.30863 1.39811 0
M  V30 5412 H 501.451 0.520938 3.88321 0
M  V30 5413 H 503.148 0.911672 3.90499 0
M  V30 5414 H 499.738 2.31414 3.60757 0
M  V30 5415 H 503.922 3.28875 3.71692 0
M  V30 5416 H 499.178 4.68631 3.92677 0
M  V30 5417 H 503.352 5.66606 4.04883 0
M  V30 5418 H 500.979 6.36943 4.14979 0
M  V30 5419 N 502.554 -1.34406 0.822964 0
M  V30 5420 C 503.831 -1.92733 0.333641 0
M  V30 5421 C 504.211 -1.75107 -1.17901 0
M  V30 5422 O 503.559 -1.12983 -1.98613 0
M  V30 5423 C 503.769 -3.40557 0.763023 0
M  V30 5424 C 505.117 -4.17709 0.761879 0
M  V30 5425 O 506.141 -3.49141 0.705606 0
M  V30 5426 O 505 -5.40082 0.835109 0
M  V30 5427 H 502.094 -0.821964 0.0911249 0
M  V30 5428 H 504.64 -1.4338 0.907757 0
M  V30 5429 H 503.412 -3.47187 1.8049 0
M  V30 5430 H 503.035 -3.97259 0.164605 0
M  V30 5431 N 504.032 -0.577932 -1.46621 0
M  V30 5432 C 504.995 0.147805 -2.28723 0
M  V30 5433 C 505.995 0.823325 -1.38123 0
M  V30 5434 O 507.185 0.676011 -1.60548 0
M  V30 5435 C 504.317 1.21853 -3.18378 0
M  V30 5436 H 505.51 -0.573654 -2.94362 0
M  V30 5437 H 503.063 -0.335703 -1.52652 0
M  V30 5438 H 503.798 1.97173 -2.57475 0
M  V30 5439 H 503.583 0.738714 -3.85078 0
M  V30 5440 H 505.073 1.72768 -3.80186 0
M  V30 5441 N 505.51 1.54411 -0.315457 0
M  V30 5442 C 506.756 2.00716 0.289972 0
M  V30 5443 C 507.089 1.2034 1.5242 0
M  V30 5444 O 506.364 0.283579 1.92422 0
M  V30 5445 C 506.647 3.54507 0.632196 0
M  V30 5446 C 506.5 4.45615 -0.61218 0
M  V30 5447 C 507.819 4.15421 1.45305 0
M  V30 5448 H 504.938 0.729637 0.10392 0
M  V30 5449 H 507.58 1.8506 -0.430427 0
M  V30 5450 H 505.73 3.67979 1.24595 0
M  V30 5451 H 507.402 4.44026 -1.25053 0
M  V30 5452 H 505.645 4.15621 -1.24264 0
M  V30 5453 H 506.316 5.51022 -0.328379 0
M  V30 5454 H 508.792 4.05474 0.934331 0
M  V30 5455 H 507.668 5.23157 1.66127 0
M  V30 5456 H 507.929 3.68223 2.44671 0
M  V30 5457 N 506.988 0.0434614 1.5754 0
M  V30 5458 C 507.918 -0.931651 2.14109 0
M  V30 5459 C 508.899 -1.32971 1.06079 0
M  V30 5460 O 510.084 -1.40579 1.33982 0
M  V30 5461 C 507.214 -2.20914 2.67982 0
M  V30 5462 C 506.168 -1.95139 3.80926 0
M  V30 5463 C 505.494 -3.29276 4.21285 0
M  V30 5464 C 506.794 -1.27913 5.06395 0
M  V30 5465 H 508.488 -0.460497 2.95837 0
M  V30 5466 H 506.034 -0.220058 1.42309 0
M  V30 5467 H 507.987 -2.89522 3.06194 0
M  V30 5468 H 506.711 -2.70221 1.83434 0
M  V30 5469 H 505.37 -1.28945 3.43175 0
M  V30 5470 H 505.018 -3.76369 3.33699 0
M  V30 5471 H 504.718 -3.12831 4.97404 0
M  V30 5472 H 506.242 -3.99129 4.62091 0
M  V30 5473 H 507.656 -1.86544 5.42102 0
M  V30 5474 H 506.053 -1.2182 5.87605 0
M  V30 5475 H 507.123 -0.254066 4.84234 0
M  V30 5476 N 508.466 -1.55915 -0.229846 0
M  V30 5477 C 509.696 -1.82352 -0.971152 0
M  V30 5478 C 510.104 -0.619231 -1.7878 0
M  V30 5479 O 509.447 0.421597 -1.78797 0
M  V30 5480 C 509.509 -3.02399 -1.9441 0
M  V30 5481 C 509.173 -4.37739 -1.31277 0
M  V30 5482 C 510.17 -5.15074 -0.706757 0
M  V30 5483 C 507.855 -4.84454 -1.32702 0
M  V30 5484 C 509.849 -6.37281 -0.123413 0
M  V30 5485 C 507.536 -6.06605 -0.739831 0
M  V30 5486 C 508.534 -6.82858 -0.139071 0
M  V30 5487 O 508.222 -8.027 0.439007 0
M  V30 5488 H 507.954 -0.61035 -0.290601 0
M  V30 5489 H 510.508 -2.03839 -0.252746 0
M  V30 5490 H 508.738 -2.76709 -2.70128 0
M  V30 5491 H 510.427 -3.15779 -2.55026 0
M  V30 5492 H 511.193 -4.80093 -0.688131 0
M  V30 5493 H 507.072 -4.25081 -1.78402 0
M  V30 5494 H 510.616 -6.96741 0.346124 0
M  V30 5495 H 506.513 -6.4106 -0.755841 0
M  V30 5496 H 507.281 -8.17824 0.332521 0
M  V30 5497 N 509.944 0.496216 -1.49584 0
M  V30 5498 C 511.355 1.07765 -1.52459 0
M  V30 5499 C 511.706 1.93679 -0.31353 0
M  V30 5500 O 510.831 2.08588 0.576186 0
M  V30 5501 C 511.426 1.96111 -2.76271 0
M  V30 5502 C 509.985 2.49409 -2.81908 0
M  V30 5503 C 509.132 1.27142 -2.46435 0
M  V30 5504 H 512.083 0.279914 -1.56212 0
M  V30 5505 H 512.104 2.80862 -2.56704 0
M  V30 5506 H 511.616 1.33555 -3.64396 0
M  V30 5507 H 509.717 3.1559 -1.98074 0
M  V30 5508 H 509.83 2.86234 -3.84196 0
M  V30 5509 H 508.194 1.59818 -1.98319 0
M  V30 5510 H 508.977 0.662866 -3.3684 0
M  V30 5511 N 511.423 1.38739 0.74761 0
M  V30 5512 C 512.353 1.39173 1.87492 0
M  V30 5513 C 513.334 0.256794 1.6815 0
M  V30 5514 O 514.519 0.460762 1.88655 0
M  V30 5515 C 511.649 1.22197 3.25093 0
M  V30 5516 C 510.603 2.32957 3.59047 0
M  V30 5517 C 509.929 2.01082 4.95449 0
M  V30 5518 C 511.229 3.75237 3.6331 0
M  V30 5519 H 512.923 2.3351 1.87386 0
M  V30 5520 H 510.469 1.12399 0.900134 0
M  V30 5521 H 512.422 1.21124 4.03617 0
M  V30 5522 H 511.146 0.243241 3.25693 0
M  V30 5523 H 509.805 2.33226 2.82845 0
M  V30 5524 H 509.453 1.01678 4.92616 0
M  V30 5525 H 509.153 2.75267 5.19136 0
M  V30 5526 H 510.677 2.01638 5.76346 0
M  V30 5527 H 512.091 3.76966 4.31937 0
M  V30 5528 H 510.488 4.48677 3.98509 0
M  V30 5529 H 511.558 4.07122 2.634 0
M  V30 5530 N 512.901 -0.976442 1.23707 0
M  V30 5531 C 514.15 -1.71254 1.06559 0
M  V30 5532 C 514.463 -1.91528 -0.397024 0
M  V30 5533 O 515.669 -2.62625 -0.688518 0
M  V30 5534 C 514.125 -3.08207 1.8584 0
M  V30 5535 C 513.733 -2.95806 3.36456 0
M  V30 5536 C 515.477 -3.85749 1.77194 0
M  V30 5537 C 513.384 -4.28015 4.08114 0
M  V30 5538 H 512.314 -0.642171 0.395136 0
M  V30 5539 H 514.965 -1.08877 1.4771 0
M  V30 5540 H 513.347 -3.71363 1.37498 0
M  V30 5541 H 514.521 -2.41716 3.92314 0
M  V30 5542 H 512.836 -2.31736 3.45959 0
M  V30 5543 H 515.433 -4.83633 2.28041 0
M  V30 5544 H 515.776 -4.09752 0.735477 0
M  V30 5545 H 516.309 -3.29303 2.23169 0
M  V30 5546 H 513.048 -4.09208 5.12083 0
M  V30 5547 H 512.568 -4.81955 3.57043 0
M  V30 5548 H 514.247 -4.96681 4.14629 0
M  V30 5549 N 514.379 -1.04941 -1.1758 0
M  V30 5550 C 515.342 -0.652456 -2.19717 0
M  V30 5551 C 516.342 0.294745 -1.58076 0
M  V30 5552 O 517.532 0.0789579 -1.74021 0
M  V30 5553 C 514.664 0.0420712 -3.40874 0
M  V30 5554 H 515.857 -1.55642 -2.5635 0
M  V30 5555 H 513.41 -0.842995 -1.31618 0
M  V30 5556 H 514.145 0.95943 -3.09783 0
M  V30 5557 H 513.93 -0.638844 -3.86861 0
M  V30 5558 H 515.42 0.306 -4.16477 0
M  V30 5559 N 515.857 1.33968 -0.830081 0
M  V30 5560 C 516.804 2.29387 -0.255008 0
M  V30 5561 C 517.774 1.53923 0.624243 0
M  V30 5562 O 518.959 1.82262 0.564372 0
M  V30 5563 C 516.099 3.4034 0.571209 0
M  V30 5564 C 515.212 4.30729 -0.331083 0
M  V30 5565 C 514.347 5.2879 0.505389 0
M  V30 5566 C 513.386 6.10819 -0.395843 0
M  V30 5567 N 512.523 7.00948 0.401979 0
M  V30 5568 H 517.363 2.77972 -1.07404 0
M  V30 5569 H 514.9 1.36785 -0.541133 0
M  V30 5570 H 516.858 4.03361 1.06562 0
M  V30 5571 H 515.488 2.9297 1.35529 0
M  V30 5572 H 514.54 3.68507 -0.943759 0
M  V30 5573 H 515.852 4.88181 -1.02377 0
M  V30 5574 H 515.006 5.97297 1.06399 0
M  V30 5575 H 513.745 4.71894 1.23155 0
M  V30 5576 H 512.75 5.41238 -0.966529 0
M  V30 5577 H 513.975 6.69797 -1.12023 0
M  V30 5578 H 511.921 6.46512 1.11168 0
M  V30 5579 H 511.838 7.55643 -0.232167 0
M  V30 5580 H 513.106 7.73774 0.943102 0
M  V30 5581 N 517.335 0.585699 1.46312 0
M  V30 5582 C 518.575 0.0751432 2.04262 0
M  V30 5583 C 518.939 -1.26201 1.44697 0
M  V30 5584 O 520.14 -1.86198 1.93865 0
M  V30 5585 C 518.411 0.013478 3.57397 0
M  V30 5586 S 519.97 -0.439068 4.36598 0
M  V30 5587 H 516.788 0.0389228 0.709934 0
M  V30 5588 H 519.39 0.778871 1.79315 0
M  V30 5589 H 518.094 0.990558 3.98266 0
M  V30 5590 H 517.625 -0.712927 3.86886 0
M  V30 5591 H 519.64 -1.6932 4.66417 0
M  V30 5592 N 518.813 -1.54241 0.323641 0
M  V30 5593 C 520.061 -2.00174 -0.278359 0
M  V30 5594 C 520.382 -1.2134 -1.52648 0
M  V30 5595 O 519.652 -0.315244 -1.93347 0
M  V30 5596 H 518.232 -0.739463 -0.105845 0
M  V30 5597 H 520.894 -1.89864 0.440204 0
M  V30 5598 H 519.99 -3.07486 -0.5347 0
M  V30 5599 N 520.291 -0.0518155 -1.57515 0
M  V30 5600 C 521.538 0.621823 -1.92716 0
M  V30 5601 C 521.866 1.70813 -0.930229 0
M  V30 5602 O 521.121 1.95616 0.0573708 0
M  V30 5603 C 521.42 1.25607 -3.34601 0
M  V30 5604 C 521.086 0.297901 -4.49915 0
M  V30 5605 C 519.748 0.034243 -4.81188 0
M  V30 5606 C 522.1 -0.358738 -5.19964 0
M  V30 5607 C 519.428 -0.893479 -5.79857 0
M  V30 5608 C 521.78 -1.27466 -6.19625 0
M  V30 5609 C 520.444 -1.54698 -6.49326 0
M  V30 5610 H 519.714 0.227541 -0.705199 0
M  V30 5611 H 522.361 -0.118432 -1.91133 0
M  V30 5612 H 520.666 2.07161 -3.32553 0
M  V30 5613 H 522.363 1.78424 -3.59118 0
M  V30 5614 H 518.953 0.513581 -4.25512 0
M  V30 5615 H 523.137 -0.168133 -4.96015 0
M  V30 5616 H 518.393 -1.11193 -6.01204 0
M  V30 5617 H 522.567 -1.78953 -6.73015 0
M  V30 5618 H 520.194 -2.26748 -7.25596 0
M  V30 5619 N 521.769 1.56035 0.221574 0
M  V30 5620 C 522.717 1.93269 1.29421 0
M  V30 5621 C 523.711 0.814727 1.48521 0
M  V30 5622 O 524.917 0.999559 1.49696 0
M  V30 5623 H 521.292 0.614188 0.43391 0
M  V30 5624 H 523.263 2.82773 0.952987 0
M  V30 5625 C 522.012 2.26573 2.63742 0
M  V30 5626 H 521.335 3.12112 2.49853 0
M  V30 5627 H 522.775 2.5651 3.37607 0
M  V30 5628 C 521.234 1.09086 3.1875 0
M  V30 5629 O 521.764 0.351985 4.00155 0
M  V30 5630 N 519.97 0.874693 2.77124 0
M  V30 5631 H 519.517 1.47726 2.11033 0
M  V30 5632 H 519.475 0.0903349 3.1427 0
M  V30 5633 N 523.247 -0.488276 1.49845 0
M  V30 5634 C 524.494 -1.24157 1.59973 0
M  V30 5635 C 524.822 -1.92293 0.292182 0
M  V30 5636 O 524.077 -1.81942 -0.720813 0
M  V30 5637 C 524.376 -2.32152 2.71735 0
M  V30 5638 C 524.042 -1.81387 4.12807 0
M  V30 5639 C 522.704 -1.67262 4.51195 0
M  V30 5640 C 525.056 -1.43537 5.01045 0
M  V30 5641 C 522.384 -1.13685 5.7558 0
M  V30 5642 C 524.736 -0.914081 6.25961 0
M  V30 5643 C 523.4 -0.759327 6.63167 0
M  V30 5644 H 522.67 -0.454322 0.585383 0
M  V30 5645 H 525.317 -0.540261 1.83721 0
M  V30 5646 H 523.622 -3.08122 2.42008 0
M  V30 5647 H 525.319 -2.90164 2.76778 0
M  V30 5648 H 521.909 -1.93344 3.82513 0
M  V30 5649 H 526.093 -1.53292 4.72033 0
M  V30 5650 H 521.349 -1.00426 6.03096 0
M  V30 5651 H 525.523 -0.612066 6.93705 0
M  V30 5652 H 523.15 -0.342002 7.5943 0
M  V30 5653 N 524.725 -1.39134 -0.740242 0
M  V30 5654 C 525.953 -1.39334 -1.5295 0
M  V30 5655 C 526.368 0.0135008 -1.88795 0
M  V30 5656 O 525.725 0.983524 -1.5373 0
M  V30 5657 C 525.776 -2.2614 -2.82034 0
M  V30 5658 O 525.497 -3.61345 -2.47712 0
M  V30 5659 C 526.998 -2.34666 -3.76094 0
M  V30 5660 H 524.218 -0.476103 -0.472828 0
M  V30 5661 H 526.762 -1.82883 -0.9151 0
M  V30 5662 H 524.917 -1.86018 -3.39818 0
M  V30 5663 H 525.331 -4.07194 -3.30595 0
M  V30 5664 H 526.805 -2.99663 -4.63579 0
M  V30 5665 H 527.282 -1.36426 -4.17474 0
M  V30 5666 H 527.888 -2.75236 -3.2423 0
M  V30 5667 N 526.204 0.969867 -1.24223 0
M  V30 5668 C 527.429 1.75289 -1.10853 0
M  V30 5669 C 527.854 1.85091 0.335079 0
M  V30 5670 O 527.212 1.32024 1.24255 0
M  V30 5671 C 527.26 3.15255 -1.75062 0
M  V30 5672 O 526.364 3.99589 -1.01992 0
M  V30 5673 H 525.705 0.538904 -0.387915 0
M  V30 5674 H 528.235 1.21675 -1.64488 0
M  V30 5675 H 528.245 3.65787 -1.80731 0
M  V30 5676 H 526.92 3.07436 -2.801 0
M  V30 5677 H 525.497 3.58077 -1.04094 0
M  V30 5678 N 527.682 1.05563 1.17022 0
M  V30 5679 C 528.612 0.681026 2.23348 0
M  V30 5680 C 529.593 -0.322983 1.67005 0
M  V30 5681 O 530.778 -0.199746 1.9317 0
M  V30 5682 C 527.908 0.0589053 3.4725 0
M  V30 5683 C 526.862 0.988082 4.16438 0
M  V30 5684 C 526.188 0.229646 5.34207 0
M  V30 5685 C 527.488 2.31388 4.68249 0
M  V30 5686 H 529.182 1.56993 2.54938 0
M  V30 5687 H 526.728 0.756302 1.2254 0
M  V30 5688 H 528.681 -0.214982 4.20851 0
M  V30 5689 H 527.405 -0.864968 3.14938 0
M  V30 5690 H 526.064 1.24659 3.44754 0
M  V30 5691 H 525.712 -0.697111 4.98146 0
M  V30 5692 H 525.412 0.848815 5.81437 0
M  V30 5693 H 526.936 -0.0368694 6.10589 0
M  V30 5694 H 528.35 2.09964 5.33468 0
M  V30 5695 H 526.747 2.88736 5.26072 0
M  V30 5696 H 527.817 2.94982 3.84855 0
M  V30 5697 N 529.16 -1.33526 0.837174 0
M  V30 5698 C 530.107 -2.29248 0.267169 0
M  V30 5699 C 531.077 -1.54252 -0.616071 0
M  V30 5700 O 532.262 -1.82559 -0.554699 0
M  V30 5701 C 529.402 -3.40638 -0.553152 0
M  V30 5702 C 528.515 -4.30548 0.353921 0
M  V30 5703 C 527.65 -5.29051 -0.477339 0
M  V30 5704 C 526.689 -6.106 0.42823 0
M  V30 5705 N 525.826 -7.01152 -0.364801 0
M  V30 5706 H 530.666 -2.77398 1.08877 0
M  V30 5707 H 528.203 -1.36496 0.54838 0
M  V30 5708 H 530.161 -4.03921 -1.04422 0
M  V30 5709 H 528.791 -2.93685 -1.33973 0
M  V30 5710 H 527.843 -3.68001 0.963289 0
M  V30 5711 H 529.155 -4.87631 1.04964 0
M  V30 5712 H 528.309 -5.97853 -1.0323 0
M  V30 5713 H 527.048 -4.72541 -1.2065 0
M  V30 5714 H 526.053 -5.40718 0.995219 0
M  V30 5715 H 527.278 -6.69193 1.15573 0
M  V30 5716 H 525.224 -6.47092 -1.07738 0
M  V30 5717 H 525.141 -7.5551 0.272238 0
M  V30 5718 H 526.409 -7.74263 -0.902054 0
M  V30 5719 N 530.638 -0.59345 -1.46 0
M  V30 5720 C 531.585 0.133618 -2.30413 0
M  V30 5721 C 532.555 0.873736 -1.41262 0
M  V30 5722 O 533.74 0.862279 -1.70204 0
M  V30 5723 C 530.88 1.13434 -3.25924 0
M  V30 5724 C 529.993 0.39656 -4.30176 0
M  V30 5725 C 529.128 1.38575 -5.12806 0
M  V30 5726 C 528.167 0.634984 -6.08797 0
M  V30 5727 N 527.304 1.57276 -6.84258 0
M  V30 5728 H 532.144 -0.592252 -2.92055 0
M  V30 5729 H 529.681 -0.303874 -1.43927 0
M  V30 5730 H 531.639 1.72752 -3.79753 0
M  V30 5731 H 530.269 1.82779 -2.66067 0
M  V30 5732 H 529.321 -0.311861 -3.79119 0
M  V30 5733 H 530.633 -0.189869 -4.98438 0
M  V30 5734 H 529.787 2.05141 -5.70966 0
M  V30 5735 H 528.526 2.00611 -4.44529 0
M  V30 5736 H 527.531 -0.0443925 -5.49782 0
M  V30 5737 H 528.756 0.0198678 -6.79097 0
M  V30 5738 H 526.702 2.18103 -6.18682 0
M  V30 5739 H 526.619 1.03941 -7.48821 0
M  V30 5740 H 527.887 2.22844 -7.46968 0
M  V30 5741 N 532.116 1.54067 -0.331816 0
M  V30 5742 C 533.049 2.20886 0.573127 0
M  V30 5743 C 534.027 1.18876 1.10938 0
M  V30 5744 O 535.211 1.47649 1.17184 0
M  V30 5745 C 532.338 2.87706 1.78726 0
M  V30 5746 C 531.384 4.03505 1.38152 0
M  V30 5747 S 532.217 5.33919 0.41123 0
M  V30 5748 C 533.373 6.04236 1.63246 0
M  V30 5749 H 533.606 2.97299 0.00555737 0
M  V30 5750 H 531.139 1.53964 -0.115893 0
M  V30 5751 H 533.097 3.26825 2.48386 0
M  V30 5752 H 531.758 2.1108 2.32603 0
M  V30 5753 H 530.951 4.49152 2.28645 0
M  V30 5754 H 530.553 3.66102 0.764524 0
M  V30 5755 H 532.845 6.26917 2.56869 0
M  V30 5756 H 533.788 6.97546 1.218 0
M  V30 5757 H 534.196 5.34247 1.82318 0
M  V30 5758 N 533.594 0.0601682 1.57485 0
M  V30 5759 C 534.557 -0.896373 2.10945 0
M  V30 5760 C 535.557 -1.23402 1.03095 0
M  V30 5761 O 536.747 -1.16921 1.29132 0
M  V30 5762 C 533.879 -2.20346 2.60116 0
M  V30 5763 H 535.072 -0.432778 2.96761 0
M  V30 5764 H 532.625 -0.188372 1.55161 0
M  V30 5765 H 533.36 -2.71268 1.7772 0
M  V30 5766 H 533.145 -1.9714 3.38937 0
M  V30 5767 H 534.635 -2.88846 3.01592 0
M  V30 5768 N 535.072 -1.5615 -0.213296 0
M  V30 5769 C 536.318 -1.79812 -0.937849 0
M  V30 5770 C 536.651 -0.631201 -1.83656 0
M  V30 5771 O 535.926 0.369165 -1.90964 0
M  V30 5772 C 536.209 -3.13613 -1.76972 0
M  V30 5773 C 536.062 -4.40766 -0.89695 0
M  V30 5774 C 537.381 -3.43931 -2.7459 0
M  V30 5775 H 534.5 -0.654138 -0.339518 0
M  V30 5776 H 537.142 -1.88877 -0.20623 0
M  V30 5777 H 535.292 -3.06015 -2.39347 0
M  V30 5778 H 536.964 -4.60392 -0.289306 0
M  V30 5779 H 535.207 -4.33326 -0.202756 0
M  V30 5780 H 535.878 -5.30843 -1.51358 0
M  V30 5781 H 538.354 -3.5171 -2.22349 0
M  V30 5782 H 537.23 -4.38706 -3.29891 0
M  V30 5783 H 537.491 -2.6651 -3.52739 0
M  V30 5784 N 536.55 0.480323 -1.50102 0
M  V30 5785 C 537.798 1.23063 -1.60312 0
M  V30 5786 C 538.119 1.92659 -0.301226 0
M  V30 5787 O 537.389 1.83691 0.680753 0
M  V30 5788 H 535.969 0.457231 -0.590719 0
M  V30 5789 H 538.631 0.554893 -1.86834 0
M  V30 5790 H 537.727 1.9835 -2.40964 0
M  V30 5791 N 538.028 1.39524 0.732853 0
M  V30 5792 C 538.961 1.32806 1.85574 0
M  V30 5793 C 539.939 0.201354 1.61348 0
M  V30 5794 O 541.123 0.38216 1.84585 0
M  V30 5795 C 538.25 1.06271 3.21596 0
M  V30 5796 C 537.296 2.21161 3.64678 0
M  V30 5797 S 538.129 3.83454 3.73796 0
M  V30 5798 C 539.285 3.59149 5.12604 0
M  V30 5799 H 539.518 2.27838 1.9099 0
M  V30 5800 H 537.051 1.25605 0.897927 0
M  V30 5801 H 539.009 0.916461 4.00139 0
M  V30 5802 H 537.67 0.129223 3.13834 0
M  V30 5803 H 536.863 1.98193 4.63396 0
M  V30 5804 H 536.465 2.32 2.93346 0
M  V30 5805 H 538.757 3.16547 5.99003 0
M  V30 5806 H 539.7 4.57335 5.40602 0
M  V30 5807 H 540.108 2.93203 4.82382 0
M  V30 5808 N 539.506 -0.963266 1.24736 0
M  V30 5809 C 540.752 -1.70933 1.09131 0
M  V30 5810 C 541.085 -1.90676 -0.368273 0
M  V30 5811 O 540.36 -1.47147 -1.27193 0
M  V30 5812 C 540.643 -3.09744 1.83658 0
M  V30 5813 C 540.496 -2.97465 3.37394 0
M  V30 5814 C 541.815 -4.09483 1.61282 0
M  V30 5815 H 538.934 -0.620398 0.397838 0
M  V30 5816 H 541.576 -1.12028 1.53459 0
M  V30 5817 H 539.726 -3.60031 1.4598 0
M  V30 5818 H 541.398 -2.54571 3.84696 0
M  V30 5819 H 539.641 -2.33576 3.65547 0
M  V30 5820 H 540.312 -3.95822 3.84745 0
M  V30 5821 H 542.788 -3.68073 1.94066 0
M  V30 5822 H 541.664 -5.04666 2.15878 0
M  V30 5823 H 541.925 -4.38639 0.552102 0
M  V30 5824 N 540.985 -1.06182 -1.16461 0
M  V30 5825 C 541.915 -0.692861 -2.22984 0
M  V30 5826 C 542.896 0.314122 -1.67174 0
M  V30 5827 O 544.081 0.189499 -1.93273 0
M  V30 5828 C 541.211 -0.07732 -3.47214 0
M  V30 5829 C 540.165 -1.01015 -4.15909 0
M  V30 5830 C 539.491 -0.257973 -5.34077 0
M  V30 5831 C 540.791 -2.33868 -4.67015 0
M  V30 5832 H 542.485 -1.58343 -2.54102 0
M  V30 5833 H 540.031 -0.76279 -1.22137 0
M  V30 5834 H 541.984 0.19266 -4.20959 0
M  V30 5835 H 540.708 0.848254 -3.15392 0
M  V30 5836 H 539.367 -1.26486 -3.44088 0
M  V30 5837 H 539.015 0.670684 -4.98509 0
M  V30 5838 H 538.715 -0.879638 -5.80979 0
M  V30 5839 H 540.239 0.00448788 -6.106 0
M  V30 5840 H 541.653 -2.1279 -5.32347 0
M  V30 5841 H 540.05 -2.91522 -5.24533 0
M  V30 5842 H 541.12 -2.97019 -3.83286 0
M  V30 5843 N 542.463 1.3308 -0.844243 0
M  V30 5844 C 543.426 2.27403 -0.286485 0
M  V30 5845 C 544.426 1.51179 0.547872 0
M  V30 5846 O 545.616 1.70421 0.360886 0
M  V30 5847 C 542.748 3.35653 0.595813 0
M  V30 5848 H 543.941 2.78248 -1.11885 0
M  V30 5849 H 541.494 1.43574 -0.617749 0
M  V30 5850 H 542.229 2.90058 1.4504 0
M  V30 5851 H 542.014 3.921 -0.00125994 0
M  V30 5852 H 543.504 4.05958 0.979168 0
M  V30 5853 N 543.941 0.601185 1.45683 0
M  V30 5854 C 545.166 0.0982245 2.07167 0
M  V30 5855 C 545.591 -1.20546 1.44396 0
M  V30 5856 O 544.949 -1.73247 0.534347 0
M  V30 5857 C 544.997 -0.0346976 3.60583 0
M  V30 5858 O 544.101 -1.08657 3.97828 0
M  V30 5859 H 543.442 0.0711618 0.660176 0
M  V30 5860 H 545.972 0.829376 1.87036 0
M  V30 5861 H 545.982 -0.234969 4.07323 0
M  V30 5862 H 544.657 0.917265 4.05659 0
M  V30 5863 H 543.234 -0.863275 3.6277 0
M  V30 5864 N 545.419 -1.53889 0.339982 0
M  V30 5865 C 546.352 -2.21187 -0.561405 0
M  V30 5866 C 547.33 -1.19463 -1.10306 0
M  V30 5867 O 548.514 -1.48268 -1.164 0
M  V30 5868 C 545.641 -2.8865 -1.77198 0
M  V30 5869 C 544.687 -4.04232 -1.3601 0
M  V30 5870 S 545.52 -5.34129 -0.382909 0
M  V30 5871 C 546.676 -6.05094 -1.60039 0
M  V30 5872 H 546.909 -2.97298 0.0102092 0
M  V30 5873 H 544.442 -1.53901 0.124056 0
M  V30 5874 H 546.4 -3.28138 -2.4665 0
M  V30 5875 H 545.061 -2.12311 -2.3148 0
M  V30 5876 H 544.254 -4.50358 -2.2626 0
M  V30 5877 H 543.856 -3.66503 -0.745098 0
M  V30 5878 H 546.148 -6.2827 -2.53541 0
M  V30 5879 H 547.091 -6.98182 -1.18099 0
M  V30 5880 H 547.499 -5.35207 -1.79483 0
M  V30 5881 N 546.897 -0.0685191 -1.57451 0
M  V30 5882 C 547.86 0.885173 -2.11417 0
M  V30 5883 C 548.86 1.22853 -1.03748 0
M  V30 5884 O 550.05 1.16235 -1.2975 0
M  V30 5885 C 547.182 2.18964 -2.61281 0
M  V30 5886 H 548.375 0.417034 -2.96986 0
M  V30 5887 H 545.928 0.18014 -1.55258 0
M  V30 5888 H 546.663 2.70321 -1.79156 0
M  V30 5889 H 546.448 1.9534 -3.39977 0
M  V30 5890 H 547.938 2.87242 -3.0312 0
M  V30 5891 N 548.375 1.56261 0.205012 0
M  V30 5892 C 549.622 1.8004 0.926927 0
M  V30 5893 C 549.95 0.640086 1.83666 0
M  V30 5894 O 549.205 -0.374702 1.92079 0
M  V30 5895 C 549.504 3.09722 1.78345 0
M  V30 5896 C 549.17 4.39082 1.02555 0
M  V30 5897 C 547.832 4.74226 0.816256 0
M  V30 5898 C 550.184 5.18877 0.491559 0
M  V30 5899 C 547.512 5.86668 0.0613287 0
M  V30 5900 C 549.864 6.32105 -0.250107 0
M  V30 5901 C 548.528 6.6584 -0.470508 0
M  V30 5902 H 547.798 0.658812 0.339187 0
M  V30 5903 H 550.445 1.90515 0.19395 0
M  V30 5904 H 548.75 2.9444 2.5848 0
M  V30 5905 H 550.447 3.25324 2.34446 0
M  V30 5906 H 547.037 4.11497 1.19868 0
M  V30 5907 H 551.221 4.92147 0.640684 0
M  V30 5908 H 546.477 6.11283 -0.119501 0
M  V30 5909 H 550.651 6.93157 -0.671307 0
M  V30 5910 H 548.278 7.5281 -1.05739 0
M  V30 5911 N 549.853 -0.472356 1.50355 0
M  V30 5912 C 551.099 -1.22634 1.6152 0
M  V30 5913 C 551.432 -1.91645 0.313995 0
M  V30 5914 O 550.707 -1.82059 -0.684446 0
M  V30 5915 C 550.99 -2.27099 2.7946 0
M  V30 5916 C 550.843 -1.62402 4.19459 0
M  V30 5917 C 552.162 -3.28421 2.92964 0
M  V30 5918 H 549.281 -0.444494 0.587873 0
M  V30 5919 H 551.923 -0.520321 1.82737 0
M  V30 5920 H 550.073 -2.87314 2.61501 0
M  V30 5921 H 551.745 -1.05793 4.49005 0
M  V30 5922 H 549.988 -0.927184 4.23776 0
M  V30 5923 H 550.659 -2.38309 4.97909 0
M  V30 5924 H 553.135 -2.78227 3.09401 0
M  V30 5925 H 552.011 -3.98845 3.77113 0
M  V30 5926 H 552.272 -3.92467 2.03525 0
M  V30 5927 N 551.331 -1.39911 -0.725443 0
M  V30 5928 C 552.577 -1.37858 -1.48738 0
M  V30 5929 C 552.91 0.0224187 -1.94187 0
M  V30 5930 O 552.185 0.989204 -1.67466 0
M  V30 5931 C 552.468 -2.3594 -2.72038 0
M  V30 5932 C 552.321 -3.85023 -2.32546 0
M  V30 5933 C 553.64 -2.31704 -3.74167 0
M  V30 5934 H 550.759 -0.502074 -0.539528 0
M  V30 5935 H 553.401 -1.70974 -0.828728 0
M  V30 5936 H 551.551 -2.0783 -3.28236 0
M  V30 5937 H 553.223 -4.2392 -1.81905 0
M  V30 5938 H 551.466 -4.01334 -1.64661 0
M  V30 5939 H 552.137 -4.49152 -3.20884 0
M  V30 5940 H 554.613 -2.5658 -3.27576 0
M  V30 5941 H 553.489 -3.02395 -4.58092 0
M  V30 5942 H 553.75 -1.3253 -4.21768 0
M  V30 5943 N 552.809 0.956637 -1.25245 0
M  V30 5944 C 553.772 2.03457 -1.05537 0
M  V30 5945 C 554.772 1.60798 -0.00886317 0
M  V30 5946 O 555.962 1.72384 -0.250865 0
M  V30 5947 C 553.094 3.35543 -0.601965 0
M  V30 5948 H 554.287 2.22372 -2.01223 0
M  V30 5949 H 551.84 1.13344 -1.07623 0
M  V30 5950 H 552.575 3.22323 0.357584 0
M  V30 5951 H 552.36 3.67854 -1.35743 0
M  V30 5952 H 553.85 4.14769 -0.485454 0
M  V30 5953 N 554.287 1.06798 1.15896 0
M  V30 5954 C 555.25 0.687328 2.18651 0
M  V30 5955 C 556.25 -0.269559 1.58524 0
M  V30 5956 O 557.44 -0.0512627 1.74125 0
M  V30 5957 C 554.572 0.0121642 3.40898 0
M  V30 5958 H 555.765 1.59701 2.53842 0
M  V30 5959 H 553.318 0.863828 1.3026 0
M  V30 5960 H 554.053 -0.910025 3.1127 0
M  V30 5961 H 553.838 0.700309 3.85795 0
M  V30 5962 H 555.328 -0.239703 4.16911 0
M  V30 5963 N 555.766 -1.3263 0.851289 0
M  V30 5964 C 557.015 -1.96633 0.449267 0
M  V30 5965 C 557.328 -1.68131 -0.999562 0
M  V30 5966 O 558.534 -2.25845 -1.50685 0
M  V30 5967 C 556.99 -3.51946 0.752446 0
M  V30 5968 C 556.598 -3.89311 2.21678 0
M  V30 5969 C 558.342 -4.22437 0.417983 0
M  V30 5970 C 556.249 -5.37655 2.46336 0
M  V30 5971 H 555.179 -0.735888 0.164269 0
M  V30 5972 H 557.83 -1.51073 1.0416 0
M  V30 5973 H 556.212 -3.95899 0.0895858 0
M  V30 5974 H 557.386 -3.56378 2.92115 0
M  V30 5975 H 555.701 -3.31836 2.51543 0
M  V30 5976 H 558.298 -5.31549 0.579674 0
M  V30 5977 H 558.641 -4.11349 -0.640115 0
M  V30 5978 H 559.174 -3.84057 1.03659 0
M  V30 5979 H 555.913 -5.5376 3.50757 0
M  V30 5980 H 555.433 -5.72005 1.80473 0
M  V30 5981 H 557.112 -6.04695 2.30115 0
M  V30 5982 N 557.244 -0.608902 -1.45362 0
M  V30 5983 C 558.49 -0.104762 -2.02529 0
M  V30 5984 C 558.823 1.26191 -1.47613 0
M  V30 5985 O 558.098 1.8327 -0.65134 0
M  V30 5986 C 558.381 -0.0672661 -3.60037 0
M  V30 5987 C 558.234 -1.4647 -4.25284 0
M  V30 5988 C 559.553 0.619877 -4.35713 0
M  V30 5989 H 556.672 -0.0395438 -0.735938 0
M  V30 5990 H 559.314 -0.781126 -1.73201 0
M  V30 5991 H 557.464 0.50871 -3.85155 0
M  V30 5992 H 559.136 -2.08785 -4.11347 0
M  V30 5993 H 557.379 -2.02502 -3.83634 0
M  V30 5994 H 558.05 -1.39069 -5.34195 0
M  V30 5995 H 560.526 0.130297 -4.15896 0
M  V30 5996 H 559.402 0.615224 -5.45441 0
M  V30 5997 H 559.663 1.68621 -4.0868 0
M  V30 5998 N 558.722 1.53707 -0.348139 0
M  V30 5999 C 559.654 2.22725 0.540946 0
M  V30 6000 C 560.667 1.2354 1.06027 0
M  V30 6001 O 561.856 1.49867 0.96964 0
M  V30 6002 C 558.956 2.89756 1.75768 0
M  V30 6003 C 558.129 4.15297 1.37285 0
M  V30 6004 C 557.188 4.65697 2.44976 0
M  V30 6005 O 556.214 5.29798 2.08092 0
M  V30 6006 N 557.416 4.42017 3.763 0
M  V30 6007 H 560.181 2.99658 -0.0501592 0
M  V30 6008 H 557.742 1.60979 -0.17248 0
M  V30 6009 H 559.734 3.20388 2.47252 0
M  V30 6010 H 558.304 2.16382 2.25605 0
M  V30 6011 H 557.524 3.9116 0.488584 0
M  V30 6012 H 558.812 4.96948 1.09179 0
M  V30 6013 H 558.21 3.9076 4.09051 0
M  V30 6014 H 556.767 4.77242 4.4394 0
M  V30 6015 N 560.2 0.0768682 1.57412 0
M  V30 6016 C 561.446 -0.591961 1.93968 0
M  V30 6017 C 561.779 -1.68954 0.9575 0
M  V30 6018 O 561.054 -1.94496 -0.0124675 0
M  V30 6019 C 561.337 -1.16418 3.40762 0
M  V30 6020 C 561.19 -0.0728933 4.49741 0
M  V30 6021 C 562.509 -2.06814 3.88479 0
M  V30 6022 H 559.628 -0.213716 0.705333 0
M  V30 6023 H 562.27 0.14387 1.89455 0
M  V30 6024 H 560.42 -1.79128 3.4474 0
M  V30 6025 H 562.092 0.560446 4.57883 0
M  V30 6026 H 560.335 0.595859 4.29688 0
M  V30 6027 H 561.006 -0.513755 5.49604 0
M  V30 6028 H 563.482 -1.54033 3.8654 0
M  V30 6029 H 562.358 -2.43785 4.91793 0
M  V30 6030 H 562.619 -2.97844 3.26713 0
M  V30 6031 N 561.678 -1.56367 -0.196722 0
M  V30 6032 C 562.588 -1.97617 -1.2643 0
M  V30 6033 C 563.604 -0.883598 -1.49895 0
M  V30 6034 O 564.78 -1.18921 -1.62541 0
M  V30 6035 C 561.845 -2.30595 -2.58895 0
M  V30 6036 C 560.906 -3.53551 -2.43516 0
M  V30 6037 C 560.139 -3.84946 -3.69665 0
M  V30 6038 O 560.362 -3.17655 -4.73763 0
M  V30 6039 O 559.296 -4.78379 -3.65291 0
M  V30 6040 H 563.122 -2.88648 -0.944233 0
M  V30 6041 H 560.707 -1.43901 -0.401592 0
M  V30 6042 H 562.589 -2.52889 -3.37083 0
M  V30 6043 H 561.264 -1.42732 -2.90533 0
M  V30 6044 H 560.171 -3.36507 -1.63445 0
M  V30 6045 H 561.504 -4.41875 -2.16812 0
M  V30 6046 N 563.156 0.464375 -1.50603 0
M  V30 6047 C 564.405 1.21277 -1.61167 0
M  V30 6048 C 564.718 1.92953 -0.320704 0
M  V30 6049 O 565.924 2.69778 -0.30534 0
M  V30 6050 C 564.38 2.20403 -2.84518 0
M  V30 6051 C 563.988 1.54499 -4.20516 0
M  V30 6052 C 565.732 2.95843 -3.0443 0
M  V30 6053 C 563.639 2.51951 -5.35047 0
M  V30 6054 H 562.569 0.456367 -0.600204 0
M  V30 6055 H 565.22 0.48254 -1.77042 0
M  V30 6056 H 563.602 2.96746 -2.62217 0
M  V30 6057 H 564.776 0.83899 -4.53098 0
M  V30 6058 H 563.091 0.913152 -4.06264 0
M  V30 6059 H 565.688 3.6879 -3.87167 0
M  V30 6060 H 566.031 3.55622 -2.16423 0
M  V30 6061 H 566.564 2.26611 -3.26944 0
M  V30 6062 H 563.303 1.96901 -6.25228 0
M  V30 6063 H 562.823 3.20683 -5.06875 0
M  V30 6064 H 564.502 3.13643 -5.65895 0
M  V30 6065 N 564.634 1.40294 0.718013 0
M  V30 6066 C 565.911 1.2894 1.47084 0
M  V30 6067 C 566.291 -0.0933625 2.10893 0
M  V30 6068 O 565.639 -1.10598 1.99951 0
M  V30 6069 C 565.849 2.4264 2.50852 0
M  V30 6070 C 567.197 2.8276 3.16752 0
M  V30 6071 O 568.221 2.42215 2.61171 0
M  V30 6072 O 567.08 3.528 4.17366 0
M  V30 6073 H 564.174 0.506236 0.653952 0
M  V30 6074 H 566.72 1.52208 0.750394 0
M  V30 6075 H 565.492 3.35009 2.022 0
M  V30 6076 H 565.115 2.21129 3.30435 0
M  V30 6077 N 566.112 -0.949982 1.2575 0
M  V30 6078 C 567.059 -2.04738 1.06541 0
M  V30 6079 C 568.029 -1.66078 -0.0268818 0
M  V30 6080 O 569.214 -1.90348 0.131196 0
M  V30 6081 C 566.354 -3.38027 0.695127 0
M  V30 6082 C 565.467 -3.89776 1.86276 0
M  V30 6083 C 564.602 -5.11411 1.4364 0
M  V30 6084 C 563.641 -5.554 2.57287 0
M  V30 6085 N 562.778 -6.68244 2.15395 0
M  V30 6086 H 567.618 -2.20502 2.00457 0
M  V30 6087 H 565.155 -1.0805 0.998178 0
M  V30 6088 H 567.113 -4.14641 0.461375 0
M  V30 6089 H 565.743 -3.22135 -0.207046 0
M  V30 6090 H 564.795 -3.0964 2.20969 0
M  V30 6091 H 566.107 -4.18368 2.71606 0
M  V30 6092 H 565.261 -5.95457 1.16257 0
M  V30 6093 H 564 -4.84545 0.553879 0
M  V30 6094 H 563.005 -4.69916 2.85409 0
M  V30 6095 H 564.23 -5.84272 3.46125 0
M  V30 6096 H 562.176 -6.43078 1.29565 0
M  V30 6097 H 562.093 -6.96377 2.94272 0
M  V30 6098 H 563.361 -7.55687 1.91201 0
M  V30 6099 N 567.59 -1.07411 -1.15328 0
M  V30 6100 C 568.818 -0.818782 -1.90009 0
M  V30 6101 C 569.233 0.628072 -1.78047 0
M  V30 6102 O 568.59 1.43085 -1.13282 0
M  V30 6103 C 568.641 -1.21874 -3.40337 0
M  V30 6104 O 568.362 -2.60883 -3.51954 0
M  V30 6105 C 569.863 -0.992796 -4.3204 0
M  V30 6106 H 567.083 -0.296007 -0.60218 0
M  V30 6107 H 569.627 -1.43073 -1.46117 0
M  V30 6108 H 567.782 -0.651103 -3.81889 0
M  V30 6109 H 568.196 -2.77216 -4.45255 0
M  V30 6110 H 569.67 -1.32215 -5.35932 0
M  V30 6111 H 570.147 0.0708331 -4.39143 0
M  V30 6112 H 570.753 -1.54537 -3.9623 0
M  V30 6113 N 569.068 1.32177 -0.85831 0
M  V30 6114 C 569.998 2.31282 -0.321041 0
M  V30 6115 C 570.979 1.59841 0.581786 0
M  V30 6116 O 572.164 1.87619 0.501262 0
M  V30 6117 C 569.294 3.4385 0.48832 0
M  V30 6118 C 568.248 4.26799 -0.320391 0
M  V30 6119 C 567.574 5.31164 0.613934 0
M  V30 6120 C 568.874 4.98829 -1.54813 0
M  V30 6121 H 570.568 2.76469 -1.14915 0
M  V30 6122 H 568.114 1.32916 -0.554028 0
M  V30 6123 H 570.067 4.12224 0.874626 0
M  V30 6124 H 568.791 2.97401 1.34983 0
M  V30 6125 H 567.45 3.60077 -0.688497 0
M  V30 6126 H 567.098 4.80967 1.47239 0
M  V30 6127 H 566.798 5.8755 0.0768097 0
M  V30 6128 H 568.322 6.024 0.997336 0
M  V30 6129 H 569.736 5.59864 -1.23392 0
M  V30 6130 H 568.133 5.64957 -2.02346 0
M  V30 6131 H 569.203 4.26483 -2.30739 0
M  V30 6132 N 570.547 0.616602 1.45037 0
M  V30 6133 C 571.958 0.199359 1.85633 0
M  V30 6134 C 572.309 -1.24588 1.51566 0
M  V30 6135 O 571.434 -1.94594 0.94668 0
M  V30 6136 C 572.029 0.355033 3.36935 0
M  V30 6137 C 570.588 -0.00758748 3.76399 0
M  V30 6138 C 569.735 0.675256 2.68953 0
M  V30 6139 H 572.686 0.822708 1.3571 0
M  V30 6140 H 572.707 -0.410201 3.78282 0
M  V30 6141 H 572.219 1.40699 3.61698 0
M  V30 6142 H 570.32 -1.05837 3.57252 0
M  V30 6143 H 570.433 0.392346 4.77491 0
M  V30 6144 H 568.797 0.111992 2.54454 0
M  V30 6145 H 569.58 1.72952 2.96551 0
M  V30 6146 N 572.025 -1.5352 0.356285 0
M  V30 6147 C 573.271 -2.01414 -0.236653 0
M  V30 6148 C 573.604 -1.24339 -1.49176 0
M  V30 6149 O 572.879 -0.334496 -1.91602 0
M  V30 6150 C 573.162 -3.56059 -0.537982 0
M  V30 6151 C 573.015 -4.43835 0.730112 0
M  V30 6152 C 574.334 -4.19127 -1.34239 0
M  V30 6153 H 571.453 -0.732135 -0.0845386 0
M  V30 6154 H 574.095 -1.83854 0.479341 0
M  V30 6155 H 572.245 -3.71153 -1.14795 0
M  V30 6156 H 573.917 -4.40555 1.36782 0
M  V30 6157 H 572.16 -4.1218 1.3524 0
M  V30 6158 H 572.831 -5.49958 0.474358 0
M  V30 6159 H 575.307 -4.07809 -0.826498 0
M  V30 6160 H 574.183 -5.27378 -1.52198 0
M  V30 6161 H 574.444 -3.74581 -2.34822 0
M  V30 6162 N 573.503 -0.0852151 -1.57369 0
M  V30 6163 C 574.75 0.580806 -1.93992 0
M  V30 6164 C 575.078 1.68801 -0.966252 0
M  V30 6165 O 574.333 1.95694 0.0158649 0
M  V30 6166 C 574.632 1.18482 -3.3719 0
M  V30 6167 C 574.298 0.2024 -4.50446 0
M  V30 6168 C 572.96 -0.0678318 -4.81152 0
M  V30 6169 C 575.312 -0.46895 -5.19086 0
M  V30 6170 C 572.64 -1.01627 -5.77831 0
M  V30 6171 C 574.992 -1.4058 -6.16782 0
M  V30 6172 C 573.656 -1.68436 -6.45899 0
M  V30 6173 H 572.926 0.212532 -0.709867 0
M  V30 6174 H 575.573 -0.158947 -1.90839 0
M  V30 6175 H 573.878 2.0006 -3.36873 0
M  V30 6176 H 575.575 1.70767 -3.62822 0
M  V30 6177 H 572.165 0.423208 -4.26505 0
M  V30 6178 H 576.349 -0.273307 -4.95547 0
M  V30 6179 H 571.605 -1.2392 -5.9871 0
M  V30 6180 H 575.779 -1.93188 -6.69068 0
M  V30 6181 H 573.406 -2.42088 -7.20623 0
M  V30 6182 N 574.981 1.5647 0.188427 0
M  V30 6183 C 576.392 1.70864 0.752494 0
M  V30 6184 C 576.743 0.692905 1.83557 0
M  V30 6185 O 575.868 -0.149307 2.15884 0
M  V30 6186 C 576.463 3.09789 1.37173 0
M  V30 6187 C 575.022 3.25925 1.88281 0
M  V30 6188 C 574.169 2.66817 0.755259 0
M  V30 6189 H 577.12 1.58657 -0.0367408 0
M  V30 6190 H 577.141 3.07489 2.24122 0
M  V30 6191 H 576.653 3.83693 0.583219 0
M  V30 6192 H 574.754 2.56948 2.6983 0
M  V30 6193 H 574.867 4.33498 2.04001 0
M  V30 6194 H 573.231 2.2617 1.17128 0
M  V30 6195 H 574.014 3.43294 -0.0211237 0
M  V30 6196 N 576.459 -0.456382 1.50847 0
M  V30 6197 C 577.406 -1.55249 1.70782 0
M  V30 6198 C 578.376 -1.56757 0.549231 0
M  V30 6199 O 579.561 -1.74061 0.7815 0
M  V30 6200 C 576.701 -2.93118 1.82143 0
M  V30 6201 C 575.814 -3.01285 3.09598 0
M  V30 6202 C 574.949 -4.30159 3.11667 0
M  V30 6203 C 573.988 -4.32124 4.33515 0
M  V30 6204 N 573.125 -5.52492 4.3324 0
M  V30 6205 H 577.965 -1.37555 2.64353 0
M  V30 6206 H 575.502 -0.668543 1.3103 0
M  V30 6207 H 577.46 -3.73088 1.86711 0
M  V30 6208 H 576.09 -3.09413 0.919978 0
M  V30 6209 H 575.142 -2.14096 3.14431 0
M  V30 6210 H 576.454 -2.98597 3.99551 0
M  V30 6211 H 575.608 -5.18489 3.15046 0
M  V30 6212 H 574.347 -4.35477 2.1957 0
M  V30 6213 H 573.352 -3.42189 4.30333 0
M  V30 6214 H 574.577 -4.28485 5.26856 0
M  V30 6215 H 572.523 -5.58567 3.44004 0
M  V30 6216 H 572.44 -5.51605 5.16979 0
M  V30 6217 H 573.708 -6.42906 4.40786 0
M  V30 6218 N 577.937 -1.40673 -0.710563 0
M  V30 6219 C 579.185 -1.38947 -1.46759 0
M  V30 6220 C 579.506 0.00572879 -1.94999 0
M  V30 6221 O 578.776 0.961358 -1.70689 0
M  V30 6222 H 577.356 -0.5114 -0.544499 0
M  V30 6223 H 580.018 -1.75773 -0.842012 0
M  V30 6224 H 579.114 -2.06745 -2.33801 0
M  V30 6225 N 579.415 0.9433 -1.26252 0
M  V30 6226 C 580.363 2.06302 -1.07434 0
M  V30 6227 C 581.357 1.694 -0.00189471 0
M  V30 6228 O 582.563 1.79302 -0.158408 0
M  V30 6229 H 578.938 0.675453 -0.330556 0
M  V30 6230 H 580.909 2.19326 -2.02333 0
M  V30 6231 C 579.658 3.40125 -0.721817 0
M  V30 6232 H 578.981 3.68996 -1.5389 0
M  V30 6233 H 580.421 4.19295 -0.629922 0
M  V30 6234 C 578.88 3.31993 0.572902 0
M  V30 6235 O 579.41 3.67945 1.61182 0
M  V30 6236 N 577.616 2.85099 0.562748 0
M  V30 6237 H 577.163 2.5604 -0.283092 0
M  V30 6238 H 577.121 2.80041 1.42915 0
M  V30 6239 N 580.893 1.08022 1.14757 0
M  V30 6240 C 581.803 0.718292 2.23333 0
M  V30 6241 C 582.819 -0.273477 1.71837 0
M  V30 6242 O 583.995 -0.118406 2.01052 0
M  V30 6243 C 581.06 0.128855 3.4646 0
M  V30 6244 C 580.121 1.17473 4.12915 0
M  V30 6245 C 579.354 0.61333 5.30164 0
M  V30 6246 O 579.577 -0.568458 5.6756 0
M  V30 6247 O 578.511 1.3615 5.86299 0
M  V30 6248 H 582.337 1.62394 2.56636 0
M  V30 6249 H 579.922 0.853628 1.22611 0
M  V30 6250 H 581.804 -0.197249 4.20938 0
M  V30 6251 H 580.479 -0.750014 3.14891 0
M  V30 6252 H 579.386 1.5533 3.40328 0
M  V30 6253 H 580.719 2.02574 4.48581 0
M  V30 6254 N 582.371 -1.3172 0.865308 0
M  V30 6255 C 583.617 -1.97168 0.474633 0
M  V30 6256 C 583.95 -1.68263 -0.969604 0
M  V30 6257 O 583.225 -0.976588 -1.68205 0
M  V30 6258 C 583.508 -3.52689 0.726808 0
M  V30 6259 C 583.361 -3.91185 2.22024 0
M  V30 6260 C 584.68 -4.39689 0.190201 0
M  V30 6261 H 581.799 -0.716185 0.17392 0
M  V30 6262 H 584.441 -1.55925 1.08569 0
M  V30 6263 H 582.591 -3.8795 0.206705 0
M  V30 6264 H 584.263 -3.66049 2.80724 0
M  V30 6265 H 582.506 -3.3996 2.69462 0
M  V30 6266 H 583.177 -4.99604 2.34735 0
M  V30 6267 H 585.653 -4.11225 0.635103 0
M  V30 6268 H 584.529 -5.47469 0.396132 0
M  V30 6269 H 584.79 -4.32683 -0.907625 0
M  V30 6270 N 583.85 -0.624285 -1.44708 0
M  V30 6271 C 584.782 0.12305 -2.28869 0
M  V30 6272 C 585.795 0.81557 -1.40898 0
M  V30 6273 O 586.984 0.678162 -1.65116 0
M  V30 6274 C 584.084 1.19612 -3.1709 0
M  V30 6275 C 583.257 0.587452 -4.33437 0
M  V30 6276 C 582.316 1.55358 -5.02743 0
M  V30 6277 O 581.341 1.07338 -5.58988 0
M  V30 6278 N 582.543 2.88798 -5.03563 0
M  V30 6279 H 585.308 -0.599193 -2.93649 0
M  V30 6280 H 582.87 -0.464954 -1.5508 0
M  V30 6281 H 584.861 1.84261 -3.60319 0
M  V30 6282 H 583.432 1.82067 -2.54107 0
M  V30 6283 H 582.652 -0.237509 -3.93484 0
M  V30 6284 H 583.94 0.161326 -5.08544 0
M  V30 6285 H 583.338 3.30399 -4.59188 0
M  V30 6286 H 581.894 3.48826 -5.50603 0
M  V30 6287 N 585.328 1.53329 -0.364422 0
M  V30 6288 C 586.577 2.00421 0.226747 0
M  V30 6289 C 586.89 1.25581 1.49963 0
M  V30 6290 O 588.096 1.63256 2.16933 0
M  V30 6291 C 586.552 3.57017 0.454618 0
M  V30 6292 C 586.16 4.40734 -0.803568 0
M  V30 6293 C 587.904 4.12468 1.00351 0
M  V30 6294 C 585.811 5.8888 -0.545345 0
M  V30 6295 H 584.741 0.748787 0.0885082 0
M  V30 6296 H 587.392 1.7703 -0.482983 0
M  V30 6297 H 585.774 3.76558 1.22558 0
M  V30 6298 H 586.948 4.32967 -1.57723 0
M  V30 6299 H 585.263 3.96381 -1.27559 0
M  V30 6300 H 587.86 5.20783 1.212 0
M  V30 6301 H 588.203 3.6699 1.9653 0
M  V30 6302 H 588.736 3.96721 0.29274 0
M  V30 6303 H 585.475 6.38633 -1.47743 0
M  V30 6304 H 584.995 5.99499 0.189842 0
M  V30 6305 H 586.674 6.46776 -0.170425 0
M  V30 6306 N 586.806 0.0935595 1.57322 0
M  V30 6307 C 587.753 -0.865935 2.1394 0
M  V30 6308 C 588.723 -1.28083 1.05754 0
M  V30 6309 O 589.908 -1.36285 1.33533 0
M  V30 6310 C 587.048 -2.12023 2.72287 0
M  V30 6311 C 586.161 -1.756 3.94701 0
M  V30 6312 C 585.296 -2.95804 4.41218 0
M  V30 6313 C 584.335 -2.555 5.56225 0
M  V30 6314 N 583.472 -3.68534 5.97601 0
M  V30 6315 H 588.312 -0.376261 2.95615 0
M  V30 6316 H 585.849 -0.174052 1.46067 0
M  V30 6317 H 587.807 -2.85477 3.04235 0
M  V30 6318 H 586.437 -2.58492 1.93343 0
M  V30 6319 H 585.489 -0.921208 3.69077 0
M  V30 6320 H 586.801 -1.41964 4.78171 0
M  V30 6321 H 585.955 -3.77513 4.74941 0
M  V30 6322 H 584.694 -3.32649 3.56645 0
M  V30 6323 H 583.699 -1.72218 5.22131 0
M  V30 6324 H 584.924 -2.19801 6.42545 0
M  V30 6325 H 582.87 -4.051 5.15974 0
M  V30 6326 H 582.787 -3.38737 6.75865 0
M  V30 6327 H 584.055 -4.50757 6.35955 0
M  V30 6328 N 588.284 -1.56567 -0.180126 0
M  V30 6329 C 589.53 -1.81761 -0.899497 0
M  V30 6330 C 589.863 -0.670015 -1.82276 0
M  V30 6331 O 589.138 0.328575 -1.91705 0
M  V30 6332 C 589.421 -3.17296 -1.7028 0
M  V30 6333 C 589.274 -4.4257 -0.803255 0
M  V30 6334 C 590.593 -3.49678 -2.67233 0
M  V30 6335 H 587.712 -0.661192 -0.325567 0
M  V30 6336 H 590.354 -1.89272 -0.16612 0
M  V30 6337 H 588.504 -3.11023 -2.32802 0
M  V30 6338 H 590.176 -4.60902 -0.191585 0
M  V30 6339 H 588.419 -4.33658 -0.110796 0
M  V30 6340 H 589.09 -5.33935 -1.40064 0
M  V30 6341 H 591.566 -3.56347 -2.14839 0
M  V30 6342 H 590.442 -4.45605 -3.20511 0
M  V30 6343 H 590.703 -2.73932 -3.47007 0
M  V30 6344 N 589.762 0.448376 -1.51087 0
M  V30 6345 C 590.692 1.55102 -1.74544 0
M  V30 6346 C 591.673 1.59357 -0.594932 0
M  V30 6347 O 592.858 1.75261 -0.836491 0
M  V30 6348 C 589.988 2.93268 -1.86041 0
M  V30 6349 C 588.942 3.03877 -3.01402 0
M  V30 6350 C 588.268 4.43914 -2.98068 0
M  V30 6351 C 589.568 2.7898 -4.41551 0
M  V30 6352 H 591.262 1.35724 -2.66869 0
M  V30 6353 H 588.808 0.651498 -1.28419 0
M  V30 6354 H 590.761 3.70356 -2.01034 0
M  V30 6355 H 589.485 3.13853 -0.903548 0
M  V30 6356 H 588.144 2.29227 -2.86096 0
M  V30 6357 H 587.792 4.6145 -2.00182 0
M  V30 6358 H 587.492 4.51944 -3.75527 0
M  V30 6359 H 589.016 5.22991 -3.1514 0
M  V30 6360 H 590.43 3.45805 -4.57265 0
M  V30 6361 H 588.827 2.98431 -5.20633 0
M  V30 6362 H 589.897 1.74663 -4.5235 0
M  V30 6363 N 591.24 1.41047 0.703093 0
M  V30 6364 C 592.188 1.42494 1.83843 0
M  V30 6365 C 593.182 0.303885 1.66652 0
M  V30 6366 O 594.388 0.475544 1.73605 0
M  V30 6367 H 590.763 0.445685 0.605697 0
M  V30 6368 H 592.734 2.38194 1.79739 0
M  V30 6369 C 591.483 1.31666 3.21807 0
M  V30 6370 H 590.806 2.17212 3.35647 0
M  V30 6371 H 592.246 1.36738 4.01346 0
M  V30 6372 C 590.705 0.0281828 3.36888 0
M  V30 6373 O 591.235 -0.929995 3.90786 0
M  V30 6374 N 589.441 -0.0454322 2.90564 0
M  V30 6375 H 588.988 0.735046 2.4689 0
M  V30 6376 H 588.946 -0.906968 3.01034 0
M  V30 6377 N 592.718 -0.936591 1.26751 0
M  V30 6378 C 593.967 -1.67778 1.11953 0
M  V30 6379 C 594.28 -1.92694 -0.33589 0
M  V30 6380 O 595.486 -2.64682 -0.604618 0
M  V30 6381 C 593.942 -3.02138 1.95551 0
M  V30 6382 C 593.55 -2.84953 3.45696 0
M  V30 6383 C 595.294 -3.79917 1.89377 0
M  V30 6384 C 593.201 -4.14814 4.21525 0
M  V30 6385 H 592.131 -0.629275 0.415366 0
M  V30 6386 H 594.782 -1.04122 1.51099 0
M  V30 6387 H 593.164 -3.668 1.49243 0
M  V30 6388 H 594.338 -2.29112 3.99805 0
M  V30 6389 H 592.653 -2.20612 3.53156 0
M  V30 6390 H 595.25 -4.76134 2.43312 0
M  V30 6391 H 595.593 -4.07204 0.865464 0
M  V30 6392 H 596.126 -3.22037 2.33532 0
M  V30 6393 H 592.865 -3.92709 5.24843 0
M  V30 6394 H 592.385 -4.70352 3.72195 0
M  V30 6395 H 594.064 -4.83239 4.3022 0
M  V30 6396 N 594.196 -1.08629 -1.14182 0
M  V30 6397 C 595.444 -0.815731 -1.84906 0
M  V30 6398 C 595.765 0.660441 -1.83475 0
M  V30 6399 O 595.035 1.47888 -1.28476 0
M  V30 6400 H 593.615 -0.298773 -0.684648 0
M  V30 6401 H 596.277 -1.37274 -1.38354 0
M  V30 6402 H 595.373 -1.16193 -2.89665 0
M  V30 6403 N 595.674 1.31259 -0.872281 0
M  V30 6404 C 596.622 2.30404 -0.318897 0
M  V30 6405 C 597.616 1.5962 0.567267 0
M  V30 6406 O 598.822 1.74204 0.453111 0
M  V30 6407 H 595.197 0.747243 -0.0844474 0
M  V30 6408 H 597.168 2.74549 -1.16899 0
M  V30 6409 C 595.917 3.44608 0.462683 0
M  V30 6410 H 595.24 3.99248 -0.209936 0
M  V30 6411 H 596.68 4.1609 0.815187 0
M  V30 6412 C 595.139 2.93456 1.65485 0
M  V30 6413 O 595.669 2.92418 2.75417 0
M  V30 6414 N 593.875 2.49628 1.48776 0
M  V30 6415 H 593.422 2.50671 0.593452 0
M  V30 6416 H 593.38 2.15759 2.28682 0
M  V30 6417 N 597.152 0.631951 1.44375 0
M  V30 6418 C 598.1 -0.0846693 2.32446 0
M  V30 6419 C 599.094 -0.834957 1.47393 0
M  V30 6420 O 600.3 -0.747764 1.63733 0
M  V30 6421 H 596.675 -0.0461508 0.750583 0
M  V30 6422 H 598.646 0.67619 2.90638 0
M  V30 6423 C 597.395 -1.05211 3.314 0
M  V30 6424 H 596.718 -0.484203 3.96857 0
M  V30 6425 H 598.158 -1.523 3.95703 0
M  V30 6426 C 596.617 -2.13776 2.60387 0
M  V30 6427 O 597.147 -3.21869 2.4034 0
M  V30 6428 N 595.353 -1.89733 2.20113 0
M  V30 6429 H 594.9 -1.01833 2.36618 0
M  V30 6430 H 594.858 -2.62572 1.72926 0
M  V30 6431 N 598.631 -1.53133 0.372548 0
M  V30 6432 C 599.859 -2.05774 -0.215515 0
M  V30 6433 C 600.274 -1.24555 -1.41886 0
M  V30 6434 O 599.631 -0.287951 -1.80214 0
M  V30 6435 C 599.682 -3.5645 -0.602161 0
M  V30 6436 O 599.403 -4.34591 0.553359 0
M  V30 6437 C 600.904 -4.25374 -1.24787 0
M  V30 6438 H 598.124 -0.670009 -0.0364529 0
M  V30 6439 H 600.668 -1.97434 0.532934 0
M  V30 6440 H 598.823 -3.64918 -1.30052 0
M  V30 6441 H 599.237 -5.23954 0.239336 0
M  V30 6442 H 600.711 -5.32097 -1.46891 0
M  V30 6443 H 601.188 -3.79531 -2.21026 0
M  V30 6444 H 601.794 -4.21177 -0.590752 0
M  V30 6445 N 600.109 -0.101901 -1.5727 0
M  V30 6446 C 601.042 0.891377 -2.10071 0
M  V30 6447 C 602.02 1.27197 -1.01291 0
M  V30 6448 O 603.204 1.37602 -1.28833 0
M  V30 6449 C 600.331 2.19049 -2.58331 0
M  V30 6450 C 599.377 1.95925 -3.78834 0
M  V30 6451 S 600.21 1.19106 -5.22086 0
M  V30 6452 C 601.366 2.50234 -5.73702 0
M  V30 6453 H 601.599 0.442212 -2.93993 0
M  V30 6454 H 599.132 0.111529 -1.53997 0
M  V30 6455 H 601.09 2.937 -2.86793 0
M  V30 6456 H 599.751 2.61086 -1.74622 0
M  V30 6457 H 598.944 2.92143 -4.10693 0
M  V30 6458 H 598.546 1.29401 -3.50901 0
M  V30 6459 H 600.838 3.46173 -5.82384 0
M  V30 6460 H 601.781 2.22944 -6.72088 0
M  V30 6461 H 602.189 2.58818 -5.01671 0
M  V30 6462 N 601.587 1.56661 0.17182 0
M  V30 6463 C 602.535 1.97289 1.23207 0
M  V30 6464 C 603.529 0.861566 1.45854 0
M  V30 6465 O 604.735 1.04668 1.4644 0
M  V30 6466 H 601.11 0.627681 0.41415 0
M  V30 6467 H 603.081 2.85662 0.862542 0
M  V30 6468 C 601.83 2.34849 2.564 0
M  V30 6469 H 601.153 3.19903 2.39797 0
M  V30 6470 H 602.593 2.67121 3.29276 0
M  V30 6471 C 601.052 1.19172 3.15119 0
M  V30 6472 O 601.582 0.479113 3.98833 0
M  V30 6473 N 599.788 0.962415 2.74201 0
M  V30 6474 H 599.335 1.54365 2.06226 0
M  V30 6475 H 599.293 0.190272 3.13824 0
M  V30 6476 N 603.065 -0.440357 1.51323 0
M  V30 6477 C 604.314 -1.18697 1.63076 0
M  V30 6478 C 604.627 -1.92418 0.35136 0
M  V30 6479 O 605.833 -2.69258 0.348221 0
M  V30 6480 C 604.289 -2.15849 2.87988 0
M  V30 6481 C 603.897 -1.47789 4.22921 0
M  V30 6482 C 605.641 -2.90962 3.09098 0
M  V30 6483 C 603.548 -2.43407 5.38987 0
M  V30 6484 H 602.478 -0.44676 0.607389 0
M  V30 6485 H 605.129 -0.454313 1.77787 0
M  V30 6486 H 603.511 -2.92537 2.66905 0
M  V30 6487 H 604.685 -0.7668 4.54375 0
M  V30 6488 H 603 -0.848404 4.07665 0
M  V30 6489 H 605.597 -3.62584 3.92985 0
M  V30 6490 H 605.94 -3.52133 2.22053 0
M  V30 6491 H 606.473 -2.21381 3.30507 0
M  V30 6492 H 603.212 -1.86929 6.28282 0
M  V30 6493 H 602.732 -3.12579 5.11913 0
M  V30 6494 H 604.411 -3.046 5.70813 0
M  V30 6495 N 604.543 -1.41418 -0.695603 0
M  V30 6496 C 605.768 -1.44329 -1.48942 0
M  V30 6497 C 606.193 -0.0501579 -1.88033 0
M  V30 6498 O 605.551 0.946598 -1.54626 0
M  V30 6499 C 605.599 -2.3578 -2.72837 0
M  V30 6500 O 604.703 -1.81482 -3.70322 0
M  V30 6501 H 604.044 -0.489838 -0.44828 0
M  V30 6502 H 606.574 -1.85878 -0.855014 0
M  V30 6503 H 606.584 -2.51654 -3.21145 0
M  V30 6504 H 605.259 -3.37005 -2.43722 0
M  V30 6505 H 603.836 -1.75058 -3.29255 0
M  V30 6506 N 606.021 0.929856 -1.27246 0
M  V30 6507 C 606.951 2.04722 -1.12299 0
M  V30 6508 C 607.932 1.70082 -0.0250464 0
M  V30 6509 O 609.117 1.93176 -0.199141 0
M  V30 6510 C 606.247 3.38721 -0.767145 0
M  V30 6511 C 605.201 3.87466 -1.81808 0
M  V30 6512 C 604.527 5.18246 -1.31626 0
M  V30 6513 C 605.827 4.11095 -3.22177 0
M  V30 6514 H 607.521 2.17485 -2.05769 0
M  V30 6515 H 605.067 1.04503 -0.990715 0
M  V30 6516 H 607.02 4.16366 -0.649413 0
M  V30 6517 H 605.744 3.25967 0.203259 0
M  V30 6518 H 604.403 3.12012 -1.92468 0
M  V30 6519 H 604.051 5.01881 -0.335378 0
M  V30 6520 H 603.751 5.51829 -2.01887 0
M  V30 6521 H 605.275 5.98462 -1.21143 0
M  V30 6522 H 606.689 4.79316 -3.1453 0
M  V30 6523 H 605.086 4.55982 -3.90129 0
M  V30 6524 H 606.156 3.16468 -3.67391 0
M  V30 6525 N 607.499 1.09233 1.13605 0
M  V30 6526 C 608.91 0.846839 1.6639 0
M  V30 6527 C 609.261 -0.625031 1.85978 0
M  V30 6528 O 608.386 -1.48173 1.57714 0
M  V30 6529 C 608.981 1.5307 3.0225 0
M  V30 6530 C 607.54 1.33223 3.52035 0
M  V30 6531 C 606.687 1.58806 2.27323 0
M  V30 6532 H 609.638 1.25175 0.975541 0
M  V30 6533 H 609.659 0.96267 3.68121 0
M  V30 6534 H 609.171 2.60192 2.87961 0
M  V30 6535 H 607.272 0.282091 3.71531 0
M  V30 6536 H 607.385 2.0657 4.32279 0
M  V30 6537 H 605.749 1.01007 2.33815 0
M  V30 6538 H 606.532 2.67153 2.15602 0
M  V30 6539 N 608.977 -1.30795 0.87923 0
M  V30 6540 C 610.225 -1.95974 0.493809 0
M  V30 6541 C 610.546 -1.69787 -0.959021 0
M  V30 6542 O 609.816 -1.01832 -1.67353 0
M  V30 6543 H 608.396 -0.725083 0.179622 0
M  V30 6544 H 611.058 -1.59432 1.12105 0
M  V30 6545 H 610.154 -3.05058 0.659263 0
M  V30 6546 N 610.455 -0.639598 -1.44038 0
M  V30 6547 C 611.365 0.0612377 -2.3452 0
M  V30 6548 C 612.381 0.826717 -1.53106 0
M  V30 6549 O 613.557 0.777059 -1.85806 0
M  V30 6550 C 610.622 1.02492 -3.31204 0
M  V30 6551 C 609.683 0.25788 -4.28525 0
M  V30 6552 C 608.916 1.17566 -5.2059 0
M  V30 6553 O 609.139 2.41461 -5.16771 0
M  V30 6554 O 608.073 0.655407 -5.98321 0
M  V30 6555 H 611.899 -0.68318 -2.95916 0
M  V30 6556 H 609.484 -0.399784 -1.43952 0
M  V30 6557 H 611.366 1.57911 -3.90694 0
M  V30 6558 H 610.041 1.7498 -2.7233 0
M  V30 6559 H 608.948 -0.339566 -3.72556 0
M  V30 6560 H 610.281 -0.427154 -4.90343 0
M  V30 6561 N 611.933 1.52934 -0.380664 0
M  V30 6562 C 612.866 2.22597 0.502564 0
M  V30 6563 C 613.844 1.22345 1.071 0
M  V30 6564 O 615.028 1.51302 1.12428 0
M  V30 6565 C 612.155 2.93246 1.69482 0
M  V30 6566 C 611.201 4.07696 1.25244 0
M  V30 6567 S 612.034 5.34957 0.241159 0
M  V30 6568 C 613.19 6.09124 1.4394 0
M  V30 6569 H 613.423 2.97167 -0.089029 0
M  V30 6570 H 610.956 1.53518 -0.164817 0
M  V30 6571 H 612.914 3.34562 2.37863 0
M  V30 6572 H 611.575 2.18373 2.2577 0
M  V30 6573 H 610.768 4.56199 2.1424 0
M  V30 6574 H 610.37 3.68349 0.647664 0
M  V30 6575 H 612.662 6.34771 2.36794 0
M  V30 6576 H 613.605 7.01068 0.995464 0
M  V30 6577 H 614.013 5.39777 1.65229 0
M  V30 6578 N 613.412 0.11024 1.57214 0
M  V30 6579 C 614.658 -0.550684 1.9518 0
M  V30 6580 C 614.991 -1.66885 0.993122 0
M  V30 6581 O 614.266 -1.94479 0.0287907 0
M  V30 6582 C 614.549 -1.09163 3.43155 0
M  V30 6583 C 614.402 0.0225198 4.49794 0
M  V30 6584 C 615.721 -1.98527 3.92778 0
M  V30 6585 H 612.84 -0.198706 0.709708 0
M  V30 6586 H 615.482 0.184024 1.89107 0
M  V30 6587 H 613.632 -1.71775 3.48462 0
M  V30 6588 H 615.304 0.657443 4.56591 0
M  V30 6589 H 613.547 0.686868 4.28328 0
M  V30 6590 H 614.218 -0.39706 5.5057 0
M  V30 6591 H 616.694 -1.458 3.8972 0
M  V30 6592 H 615.57 -2.33298 4.96853 0
M  V30 6593 H 615.831 -2.90846 3.32958 0
M  V30 6594 N 614.89 -1.56749 -0.16351 0
M  V30 6595 C 616.118 -1.86577 -0.894233 0
M  V30 6596 C 616.533 -0.696543 -1.75481 0
M  V30 6597 O 615.89 0.334161 -1.79415 0
M  V30 6598 C 615.941 -3.15508 -1.76456 0
M  V30 6599 O 615.662 -4.27926 -0.938685 0
M  V30 6600 C 617.163 -3.58737 -2.60428 0
M  V30 6601 H 614.383 -0.618829 -0.259405 0
M  V30 6602 H 616.927 -2.03863 -0.161259 0
M  V30 6603 H 615.082 -3.00025 -2.45079 0
M  V30 6604 H 615.496 -5.01546 -1.53465 0
M  V30 6605 H 616.97 -4.51832 -3.17099 0
M  V30 6606 H 617.447 -2.83229 -3.35675 0
M  V30 6607 H 618.053 -3.76858 -1.97125 0
M  V30 6608 N 616.368 0.432326 -1.51554 0
M  V30 6609 C 617.298 1.53242 -1.76179 0
M  V30 6610 C 618.279 1.58717 -0.611801 0
M  V30 6611 O 619.464 1.74364 -0.855033 0
M  V30 6612 C 616.594 2.91278 -1.89141 0
M  V30 6613 C 615.548 3.00663 -3.04608 0
M  V30 6614 C 614.874 4.40728 -3.02759 0
M  V30 6615 C 616.174 2.74281 -4.44485 0
M  V30 6616 H 617.868 1.32886 -2.68294 0
M  V30 6617 H 615.414 0.637841 -1.29103 0
M  V30 6618 H 617.367 3.68203 -2.04951 0
M  V30 6619 H 616.091 3.12877 -0.936785 0
M  V30 6620 H 614.75 2.26179 -2.88511 0
M  V30 6621 H 614.398 4.59301 -2.05065 0
M  V30 6622 H 614.098 4.47936 -3.80299 0
M  V30 6623 H 615.622 5.19619 -3.20669 0
M  V30 6624 H 617.036 3.40936 -4.60907 0
M  V30 6625 H 615.433 2.92893 -5.23769 0
M  V30 6626 H 616.503 1.69856 -4.54177 0
M  V30 6627 N 617.846 1.41785 0.688094 0
M  V30 6628 C 619.094 1.41264 1.4453 0
M  V30 6629 C 619.415 0.0252946 1.94984 0
M  V30 6630 O 618.685 -0.934081 1.72197 0
M  V30 6631 H 617.265 0.519998 0.536294 0
M  V30 6632 H 619.927 1.7709 0.813941 0
M  V30 6633 H 619.023 2.10439 2.30482 0
M  V30 6634 N 619.324 -0.923095 1.27737 0
M  V30 6635 C 620.735 -1.48626 1.12993 0
M  V30 6636 C 621.086 -1.94142 -0.283439 0
M  V30 6637 O 620.211 -1.81605 -1.17681 0
M  V30 6638 C 620.806 -2.70117 2.04505 0
M  V30 6639 C 619.365 -3.22642 1.93853 0
M  V30 6640 C 618.512 -1.95368 1.96791 0
M  V30 6641 H 621.463 -0.736737 1.40563 0
M  V30 6642 H 621.484 -3.4506 1.60356 0
M  V30 6643 H 620.996 -2.36959 3.07363 0
M  V30 6644 H 619.097 -3.60549 0.939968 0
M  V30 6645 H 619.21 -3.88525 2.80331 0
M  V30 6646 H 617.574 -2.12061 1.41076 0
M  V30 6647 H 618.357 -1.64517 3.01312 0
M  V30 6648 N 620.802 -1.09834 -1.13024 0
M  V30 6649 C 621.735 -0.685453 -2.17662 0
M  V30 6650 C 622.713 0.310142 -1.59615 0
M  V30 6651 O 623.897 0.21052 -1.87321 0
M  V30 6652 C 621.024 -0.0104476 -3.38698 0
M  V30 6653 C 620.07 -0.968522 -4.15358 0
M  V30 6654 S 620.903 -2.48272 -4.74469 0
M  V30 6655 C 622.059 -1.82025 -5.98847 0
M  V30 6656 H 622.292 -1.57187 -2.52348 0
M  V30 6657 H 619.825 -0.914728 -1.24387 0
M  V30 6658 H 621.783 0.372694 -4.08805 0
M  V30 6659 H 620.444 0.852673 -3.02305 0
M  V30 6660 H 619.637 -0.443373 -5.02046 0
M  V30 6661 H 619.239 -1.29327 -3.50928 0
M  V30 6662 H 621.531 -1.14678 -6.67724 0
M  V30 6663 H 622.474 -2.66645 -6.55977 0
M  V30 6664 H 622.882 -1.2874 -5.49624 0
M  V30 6665 N 622.28 1.30327 -0.886154 0
M  V30 6666 C 623.505 2.0079 -0.519425 0
M  V30 6667 C 623.93 1.65979 0.885013 0
M  V30 6668 O 623.288 0.877043 1.58675 0
M  V30 6669 C 623.336 3.53686 -0.702758 0
M  V30 6670 O 622.44 4.11637 0.250828 0
M  V30 6671 H 621.781 0.63171 -0.204544 0
M  V30 6672 H 624.311 1.66145 -1.19402 0
M  V30 6673 H 624.321 4.03531 -0.602207 0
M  V30 6674 H 622.996 3.78361 -1.72673 0
M  V30 6675 H 621.573 3.72755 0.103873 0
M  V30 6676 N 623.758 0.647228 1.43697 0
M  V30 6677 C 624.69 -0.0866232 2.29036 0
M  V30 6678 C 625.703 -0.793051 1.42178 0
M  V30 6679 O 626.892 -0.651807 1.66174 0
M  V30 6680 C 623.992 -1.14552 3.18953 0
M  V30 6681 C 623.165 -0.518422 4.34317 0
M  V30 6682 C 622.224 -1.4734 5.05151 0
M  V30 6683 O 621.25 -0.984312 5.60625 0
M  V30 6684 N 622.452 -2.8075 5.08094 0
M  V30 6685 H 625.217 0.645834 2.92659 0
M  V30 6686 H 622.778 0.489567 1.54321 0
M  V30 6687 H 624.77 -1.78505 3.63205 0
M  V30 6688 H 623.34 -1.78001 2.56971 0
M  V30 6689 H 622.56 0.300079 3.93056 0
M  V30 6690 H 623.848 -0.080401 5.08736 0
M  V30 6691 H 623.246 -3.23052 4.64386 0
M  V30 6692 H 621.803 -3.40022 5.56083 0
M  V30 6693 N 625.236 -1.5273 0.388769 0
M  V30 6694 C 626.464 -2.05992 -0.193677 0
M  V30 6695 C 626.879 -1.26053 -1.40557 0
M  V30 6696 O 626.236 -0.307049 -1.79898 0
M  V30 6697 C 626.287 -3.57068 -0.564321 0
M  V30 6698 O 626.008 -4.3398 0.599422 0
M  V30 6699 C 627.509 -4.26674 -1.20269 0
M  V30 6700 H 624.729 -0.670358 -0.0293445 0
M  V30 6701 H 627.273 -1.96857 0.553844 0
M  V30 6702 H 625.428 -3.66277 -1.26174 0
M  V30 6703 H 625.842 -5.2367 0.294895 0
M  V30 6704 H 627.316 -5.33625 -1.4124 0
M  V30 6705 H 627.793 -3.81854 -2.16989 0
M  V30 6706 H 628.399 -4.2178 -0.546047 0
M  V30 6707 N 626.714 -0.118576 -1.57153 0
M  V30 6708 C 627.662 0.849114 -2.16547 0
M  V30 6709 C 628.656 1.27567 -1.11458 0
M  V30 6710 O 629.862 1.24746 -1.29763 0
M  V30 6711 H 626.237 0.291935 -0.693021 0
M  V30 6712 H 628.208 0.323693 -2.96639 0
M  V30 6713 C 626.957 2.08951 -2.77912 0
M  V30 6714 H 626.28 1.77021 -3.58474 0
M  V30 6715 H 627.72 2.74666 -3.23008 0
M  V30 6716 C 626.179 2.87899 -1.74974 0
M  V30 6717 O 626.709 3.83268 -1.20285 0
M  V30 6718 N 624.915 2.51884 -1.44924 0
M  V30 6719 H 624.462 1.74397 -1.89587 0
M  V30 6720 H 624.42 3.05003 -0.762921 0
M  V30 6721 N 628.193 1.56834 0.155195 0
M  V30 6722 C 629.156 1.96748 1.17571 0
M  V30 6723 C 630.156 0.853006 1.3631 0
M  V30 6724 O 631.346 1.11978 1.33441 0
M  V30 6725 C 628.478 2.27631 2.53765 0
M  V30 6726 H 629.671 2.88085 0.833498 0
M  V30 6727 H 627.224 1.51141 0.398242 0
M  V30 6728 H 627.959 1.39059 2.92973 0
M  V30 6729 H 627.744 3.0888 2.41527 0
M  V30 6730 H 629.234 2.59377 3.27282 0
M  V30 6731 N 629.671 -0.424282 1.51781 0
M  V30 6732 C 630.918 -1.1726 1.65095 0
M  V30 6733 C 631.246 -1.90881 0.373477 0
M  V30 6734 O 630.501 -1.84835 -0.642997 0
M  V30 6735 C 630.8 -2.20418 2.81337 0
M  V30 6736 C 630.466 -1.63715 4.20129 0
M  V30 6737 C 629.128 -1.47975 4.57883 0
M  V30 6738 C 631.48 -1.22157 5.06682 0
M  V30 6739 C 628.808 -0.891703 5.79884 0
M  V30 6740 C 631.16 -0.647767 6.29275 0
M  V30 6741 C 629.824 -0.477371 6.65791 0
M  V30 6742 H 629.094 -0.429085 0.604125 0
M  V30 6743 H 631.741 -0.461852 1.85847 0
M  V30 6744 H 630.046 -2.97581 2.54859 0
M  V30 6745 H 631.743 -2.78163 2.88836 0
M  V30 6746 H 628.333 -1.76946 3.90369 0
M  V30 6747 H 632.517 -1.33133 4.7811 0
M  V30 6748 H 627.773 -0.747563 6.06813 0
M  V30 6749 H 631.947 -0.317291 6.95677 0
M  V30 6750 H 629.574 -0.0195936 7.60197 0
M  V30 6751 N 631.149 -1.42148 -0.680565 0
M  V30 6752 C 632.082 -1.39602 -1.80517 0
M  V30 6753 C 633.06 -0.261098 -1.6049 0
M  V30 6754 O 634.244 -0.450404 -1.8304 0
M  V30 6755 C 631.371 -1.18134 -3.1743 0
M  V30 6756 C 630.417 -2.34543 -3.56219 0
M  V30 6757 S 631.25 -3.97063 -3.59306 0
M  V30 6758 C 632.406 -3.77926 -4.98921 0
M  V30 6759 H 632.639 -2.3477 -1.82402 0
M  V30 6760 H 630.172 -1.28851 -0.850691 0
M  V30 6761 H 632.13 -1.06434 -3.96462 0
M  V30 6762 H 630.791 -0.245611 -3.13138 0
M  V30 6763 H 629.984 -2.15255 -4.55721 0
M  V30 6764 H 629.586 -2.42728 -2.84533 0
M  V30 6765 H 631.878 -3.3856 -5.86842 0
M  V30 6766 H 632.821 -4.77084 -5.23256 0
M  V30 6767 H 633.229 -3.10904 -4.71167 0
M  V30 6768 N 632.627 0.916307 -1.28225 0
M  V30 6769 C 633.855 1.69901 -1.18073 0
M  V30 6770 C 634.27 1.86988 0.260968 0
M  V30 6771 O 633.627 1.39505 1.17663 0
M  V30 6772 C 633.678 3.09254 -1.87201 0
M  V30 6773 O 633.399 2.92959 -3.2574 0
M  V30 6774 C 634.9 4.0362 -1.83319 0
M  V30 6775 H 632.12 0.531181 -0.409985 0
M  V30 6776 H 634.664 1.14703 -1.69303 0
M  V30 6777 H 632.819 3.61277 -1.39848 0
M  V30 6778 H 633.233 3.81139 -3.60324 0
M  V30 6779 H 634.707 4.98873 -2.36282 0
M  V30 6780 H 635.184 4.3176 -0.805007 0
M  V30 6781 H 635.79 3.57524 -2.3034 0
M  V30 6782 N 634.105 1.10431 1.1244 0
M  V30 6783 C 635.352 0.846717 1.83948 0
M  V30 6784 C 635.68 -0.627709 1.84093 0
M  V30 6785 O 634.935 -1.47876 1.28184 0
M  V30 6786 C 635.234 1.34022 3.3132 0
M  V30 6787 C 634.9 2.82606 3.51347 0
M  V30 6788 C 633.562 3.23182 3.56521 0
M  V30 6789 C 635.914 3.78356 3.58464 0
M  V30 6790 C 633.242 4.58258 3.66356 0
M  V30 6791 C 635.594 5.13234 3.69829 0
M  V30 6792 C 634.258 5.53384 3.73259 0
M  V30 6793 H 633.528 0.309836 0.673114 0
M  V30 6794 H 636.175 1.38091 1.32677 0
M  V30 6795 H 634.48 0.726047 3.85014 0
M  V30 6796 H 636.177 1.11739 3.85118 0
M  V30 6797 H 632.767 2.50212 3.47983 0
M  V30 6798 H 636.951 3.48115 3.53737 0
M  V30 6799 H 632.207 4.88787 3.67284 0
M  V30 6800 H 636.381 5.87272 3.74279 0
M  V30 6801 H 634.008 6.58045 3.80633 0
M  V30 6802 N 635.583 -1.29855 0.893053 0
M  V30 6803 C 636.86 -1.90694 0.435336 0
M  V30 6804 C 637.24 -1.8111 -1.08454 0
M  V30 6805 O 636.588 -1.23352 -1.92345 0
M  V30 6806 C 636.798 -3.36033 0.942472 0
M  V30 6807 C 638.146 -4.13083 0.982226 0
M  V30 6808 O 639.17 -3.4491 0.889686 0
M  V30 6809 O 638.029 -5.34896 1.12022 0
M  V30 6810 H 635.123 -0.815978 0.134567 0
M  V30 6811 H 637.669 -1.38367 0.982484 0
M  V30 6812 H 636.441 -3.37132 1.9864 0
M  V30 6813 H 636.064 -3.95828 0.374952 0
M  V30 6814 N 637.061 -0.65484 -1.43351 0
M  V30 6815 C 638.307 -0.169142 -2.02093 0
M  V30 6816 C 638.64 1.21431 -1.51553 0
M  V30 6817 O 637.915 1.81105 -0.709317 0
M  V30 6818 C 638.198 -0.181775 -3.59641 0
M  V30 6819 C 638.051 -1.59926 -4.20409 0
M  V30 6820 C 639.37 0.480945 -4.37464 0
M  V30 6821 H 636.489 -0.0629371 -0.734308 0
M  V30 6822 H 639.131 -0.835833 -1.70628 0
M  V30 6823 H 637.281 0.385918 -3.86578 0
M  V30 6824 H 638.953 -2.21766 -4.04497 0
M  V30 6825 H 637.196 -2.14605 -3.76998 0
M  V30 6826 H 637.867 -1.55994 -5.295 0
M  V30 6827 H 640.343 -0.00208273 -4.161 0
M  V30 6828 H 639.219 0.441384 -5.47122 0
M  V30 6829 H 639.48 1.55533 -4.13838 0
M  V30 6830 N 638.539 1.52521 -0.396863 0
M  V30 6831 C 639.487 2.28217 0.44943 0
M  V30 6832 C 640.481 1.32416 1.05652 0
M  V30 6833 O 641.687 1.49925 0.996124 0
M  V30 6834 H 638.062 0.733966 0.1637 0
M  V30 6835 H 640.033 2.97658 -0.210367 0
M  V30 6836 C 638.782 3.10713 1.56054 0
M  V30 6837 H 638.105 3.84291 1.10273 0
M  V30 6838 H 639.545 3.66803 2.12677 0
M  V30 6839 C 638.004 2.23499 2.52091 0
M  V30 6840 O 638.534 1.8669 3.55682 0
M  V30 6841 N 636.74 1.8751 2.2201 0
M  V30 6842 H 636.287 2.17643 1.37802 0
M  V30 6843 H 636.245 1.29448 2.86514 0
M  V30 6844 N 640.017 0.126909 1.57088 0
M  V30 6845 C 640.964 -0.82036 2.15728 0
M  V30 6846 C 641.934 -1.25811 1.08447 0
M  V30 6847 O 643.119 -1.33422 1.36393 0
M  V30 6848 C 640.259 -2.06199 2.76724 0
M  V30 6849 C 639.372 -1.67188 3.98337 0
M  V30 6850 C 638.507 -2.86378 4.47393 0
M  V30 6851 C 637.546 -2.43644 5.61519 0
M  V30 6852 N 636.683 -3.55775 6.05284 0
M  V30 6853 H 641.523 -0.313472 2.96347 0
M  V30 6854 H 639.06 -0.14303 1.46403 0
M  V30 6855 H 641.018 -2.78959 3.10222 0
M  V30 6856 H 639.648 -2.54333 1.98782 0
M  V30 6857 H 638.7 -0.842714 3.70948 0
M  V30 6858 H 640.012 -1.31789 4.81075 0
M  V30 6859 H 639.166 -3.67353 4.82842 0
M  V30 6860 H 637.905 -3.25009 3.63621 0
M  V30 6861 H 636.91 -1.61104 5.25667 0
M  V30 6862 H 638.135 -2.06122 6.47063 0
M  V30 6863 H 636.081 -3.94065 5.24451 0
M  V30 6864 H 635.998 -3.24325 6.82898 0
M  V30 6865 H 637.266 -4.37166 6.45373 0
M  V30 6866 N 641.495 -1.56914 -0.146875 0
M  V30 6867 C 642.425 -2.01308 -1.1831 0
M  V30 6868 C 643.406 -0.892664 -1.44795 0
M  V30 6869 O 644.591 -1.16048 -1.55713 0
M  V30 6870 C 641.721 -2.3938 -2.51624 0
M  V30 6871 C 640.675 -3.54608 -2.3966 0
M  V30 6872 C 640.001 -3.78493 -3.77686 0
M  V30 6873 C 641.301 -4.87269 -1.88058 0
M  V30 6874 H 642.995 -2.88123 -0.813964 0
M  V30 6875 H 640.541 -1.38615 -0.3901 0
M  V30 6876 H 642.494 -2.69037 -3.24341 0
M  V30 6877 H 641.218 -1.49502 -2.90373 0
M  V30 6878 H 639.877 -3.25116 -1.69396 0
M  V30 6879 H 639.525 -2.85866 -4.13871 0
M  V30 6880 H 639.225 -4.56039 -3.70543 0
M  V30 6881 H 640.749 -4.10576 -4.51951 0
M  V30 6882 H 642.163 -5.15644 -2.50568 0
M  V30 6883 H 640.56 -5.68622 -1.91805 0
M  V30 6884 H 641.63 -4.77634 -0.836277 0
M  V30 6885 N 642.974 0.416227 -1.52004 0
M  V30 6886 C 644.202 1.18573 -1.69553 0
M  V30 6887 C 644.617 1.84472 -0.401919 0
M  V30 6888 O 643.974 1.71593 0.621463 0
M  V30 6889 C 644.025 2.25413 -2.82615 0
M  V30 6890 O 643.746 1.62205 -4.06966 0
M  V30 6891 C 645.247 3.15297 -3.11613 0
M  V30 6892 H 642.467 0.356582 -0.56841 0
M  V30 6893 H 645.011 0.490618 -1.98528 0
M  V30 6894 H 643.166 2.90604 -2.56179 0
M  V30 6895 H 643.58 2.3298 -4.69916 0
M  V30 6896 H 645.054 3.86351 -3.94255 0
M  V30 6897 H 645.531 3.77264 -2.24874 0
M  V30 6898 H 646.137 2.55783 -3.39787 0
M  V30 6899 N 644.452 1.42507 0.673017 0
M  V30 6900 C 645.868 1.25472 0.986355 0
M  V30 6901 C 646.068 0.160181 2.00862 0
M  V30 6902 O 645.124 -0.467993 2.48125 0
M  V30 6903 C 646.437 2.61219 1.48947 0
M  V30 6904 C 647.985 2.68589 1.60715 0
M  V30 6905 C 648.46 4.04707 2.14422 0
M  V30 6906 N 649.951 4.0667 2.21752 0
M  V30 6907 C 650.686 5.0881 2.64386 0
M  V30 6908 N 650.182 6.21332 3.0646 0
M  V30 6909 N 651.975 4.96166 2.64151 0
M  V30 6910 H 644.126 2.124 -0.00378532 0
M  V30 6911 H 646.389 0.946046 0.0608367 0
M  V30 6912 H 646.095 3.42179 0.812812 0
M  V30 6913 H 645.969 2.85261 2.46791 0
M  V30 6914 H 648.356 1.87974 2.27486 0
M  V30 6915 H 648.437 2.48333 0.613552 0
M  V30 6916 H 648.081 4.8578 1.48258 0
M  V30 6917 H 648.011 4.22315 3.14575 0
M  V30 6918 H 650.502 3.25438 1.92089 0
M  V30 6919 H 650.815 6.95118 3.37684 0
M  V30 6920 H 649.16 6.24835 3.04313 0
M  V30 6921 H 652.351 4.07334 2.30644 0
M  V30 6922 H 652.524 5.759 2.97057 0
M  V30 6923 N 645.93 -0.909495 1.28709 0
M  V30 6924 C 647.179 -1.65365 1.15487 0
M  V30 6925 C 647.492 -1.93364 -0.294941 0
M  V30 6926 O 648.698 -2.65905 -0.548338 0
M  V30 6927 C 647.154 -2.97923 2.01916 0
M  V30 6928 C 646.762 -2.77556 3.51663 0
M  V30 6929 C 648.506 -3.75814 1.97393 0
M  V30 6930 C 646.413 -4.0578 4.30229 0
M  V30 6931 H 645.343 -0.620323 0.42862 0
M  V30 6932 H 647.994 -1.00894 1.53273 0
M  V30 6933 H 646.376 -3.63552 1.5699 0
M  V30 6934 H 647.55 -2.2058 4.04575 0
M  V30 6935 H 645.865 -2.13072 3.57756 0
M  V30 6936 H 648.462 -4.70866 2.53357 0
M  V30 6937 H 648.805 -4.05277 0.951643 0
M  V30 6938 H 649.338 -3.1701 2.40311 0
M  V30 6939 H 646.077 -3.81488 5.33055 0
M  V30 6940 H 645.597 -4.62351 3.82089 0
M  V30 6941 H 647.276 -4.74004 4.40374 0
M  V30 6942 N 647.408 -1.11026 -1.11852 0
M  V30 6943 C 648.356 -0.759643 -2.19846 0
M  V30 6944 C 649.35 0.246964 -1.6759 0
M  V30 6945 O 650.556 0.106693 -1.79684 0
M  V30 6946 H 646.931 -0.22775 -0.716683 0
M  V30 6947 H 648.902 -1.6792 -2.46669 0
M  V30 6948 C 647.651 -0.214364 -3.47039 0
M  V30 6949 H 646.974 -0.980175 -3.87599 0
M  V30 6950 H 648.414 -0.00717047 -4.23999 0
M  V30 6951 C 646.873 1.05436 -3.19976 0
M  V30 6952 O 647.403 2.13483 -3.40276 0
M  V30 6953 N 645.609 0.975436 -2.7374 0
M  V30 6954 H 645.156 0.0960853 -2.57421 0
M  V30 6955 H 645.114 1.82501 -2.5601 0
M  V30 6956 N 648.886 1.2938 -0.899927 0
M  V30 6957 C 650.135 1.9483 -0.521937 0
M  V30 6958 C 650.448 1.71725 0.936473 0
M  V30 6959 O 651.654 2.31282 1.42199 0
M  V30 6960 C 650.11 3.48911 -0.88255 0
M  V30 6961 C 649.718 3.80815 -2.35974 0
M  V30 6962 C 651.462 4.20595 -0.57448 0
M  V30 6963 C 649.369 5.28142 -2.66121 0
M  V30 6964 H 648.299 0.729285 -0.191468 0
M  V30 6965 H 650.95 1.47103 -1.09695 0
M  V30 6966 H 649.332 3.95293 -0.236459 0
M  V30 6967 H 650.506 3.45291 -3.05141 0
M  V30 6968 H 648.821 3.22271 -2.63686 0
M  V30 6969 H 651.418 5.29031 -0.776556 0
M  V30 6970 H 651.761 4.13442 0.487005 0
M  V30 6971 H 652.294 3.79945 -1.17842 0
M  V30 6972 H 649.033 5.4036 -3.71068 0
M  V30 6973 H 648.553 5.64913 -2.01578 0
M  V30 6974 H 650.232 5.95738 -2.52399 0
M  V30 6975 N 650.364 0.662433 1.43002 0
M  V30 6976 C 651.589 0.186003 2.06564 0
M  V30 6977 C 652.014 -1.14314 1.49379 0
M  V30 6978 O 651.372 -1.70824 0.607346 0
M  V30 6979 C 651.42 0.118269 3.60406 0
M  V30 6980 O 650.524 -0.916859 4.02079 0
M  V30 6981 H 649.865 0.0990981 0.656563 0
M  V30 6982 H 652.395 0.907958 1.8335 0
M  V30 6983 H 652.405 -0.0619981 4.07953 0
M  V30 6984 H 651.08 1.08849 4.01403 0
M  V30 6985 H 649.657 -0.708635 3.66105 0
M  V30 6986 N 651.842 -1.52309 0.404946 0
M  V30 6987 C 653.067 -2.06666 -0.1743 0
M  V30 6988 C 653.492 -1.27341 -1.38441 0
M  V30 6989 O 652.85 -0.302539 -1.78758 0
M  V30 6990 C 652.898 -3.57014 -0.507262 0
M  V30 6991 O 652.002 -3.80144 -1.59889 0
M  V30 6992 H 651.343 -0.663807 -0.0160273 0
M  V30 6993 H 653.873 -1.96297 0.576937 0
M  V30 6994 H 653.883 -4.00724 -0.767098 0
M  V30 6995 H 652.558 -4.14184 0.377368 0
M  V30 6996 H 651.135 -3.48316 -1.33155 0
M  V30 6997 N 653.32 -0.135238 -1.57019 0
M  V30 6998 C 654.731 0.387521 -1.82634 0
M  V30 6999 C 655.082 1.65528 -1.05332 0
M  V30 7000 O 654.207 2.14381 -0.294926 0
M  V30 7001 C 654.802 0.709852 -3.3128 0
M  V30 7002 C 653.361 1.17718 -3.57518 0
M  V30 7003 C 652.508 0.194183 -2.76619 0
M  V30 7004 H 655.459 -0.360126 -1.5456 0
M  V30 7005 H 655.48 1.5657 -3.46794 0
M  V30 7006 H 654.992 -0.213024 -3.87515 0
M  V30 7007 H 653.093 2.1164 -3.06658 0
M  V30 7008 H 653.206 1.11128 -4.66034 0
M  V30 7009 H 651.57 0.684478 -2.4533 0
M  V30 7010 H 652.353 -0.722076 -3.3562 0
M  V30 7011 N 654.798 1.5699 0.138552 0
M  V30 7012 C 656.046 1.83446 0.848053 0
M  V30 7013 C 656.367 0.71744 1.81322 0
M  V30 7014 O 655.637 -0.260228 1.94164 0
M  V30 7015 H 654.217 0.676792 0.316166 0
M  V30 7016 H 656.879 1.94462 0.130538 0
M  V30 7017 H 655.975 2.78677 1.40518 0
M  V30 7018 N 656.276 -0.40816 1.52223 0
M  V30 7019 C 657.501 -1.18127 1.70472 0
M  V30 7020 C 657.926 -1.83491 0.41384 0
M  V30 7021 O 657.284 -1.70047 -0.628778 0
M  V30 7022 C 657.332 -2.21935 2.84213 0
M  V30 7023 O 656.436 -3.28099 2.4985 0
M  V30 7024 H 655.777 -0.344781 0.56747 0
M  V30 7025 H 658.307 -0.478328 1.9893 0
M  V30 7026 H 658.317 -2.66248 3.09153 0
M  V30 7027 H 656.992 -1.73744 3.7787 0
M  V30 7028 H 655.569 -2.89058 2.35584 0
M  V30 7029 N 657.755 -1.42862 -0.66545 0
M  V30 7030 C 659.166 -1.3901 -1.24632 0
M  V30 7031 C 659.517 -0.0880285 -1.96002 0
M  V30 7032 O 658.642 0.812947 -2.0055 0
M  V30 7033 C 659.237 -2.51806 -2.2667 0
M  V30 7034 C 657.796 -2.51257 -2.80262 0
M  V30 7035 C 656.943 -2.30124 -1.5472 0
M  V30 7036 H 659.894 -1.5194 -0.458237 0
M  V30 7037 H 659.915 -2.22593 -3.08598 0
M  V30 7038 H 659.427 -3.46558 -1.74697 0
M  V30 7039 H 657.528 -1.60349 -3.36332 0
M  V30 7040 H 657.641 -3.48614 -3.28641 0
M  V30 7041 H 656.005 -1.7856 -1.81627 0
M  V30 7042 H 656.788 -3.26945 -1.04699 0
M  V30 7043 N 659.233 0.902656 -1.29189 0
M  V30 7044 C 660.479 1.65532 -1.17163 0
M  V30 7045 C 660.812 1.92216 0.276879 0
M  V30 7046 O 660.087 1.53048 1.20027 0
M  V30 7047 C 660.37 3.00629 -1.98228 0
M  V30 7048 C 660.223 2.81029 -3.51202 0
M  V30 7049 C 661.542 4.01321 -1.80635 0
M  V30 7050 H 658.661 0.60071 -0.426985 0
M  V30 7051 H 661.303 1.04578 -1.5863 0
M  V30 7052 H 659.453 3.52656 -1.62991 0
M  V30 7053 H 661.125 2.35927 -3.96404 0
M  V30 7054 H 659.368 2.1587 -3.76275 0
M  V30 7055 H 660.039 3.77014 -4.03192 0
M  V30 7056 H 662.515 3.58394 -2.11406 0
M  V30 7057 H 661.391 4.93792 -2.3971 0
M  V30 7058 H 661.652 4.35505 -0.760754 0
M  V30 7059 N 660.711 1.11618 1.11262 0
M  V30 7060 C 661.939 0.888739 1.8684 0
M  V30 7061 C 662.354 -0.561558 1.80255 0
M  V30 7062 O 661.711 -1.38782 1.18515 0
M  V30 7063 C 661.762 1.34422 3.35579 0
M  V30 7064 O 661.483 2.73766 3.42029 0
M  V30 7065 C 662.984 1.15246 4.28058 0
M  V30 7066 H 660.204 0.318152 0.590779 0
M  V30 7067 H 662.748 1.48398 1.40707 0
M  V30 7068 H 660.903 0.79239 3.7921 0
M  V30 7069 H 661.317 2.9355 4.34659 0
M  V30 7070 H 662.791 1.52015 5.30656 0
M  V30 7071 H 663.268 0.0922007 4.39103 0
M  V30 7072 H 663.874 1.69136 3.90222 0
M  V30 7073 N 662.189 -1.289 0.906776 0
M  V30 7074 C 663.152 -2.25777 0.394656 0
M  V30 7075 C 664.152 -1.53621 -0.475119 0
M  V30 7076 O 665.342 -1.71949 -0.279165 0
M  V30 7077 C 662.474 -3.38113 -0.43499 0
M  V30 7078 H 663.667 -2.72592 1.25033 0
M  V30 7079 H 661.22 -1.40463 0.685547 0
M  V30 7080 H 661.955 -2.96648 -1.31036 0
M  V30 7081 H 661.74 -3.91647 0.188334 0
M  V30 7082 H 663.23 -4.10168 -0.784365 0
M  V30 7083 N 663.667 -0.670007 -1.42649 0
M  V30 7084 C 664.913 -0.190568 -2.01903 0
M  V30 7085 C 665.246 1.19817 -1.52832 0
M  V30 7086 O 664.521 1.80342 -0.728485 0
M  V30 7087 C 664.804 -0.21991 -3.59428 0
M  V30 7088 C 664.657 -1.64376 -4.18689 0
M  V30 7089 C 665.976 0.434519 -4.3795 0
M  V30 7090 H 663.095 -0.0707219 -0.733599 0
M  V30 7091 H 665.737 -0.853883 -1.69732 0
M  V30 7092 H 663.887 0.344894 -3.86966 0
M  V30 7093 H 665.559 -2.26044 -4.02122 0
M  V30 7094 H 663.802 -2.18591 -3.747 0
M  V30 7095 H 664.473 -1.61601 -5.27815 0
M  V30 7096 H 666.949 -0.0462156 -4.16074 0
M  V30 7097 H 665.825 0.38333 -5.4756 0
M  V30 7098 H 666.086 1.51135 -4.15464 0
M  V30 7099 N 665.145 1.52092 -0.413018 0
M  V30 7100 C 666.373 2.06274 0.160881 0
M  V30 7101 C 666.788 1.28273 1.38533 0
M  V30 7102 O 666.145 0.33563 1.79387 0
M  V30 7103 C 666.196 3.57921 0.507443 0
M  V30 7104 O 665.917 4.32971 -0.668388 0
M  V30 7105 C 667.418 4.28533 1.13465 0
M  V30 7106 H 664.638 0.67074 0.0186759 0
M  V30 7107 H 667.182 1.95951 -0.585092 0
M  V30 7108 H 665.337 3.68238 1.20331 0
M  V30 7109 H 665.751 5.23135 -0.378169 0
M  V30 7110 H 667.225 5.35804 1.32732 0
M  V30 7111 H 667.702 3.85258 2.10886 0
M  V30 7112 H 668.308 4.22595 0.478876 0
M  V30 7113 N 666.623 0.143563 1.56945 0
M  V30 7114 C 667.9 -0.553285 1.87612 0
M  V30 7115 C 668.28 -1.83195 1.04894 0
M  V30 7116 O 667.628 -2.28102 0.134773 0
M  V30 7117 C 667.838 -0.822055 3.3918 0
M  V30 7118 C 669.186 -1.16435 4.08324 0
M  V30 7119 O 670.21 -0.911522 3.4434 0
M  V30 7120 O 669.069 -1.63996 5.21313 0
M  V30 7121 H 666.163 -0.281851 0.777489 0
M  V30 7122 H 668.709 0.179916 1.68744 0
M  V30 7123 H 667.481 0.0830265 3.91212 0
M  V30 7124 H 667.104 -1.60956 3.63564 0
M  V30 7125 N 668.101 -1.57061 -0.130224 0
M  V30 7126 C 669.378 -1.75205 -0.869631 0
M  V30 7127 C 669.758 -0.716063 -1.98584 0
M  V30 7128 O 669.106 0.262032 -2.26993 0
M  V30 7129 C 669.316 -3.19835 -1.39666 0
M  V30 7130 C 670.664 -3.82011 -1.85345 0
M  V30 7131 O 671.688 -3.23368 -1.49371 0
M  V30 7132 O 670.547 -4.85064 -2.51744 0
M  V30 7133 H 667.641 -0.716977 -0.412157 0
M  V30 7134 H 670.187 -1.69311 -0.11484 0
M  V30 7135 H 668.959 -3.86745 -0.595288 0
M  V30 7136 H 668.582 -3.30222 -2.21448 0
M  V30 7137 N 669.579 0.400081 -1.52437 0
M  V30 7138 C 670.826 1.14619 -1.6694 0
M  V30 7139 C 671.154 1.90262 -0.403797 0
M  V30 7140 O 670.409 1.85835 0.61351 0
M  V30 7141 C 670.708 2.15914 -2.84808 0
M  V30 7142 C 670.374 1.57011 -4.2268 0
M  V30 7143 C 669.036 1.40672 -4.60179 0
M  V30 7144 C 671.388 1.14081 -5.08562 0
M  V30 7145 C 668.716 0.799335 -5.81229 0
M  V30 7146 C 671.068 0.547573 -6.30226 0
M  V30 7147 C 669.732 0.371389 -6.66466 0
M  V30 7148 H 669.002 0.419419 -0.610875 0
M  V30 7149 H 671.649 0.432227 -1.86558 0
M  V30 7150 H 669.954 2.93488 -2.59561 0
M  V30 7151 H 671.651 2.73533 -2.93225 0
M  V30 7152 H 668.241 1.70713 -3.93135 0
M  V30 7153 H 672.425 1.2551 -4.80168 0
M  V30 7154 H 667.681 0.65093 -6.07925 0
M  V30 7155 H 671.855 0.206575 -6.96094 0
M  V30 7156 H 669.482 -0.10135 -7.60132 0
M  V30 7157 N 671.057 1.43213 0.657864 0
M  V30 7158 C 672.004 1.48011 1.77092 0
M  V30 7159 C 672.974 0.330291 1.62783 0
M  V30 7160 O 674.159 0.536787 1.83094 0
M  V30 7161 C 671.299 1.40461 3.15222 0
M  V30 7162 C 670.412 2.65612 3.40697 0
M  V30 7163 C 669.547 2.50083 4.68649 0
M  V30 7164 C 668.586 3.70525 4.87214 0
M  V30 7165 N 667.723 3.53835 6.0642 0
M  V30 7166 H 672.563 2.43121 1.72326 0
M  V30 7167 H 670.1 1.20687 0.841013 0
M  V30 7168 H 672.058 1.34079 3.95068 0
M  V30 7169 H 670.688 0.489359 3.19069 0
M  V30 7170 H 669.74 2.82292 2.54982 0
M  V30 7171 H 671.052 3.5509 3.50303 0
M  V30 7172 H 670.206 2.41383 5.56614 0
M  V30 7173 H 668.945 1.58121 4.61356 0
M  V30 7174 H 667.95 3.79639 3.97686 0
M  V30 7175 H 669.175 4.63489 4.96341 0
M  V30 7176 H 667.121 2.64604 6.00267 0
M  V30 7177 H 667.038 4.36912 6.16963 0
M  V30 7178 H 668.306 3.48978 6.97019 0
M  V30 7179 N 672.536 -0.895792 1.29666 0
M  V30 7180 C 673.468 -2.00563 1.10937 0
M  V30 7181 C 674.481 -1.62705 0.055734 0
M  V30 7182 O 675.67 -1.7595 0.300656 0
M  V30 7183 C 672.77 -3.32262 0.667448 0
M  V30 7184 C 671.943 -3.98625 1.80047 0
M  V30 7185 C 671.002 -5.08617 1.3489 0
M  V30 7186 O 670.028 -5.30837 2.05429 0
M  V30 7187 N 671.23 -5.80076 0.221937 0
M  V30 7188 H 673.995 -2.17184 2.06522 0
M  V30 7189 H 671.556 -1.06822 1.21658 0
M  V30 7190 H 673.548 -4.03196 0.348586 0
M  V30 7191 H 672.118 -3.11985 -0.196055 0
M  V30 7192 H 671.338 -3.21005 2.28801 0
M  V30 7193 H 672.626 -4.39704 2.56003 0
M  V30 7194 H 672.024 -5.64514 -0.366084 0
M  V30 7195 H 670.581 -6.51789 -0.0375346 0
M  V30 7196 N 674.014 -1.12206 -1.10668 0
M  V30 7197 C 675.262 -0.874144 -1.82217 0
M  V30 7198 C 675.583 0.601736 -1.85484 0
M  V30 7199 O 674.853 1.43725 -1.33116 0
M  V30 7200 H 673.433 -0.320404 -0.674797 0
M  V30 7201 H 676.095 -1.41606 -1.33917 0
M  V30 7202 H 675.191 -1.25349 -2.85822 0
M  V30 7203 N 675.492 1.28418 -0.913599 0
M  V30 7204 C 676.424 2.26368 -0.359169 0
M  V30 7205 C 677.437 1.54858 0.502285 0
M  V30 7206 O 678.626 1.75659 0.31719 0
M  V30 7207 C 675.726 3.35112 0.50526 0
M  V30 7208 C 674.899 4.36126 -0.333648 0
M  V30 7209 C 673.958 5.24134 0.465845 0
M  V30 7210 O 672.984 5.6907 -0.121538 0
M  V30 7211 N 674.186 5.52892 1.76891 0
M  V30 7212 H 676.951 2.74579 -1.2011 0
M  V30 7213 H 674.512 1.41898 -0.779532 0
M  V30 7214 H 676.504 3.90926 1.04684 0
M  V30 7215 H 675.074 2.86611 1.2479 0
M  V30 7216 H 674.294 3.79776 -1.0566 0
M  V30 7217 H 675.582 5.00638 -0.907669 0
M  V30 7218 H 674.98 5.18217 2.26865 0
M  V30 7219 H 673.537 6.11464 2.25732 0
M  V30 7220 N 676.97 0.677563 1.42291 0
M  V30 7221 C 678.386 0.347376 1.55774 0
M  V30 7222 C 678.586 -1.14703 1.65667 0
M  V30 7223 O 677.642 -1.93252 1.62512 0
M  V30 7224 C 678.955 1.08011 2.80631 0
M  V30 7225 C 680.503 1.06271 2.94407 0
M  V30 7226 C 680.978 1.77683 4.22129 0
M  V30 7227 N 682.469 1.74564 4.29047 0
M  V30 7228 C 683.204 2.26673 5.26694 0
M  V30 7229 N 682.7 2.87176 6.30477 0
M  V30 7230 N 684.493 2.17032 5.18511 0
M  V30 7231 H 676.644 1.64703 1.34114 0
M  V30 7232 H 678.907 0.694038 0.645768 0
M  V30 7233 H 678.613 2.13518 2.79469 0
M  V30 7234 H 678.487 0.647115 3.71608 0
M  V30 7235 H 680.874 0.0159658 2.95096 0
M  V30 7236 H 680.955 1.53461 2.04654 0
M  V30 7237 H 680.599 2.82327 4.22201 0
M  V30 7238 H 680.529 1.2794 5.10822 0
M  V30 7239 H 683.02 1.30436 3.54676 0
M  V30 7240 H 683.333 3.24551 7.01346 0
M  V30 7241 H 681.678 2.91247 6.31031 0
M  V30 7242 H 684.869 1.69451 4.36353 0
M  V30 7243 H 685.042 2.57948 5.94446 0
M  V30 7244 N 678.448 -1.51871 0.421078 0
M  V30 7245 C 679.398 -2.24171 -0.416111 0
M  V30 7246 C 680.382 -1.25763 -1.00362 0
M  V30 7247 O 681.574 -1.5094 -0.924452 0
M  V30 7248 C 678.703 -3.07533 -1.52571 0
M  V30 7249 C 677.789 -4.1336 -0.948399 0
M  V30 7250 N 678.18 -5.05704 -0.0987933 0
M  V30 7251 C 676.478 -4.29055 -1.21768 0
M  V30 7252 C 677.179 -5.8127 0.223705 0
M  V30 7253 N 676.155 -5.4221 -0.388524 0
M  V30 7254 H 679.957 -2.92925 0.239166 0
M  V30 7255 H 677.471 -1.60732 0.232191 0
M  V30 7256 H 679.468 -3.57893 -2.13819 0
M  V30 7257 H 678.128 -2.4032 -2.18349 0
M  V30 7258 H 679.139 -5.17214 0.266428 0
M  V30 7259 H 675.816 -3.73071 -1.87416 0
M  V30 7260 H 677.206 -6.65653 0.914076 0
M  V30 7261 N 679.926 -0.151884 -1.56866 0
M  V30 7262 C 681.154 0.504813 -2.00647 0
M  V30 7263 C 681.569 1.58098 -1.03201 0
M  V30 7264 O 680.926 1.82476 -0.0297814 0
M  V30 7265 C 680.977 1.10099 -3.44326 0
M  V30 7266 O 680.698 0.0678021 -4.38048 0
M  V30 7267 C 682.199 1.83782 -4.03409 0
M  V30 7268 H 679.419 0.130989 -0.65809 0
M  V30 7269 H 681.963 -0.247903 -2.02992 0
M  V30 7270 H 680.118 1.8043 -3.42817 0
M  V30 7271 H 680.532 0.505237 -5.22061 0
M  V30 7272 H 682.006 2.2078 -5.05925 0
M  V30 7273 H 682.483 2.72557 -3.44397 0
M  V30 7274 H 683.089 1.18138 -4.08563 0
M  V30 7275 N 681.404 1.57128 0.121893 0
M  V30 7276 C 682.334 2.03165 1.15092 0
M  V30 7277 C 683.315 0.915587 1.43356 0
M  V30 7278 O 684.5 1.1851 1.53847 0
M  V30 7279 C 681.63 2.43352 2.47784 0
M  V30 7280 C 680.584 3.58376 2.33989 0
M  V30 7281 C 679.91 3.84454 3.71617 0
M  V30 7282 C 681.21 4.90199 1.80283 0
M  V30 7283 H 682.904 2.89382 0.768023 0
M  V30 7284 H 680.45 1.39218 0.367998 0
M  V30 7285 H 682.403 2.74163 3.20019 0
M  V30 7286 H 681.127 1.54103 2.87958 0
M  V30 7287 H 679.786 3.2777 1.64202 0
M  V30 7288 H 679.434 2.92414 4.09271 0
M  V30 7289 H 679.134 4.61877 3.6324 0
M  V30 7290 H 680.658 4.17714 4.45362 0
M  V30 7291 H 682.072 5.19565 2.42333 0
M  V30 7292 H 680.469 5.71601 1.82735 0
M  V30 7293 H 681.539 4.78904 0.760184 0
M  V30 7294 N 682.882 -0.391992 1.52647 0
M  V30 7295 C 683.812 -1.48517 1.8018 0
M  V30 7296 C 684.793 -1.57039 0.653667 0
M  V30 7297 O 685.978 -1.72036 0.900962 0
M  V30 7298 C 683.108 -2.86161 1.96797 0
M  V30 7299 C 682.062 -2.92481 3.12472 0
M  V30 7300 C 681.388 -4.32546 3.14338 0
M  V30 7301 C 682.688 -2.624 4.51601 0
M  V30 7302 H 684.382 -1.25726 2.71723 0
M  V30 7303 H 681.928 -0.603387 1.30749 0
M  V30 7304 H 683.881 -3.62639 2.14641 0
M  V30 7305 H 682.605 -3.10283 1.01941 0
M  V30 7306 H 681.264 -2.18451 2.94406 0
M  V30 7307 H 680.912 -4.53703 2.1717 0
M  V30 7308 H 680.612 -4.37695 3.92042 0
M  V30 7309 H 682.136 -5.10934 3.34333 0
M  V30 7310 H 683.55 -3.28596 4.69785 0
M  V30 7311 H 681.947 -2.78903 5.3135 0
M  V30 7312 H 683.017 -1.57754 4.58521 0
M  V30 7313 N 684.36 -1.4356 -0.65026 0
M  V30 7314 C 685.606 -1.45549 -1.41221 0
M  V30 7315 C 685.939 -0.0805472 -1.94033 0
M  V30 7316 O 685.214 0.899043 -1.72475 0
M  V30 7317 C 685.497 -2.50028 -2.59148 0
M  V30 7318 C 685.35 -3.96808 -2.1181 0
M  V30 7319 C 686.669 -2.51212 -3.61359 0
M  V30 7320 H 683.788 -0.529967 -0.512156 0
M  V30 7321 H 686.43 -1.75127 -0.736933 0
M  V30 7322 H 684.58 -2.24937 -3.16758 0
M  V30 7323 H 686.252 -4.32966 -1.59178 0
M  V30 7324 H 684.495 -4.09498 -1.43156 0
M  V30 7325 H 685.166 -4.6553 -2.96625 0
M  V30 7326 H 687.642 -2.73583 -3.13515 0
M  V30 7327 H 686.518 -3.26252 -4.41419 0
M  V30 7328 H 686.779 -1.54701 -4.1415 0
M  V30 7329 N 685.838 0.888903 -1.30139 0
M  V30 7330 C 687.084 1.64288 -1.19922 0
M  V30 7331 C 687.439 1.90839 0.244561 0
M  V30 7332 O 686.732 1.51544 1.17239 0
M  V30 7333 C 686.926 2.99041 -1.95728 0
M  V30 7334 C 686.755 2.85644 -3.47329 0
M  V30 7335 C 685.525 2.85836 -4.16685 0
M  V30 7336 C 687.723 2.6188 -4.42632 0
M  V30 7337 N 685.705 2.63289 -5.54574 0
M  V30 7338 C 687.076 2.48418 -5.68057 0
M  V30 7339 C 689.131 2.47073 -4.32272 0
M  V30 7340 C 687.834 2.21655 -6.84296 0
M  V30 7341 C 689.86 2.21695 -5.48275 0
M  V30 7342 C 689.222 2.09007 -6.72678 0
M  V30 7343 H 685.321 0.606315 -0.493868 0
M  V30 7344 H 687.905 1.0478 -1.64102 0
M  V30 7345 H 686.076 3.56589 -1.53945 0
M  V30 7346 H 687.808 3.63607 -1.77685 0
M  V30 7347 H 684.563 2.97521 -3.68481 0
M  V30 7348 H 684.987 2.55039 -6.27124 0
M  V30 7349 H 689.629 2.55621 -3.36776 0
M  V30 7350 H 687.347 2.11845 -7.79838 0
M  V30 7351 H 690.933 2.11067 -5.42164 0
M  V30 7352 H 689.813 1.89643 -7.60924 0
M  V30 7353 N 687.317 1.12792 1.10072 0
M  V30 7354 C 688.28 0.802264 2.14701 0
M  V30 7355 C 689.28 -0.18515 1.59731 0
M  V30 7356 O 690.47 0.041109 1.74151 0
M  V30 7357 C 687.602 0.19285 3.40354 0
M  V30 7358 H 688.795 1.72932 2.45019 0
M  V30 7359 H 686.348 0.931662 1.25498 0
M  V30 7360 H 687.083 -0.743748 3.15656 0
M  V30 7361 H 686.868 0.903827 3.81541 0
M  V30 7362 H 688.358 -0.0183704 4.17596 0
M  V30 7363 N 688.795 -1.27931 0.920396 0
M  V30 7364 C 690.206 -1.76707 0.602616 0
M  V30 7365 C 690.557 -1.75249 -0.882159 0
M  V30 7366 O 689.682 -1.35135 -1.69019 0
M  V30 7367 C 690.277 -3.20884 1.08714 0
M  V30 7368 C 688.836 -3.67356 0.820157 0
M  V30 7369 C 687.983 -2.47525 1.25006 0
M  V30 7370 H 690.934 -1.14301 1.10095 0
M  V30 7371 H 690.955 -3.78045 0.431535 0
M  V30 7372 H 690.467 -3.21913 2.1678 0
M  V30 7373 H 688.568 -3.7178 -0.247012 0
M  V30 7374 H 688.681 -4.57181 1.43257 0
M  V30 7375 H 687.045 -2.45765 0.668698 0
M  V30 7376 H 687.828 -2.51269 2.3392 0
M  V30 7377 N 690.273 -0.685099 -1.4193 0
M  V30 7378 C 691.221 -0.00165985 -2.326 0
M  V30 7379 C 692.215 0.779678 -1.50391 0
M  V30 7380 O 693.421 0.68648 -1.66395 0
M  V30 7381 H 689.796 0.0182616 -0.751778 0
M  V30 7382 H 691.767 -0.783592 -2.87928 0
M  V30 7383 C 690.516 0.928385 -3.35077 0
M  V30 7384 H 689.839 0.336578 -3.98381 0
M  V30 7385 H 691.279 1.37509 -4.01083 0
M  V30 7386 C 689.738 2.03964 -2.68142 0
M  V30 7387 O 690.268 3.12727 -2.5212 0
M  V30 7388 N 688.474 1.81433 -2.27003 0
M  V30 7389 H 688.021 0.929807 -2.40234 0
M  V30 7390 H 687.979 2.55973 -1.82552 0
M  V30 7391 N 691.751 1.51645 -0.429126 0
M  V30 7392 C 692.701 2.24388 0.404217 0
M  V30 7393 C 693.685 1.26294 0.996933 0
M  V30 7394 O 694.877 1.51428 0.916434 0
M  V30 7395 C 692.006 3.08338 1.50938 0
M  V30 7396 C 691.092 4.13857 0.926464 0
M  V30 7397 N 691.483 5.05749 0.0719732 0
M  V30 7398 C 689.781 4.29695 1.19491 0
M  V30 7399 C 690.482 5.81143 -0.254528 0
M  V30 7400 N 689.458 5.42408 0.359763 0
M  V30 7401 H 693.26 2.92794 -0.254697 0
M  V30 7402 H 690.774 1.60606 -0.240712 0
M  V30 7403 H 692.771 3.59022 2.11918 0
M  V30 7404 H 691.431 2.41475 2.17072 0
M  V30 7405 H 692.442 5.17066 -0.293854 0
M  V30 7406 H 689.119 3.74059 1.85434 0
M  V30 7407 H 690.509 6.65159 -0.949365 0
M  V30 7408 N 693.229 0.160201 1.56784 0
M  V30 7409 C 694.459 -0.493449 2.00621 0
M  V30 7410 C 694.867 -1.5809 1.03943 0
M  V30 7411 O 694.21 -1.83675 0.0305343 0
M  V30 7412 C 694.272 -1.14169 3.4089 0
M  V30 7413 C 693.936 -0.197243 4.56574 0
M  V30 7414 C 694.933 0.580174 5.16653 0
M  V30 7415 C 692.618 -0.0963038 5.02208 0
M  V30 7416 C 694.612 1.44584 6.20785 0
M  V30 7417 C 692.299 0.772959 6.06192 0
M  V30 7418 C 693.297 1.54263 6.65351 0
M  V30 7419 O 692.985 2.39738 7.67321 0
M  V30 7420 H 692.717 -0.131764 0.663034 0
M  V30 7421 H 695.271 0.255728 2.03802 0
M  V30 7422 H 693.501 -1.93877 3.34587 0
M  V30 7423 H 695.19 -1.69641 3.6875 0
M  V30 7424 H 695.956 0.5123 4.82287 0
M  V30 7425 H 691.835 -0.685143 4.5588 0
M  V30 7426 H 695.379 2.04706 6.66889 0
M  V30 7427 H 691.276 0.842077 6.39984 0
M  V30 7428 H 692.044 2.33131 7.84597 0
M  V30 7429 N 694.707 -1.5719 -0.113559 0
M  V30 7430 C 695.639 -1.97393 -1.16484 0
M  V30 7431 C 696.652 -0.873964 -1.37352 0
M  V30 7432 O 697.841 -1.15222 -1.36331 0
M  V30 7433 C 694.941 -2.26174 -2.52386 0
M  V30 7434 C 694.114 -3.57479 -2.52046 0
M  V30 7435 C 693.173 -3.74409 -3.69735 0
M  V30 7436 O 692.199 -4.46463 -3.53071 0
M  V30 7437 N 693.401 -3.13588 -4.88511 0
M  V30 7438 H 696.166 -2.88184 -0.822814 0
M  V30 7439 H 693.727 -1.59044 -0.302769 0
M  V30 7440 H 695.719 -2.3471 -3.29687 0
M  V30 7441 H 694.289 -1.41483 -2.7875 0
M  V30 7442 H 693.509 -3.60081 -1.60421 0
M  V30 7443 H 694.797 -4.43775 -2.48881 0
M  V30 7444 H 694.195 -2.55026 -5.04953 0
M  V30 7445 H 692.752 -3.27637 -5.63469 0
M  V30 7446 N 696.185 0.383891 -1.52853 0
M  V30 7447 C 697.431 1.13009 -1.68395 0
M  V30 7448 C 697.764 1.89488 -0.425195 0
M  V30 7449 O 697.039 1.8574 0.577136 0
M  V30 7450 C 697.322 2.10419 -2.92226 0
M  V30 7451 C 697.175 1.3767 -4.28214 0
M  V30 7452 C 698.494 3.10781 -3.11614 0
M  V30 7453 H 695.613 0.409463 -0.612788 0
M  V30 7454 H 698.255 0.412895 -1.85459 0
M  V30 7455 H 696.405 2.71579 -2.77808 0
M  V30 7456 H 698.077 0.794352 -4.54409 0
M  V30 7457 H 696.32 0.678533 -4.2846 0
M  V30 7458 H 696.991 2.08874 -5.10956 0
M  V30 7459 H 699.467 2.59715 -3.25096 0
M  V30 7460 H 698.343 3.76179 -3.99725 0
M  V30 7461 H 698.604 3.79933 -2.2606 0
M  V30 7462 N 697.663 1.43903 0.642637 0
M  V30 7463 C 698.909 1.46296 1.40447 0
M  V30 7464 C 699.242 0.0908361 1.93987 0
M  V30 7465 O 698.517 -0.889884 1.72949 0
M  V30 7466 C 698.8 2.51399 2.57819 0
M  V30 7467 C 698.653 3.97926 2.09702 0
M  V30 7468 C 699.972 2.53125 3.60022 0
M  V30 7469 H 697.091 0.532676 0.509338 0
M  V30 7470 H 699.733 1.75515 0.727635 0
M  V30 7471 H 697.883 2.26614 3.1556 0
M  V30 7472 H 699.555 4.33804 1.5688 0
M  V30 7473 H 697.798 4.10252 1.40982 0
M  V30 7474 H 698.469 4.67096 2.94152 0
M  V30 7475 H 700.945 2.75242 3.12059 0
M  V30 7476 H 699.821 3.28589 4.39682 0
M  V30 7477 H 700.082 1.56895 4.13324 0
M  V30 7478 N 699.141 -0.881989 1.30609 0
M  V30 7479 C 700.088 -1.98803 1.17244 0
M  V30 7480 C 701.058 -1.65987 0.0611905 0
M  V30 7481 O 702.243 -1.89385 0.231911 0
M  V30 7482 C 699.383 -3.33867 0.87333 0
M  V30 7483 C 698.496 -3.79354 2.06675 0
M  V30 7484 C 697.631 -5.03078 1.70547 0
M  V30 7485 C 696.67 -5.40981 2.86366 0
M  V30 7486 N 695.807 -6.55886 2.50514 0
M  V30 7487 H 700.647 -2.09566 2.11863 0
M  V30 7488 H 698.184 -1.02607 1.05405 0
M  V30 7489 H 700.142 -4.11612 0.680519 0
M  V30 7490 H 698.772 -3.2278 -0.0359983 0
M  V30 7491 H 697.824 -2.97492 2.37071 0
M  V30 7492 H 699.136 -4.03382 2.93401 0
M  V30 7493 H 698.29 -5.88457 1.47658 0
M  V30 7494 H 697.029 -4.80927 0.809947 0
M  V30 7495 H 696.034 -4.54127 3.09917 0
M  V30 7496 H 697.259 -5.65104 3.76609 0
M  V30 7497 H 695.205 -6.35306 1.63471 0
M  V30 7498 H 695.122 -6.79799 3.30771 0
M  V30 7499 H 696.39 -7.44489 2.30989 0
M  V30 7500 N 700.619 -1.13374 -1.09472 0
M  V30 7501 C 701.896 -0.806329 -1.78207 0
M  V30 7502 C 702.276 0.702191 -1.99079 0
M  V30 7503 O 701.624 1.63931 -1.59182 0
M  V30 7504 C 701.834 -1.59271 -3.10538 0
M  V30 7505 C 703.182 -1.78509 -3.85253 0
M  V30 7506 O 704.206 -1.55866 -3.20288 0
M  V30 7507 O 703.065 -2.16287 -5.01879 0
M  V30 7508 H 700.159 -0.29435 -0.772843 0
M  V30 7509 H 702.705 -1.23833 -1.16033 0
M  V30 7510 H 701.477 -2.61792 -2.90828 0
M  V30 7511 H 701.1 -1.15562 -3.80436 0
M  V30 7512 N 702.098 1.27442 -0.927168 0
M  V30 7513 C 703.346 1.94007 -0.566203 0
M  V30 7514 C 703.667 1.7323 0.895345 0
M  V30 7515 O 702.937 1.07973 1.63459 0
M  V30 7516 H 701.517 0.717917 -0.206409 0
M  V30 7517 H 704.179 1.55161 -1.17945 0
M  V30 7518 H 703.275 3.02401 -0.772028 0
M  V30 7519 N 703.576 0.692616 1.41565 0
M  V30 7520 C 704.506 0.0397325 2.33466 0
M  V30 7521 C 705.487 -0.770334 1.51657 0
M  V30 7522 O 706.672 -0.723903 1.80203 0
M  V30 7523 C 703.802 -0.899495 3.3545 0
M  V30 7524 C 702.756 -0.196738 4.27548 0
M  V30 7525 C 702.082 -1.25012 5.19881 0
M  V30 7526 C 703.382 0.935158 5.1386 0
M  V30 7527 H 705.076 0.807296 2.88311 0
M  V30 7528 H 702.622 0.389665 1.38628 0
M  V30 7529 H 704.575 -1.36545 3.98665 0
M  V30 7530 H 703.299 -1.69869 2.78948 0
M  V30 7531 H 701.958 0.249158 3.65752 0
M  V30 7532 H 701.606 -2.04177 4.59696 0
M  V30 7533 H 701.306 -0.784931 5.82334 0
M  V30 7534 H 702.83 -1.71665 5.85972 0
M  V30 7535 H 704.244 0.549619 5.70659 0
M  V30 7536 H 702.641 1.32726 5.85238 0
M  V30 7537 H 703.711 1.77613 4.512 0
M  V30 7538 N 705.054 -1.51416 0.437162 0
M  V30 7539 C 706.002 -2.29328 -0.388765 0
M  V30 7540 C 706.996 -1.35171 -1.02104 0
M  V30 7541 O 708.202 -1.52513 -0.956024 0
M  V30 7542 H 704.577 -0.738048 -0.144183 0
M  V30 7543 H 706.548 -2.96995 0.289212 0
M  V30 7544 C 705.297 -3.14741 -1.47761 0
M  V30 7545 H 704.62 -3.8708 -1.00045 0
M  V30 7546 H 706.06 -3.72313 -2.02877 0
M  V30 7547 C 704.519 -2.30105 -2.46076 0
M  V30 7548 O 705.049 -1.96055 -3.50607 0
M  V30 7549 N 703.255 -1.93331 -2.1696 0
M  V30 7550 H 702.802 -2.2122 -1.31983 0
M  V30 7551 H 702.76 -1.36999 -2.82982 0
M  V30 7552 N 706.532 -0.168513 -1.56696 0
M  V30 7553 C 707.464 0.794249 -2.14998 0
M  V30 7554 C 708.477 1.1957 -1.10485 0
M  V30 7555 O 709.666 1.13604 -1.37682 0
M  V30 7556 C 706.766 2.08018 -2.67547 0
M  V30 7557 C 705.939 1.84274 -3.96689 0
M  V30 7558 C 704.998 2.97059 -4.3433 0
M  V30 7559 O 704.024 2.67815 -5.02259 0
M  V30 7560 N 705.226 4.24775 -3.9566 0
M  V30 7561 H 707.991 0.295832 -2.98236 0
M  V30 7562 H 705.552 0.0143611 -1.61894 0
M  V30 7563 H 707.544 2.82559 -2.89729 0
M  V30 7564 H 706.114 2.49059 -1.88914 0
M  V30 7565 H 705.334 0.936528 -3.82914 0
M  V30 7566 H 706.622 1.65773 -4.81037 0
M  V30 7567 H 706.02 4.51395 -3.40968 0
M  V30 7568 H 704.577 4.96027 -4.22848 0
M  V30 7569 N 708.01 1.57248 0.105221 0
M  V30 7570 C 708.957 2.01338 1.12835 0
M  V30 7571 C 709.927 0.887897 1.40377 0
M  V30 7572 O 711.112 1.15315 1.5201 0
M  V30 7573 C 708.252 2.43432 2.44611 0
M  V30 7574 C 707.365 3.69457 2.23888 0
M  V30 7575 C 706.5 4.00473 3.48991 0
M  V30 7576 C 705.539 5.19638 3.23485 0
M  V30 7577 N 704.676 5.46457 4.40828 0
M  V30 7578 H 709.516 2.88527 0.745386 0
M  V30 7579 H 707.053 1.42714 0.356535 0
M  V30 7580 H 709.011 2.65879 3.21503 0
M  V30 7581 H 707.641 1.59266 2.80774 0
M  V30 7582 H 706.693 3.54545 1.37847 0
M  V30 7583 H 708.005 4.56497 2.01026 0
M  V30 7584 H 707.159 4.23642 4.34295 0
M  V30 7585 H 705.898 3.11935 3.74897 0
M  V30 7586 H 704.903 4.96299 2.36574 0
M  V30 7587 H 706.128 6.09766 2.98935 0
M  V30 7588 H 704.074 4.60876 4.66829 0
M  V30 7589 H 703.991 6.27849 4.2112 0
M  V30 7590 H 705.259 5.74155 5.27225 0
M  V30 7591 N 709.488 -0.375779 1.53054 0
M  V30 7592 C 710.899 -0.95309 1.6054 0
M  V30 7593 C 711.25 -1.90575 0.466446 0
M  V30 7594 O 710.375 -2.12507 -0.408609 0
M  V30 7595 C 710.97 -1.73537 2.90982 0
M  V30 7596 C 709.529 -2.26218 3.00836 0
M  V30 7597 C 708.676 -1.07157 2.55759 0
M  V30 7598 H 711.627 -0.154895 1.57942 0
M  V30 7599 H 711.648 -2.59574 2.78211 0
M  V30 7600 H 711.16 -1.04176 3.73857 0
M  V30 7601 H 709.261 -2.98852 2.22527 0
M  V30 7602 H 709.374 -2.54799 4.05727 0
M  V30 7603 H 707.738 -1.43553 2.10391 0
M  V30 7604 H 708.521 -0.393099 3.41042 0
M  V30 7605 N 710.966 -1.44241 -0.634997 0
M  V30 7606 C 711.876 -1.53293 -1.77591 0
M  V30 7607 C 712.892 -0.418831 -1.68884 0
M  V30 7608 O 714.068 -0.675619 -1.8973 0
M  V30 7609 C 711.133 -1.47075 -3.13958 0
M  V30 7610 C 710.194 -2.69304 -3.34326 0
M  V30 7611 C 709.427 -2.63374 -4.64187 0
M  V30 7612 O 709.65 -1.69161 -5.44739 0
M  V30 7613 O 708.584 -3.54166 -4.86673 0
M  V30 7614 H 712.41 -2.49673 -1.72908 0
M  V30 7615 H 709.995 -1.26445 -0.795745 0
M  V30 7616 H 711.877 -1.46117 -3.95257 0
M  V30 7617 H 710.552 -0.538373 -3.19192 0
M  V30 7618 H 709.459 -2.75831 -2.52721 0
M  V30 7619 H 710.792 -3.61576 -3.33951 0
M  V30 7620 N 712.444 0.87505 -1.31075 0
M  V30 7621 C 713.391 1.98178 -1.18296 0
M  V30 7622 C 714.361 1.65952 -0.0699923 0
M  V30 7623 O 715.546 1.8926 -0.241951 0
M  V30 7624 C 712.686 3.33399 -0.891024 0
M  V30 7625 C 711.799 3.78253 -2.08684 0
M  V30 7626 C 710.934 5.02166 -1.73212 0
M  V30 7627 C 709.973 5.39455 -2.89231 0
M  V30 7628 N 709.11 6.54549 -2.53989 0
M  V30 7629 H 713.95 2.0844 -2.12971 0
M  V30 7630 H 711.487 1.02047 -1.05948 0
M  V30 7631 H 713.445 4.11246 -0.702338 0
M  V30 7632 H 712.075 3.22794 0.0188799 0
M  V30 7633 H 711.127 2.9623 -2.38646 0
M  V30 7634 H 712.439 4.01821 -2.95536 0
M  V30 7635 H 711.593 5.87666 -1.50777 0
M  V30 7636 H 710.332 4.80491 -0.83544 0
M  V30 7637 H 709.337 4.52477 -3.12321 0
M  V30 7638 H 710.562 5.63098 -3.79601 0
M  V30 7639 H 708.508 6.3443 -1.66838 0
M  V30 7640 H 708.425 6.78035 -3.34372 0
M  V30 7641 H 709.693 7.43254 -2.34934 0
M  V30 7642 N 713.922 1.13953 1.08869 0
M  V30 7643 C 715.17 0.903023 1.80803 0
M  V30 7644 C 715.491 -0.572151 1.86417 0
M  V30 7645 O 714.761 -1.41589 1.35386 0
M  V30 7646 H 713.341 0.331099 0.669614 0
M  V30 7647 H 716.003 1.43719 1.31647 0
M  V30 7648 H 715.099 1.29881 2.83791 0
M  V30 7649 N 715.4 -1.26948 0.933913 0
M  V30 7650 C 716.31 -2.30366 0.443671 0
M  V30 7651 C 717.326 -1.67284 -0.478745 0
M  V30 7652 O 718.502 -1.98156 -0.360043 0
M  V30 7653 C 715.567 -3.45485 -0.289974 0
M  V30 7654 C 714.628 -4.24069 0.668114 0
M  V30 7655 C 713.861 -5.33691 -0.0306138 0
M  V30 7656 O 714.084 -5.5656 -1.24888 0
M  V30 7657 O 713.018 -5.98441 0.644384 0
M  V30 7658 H 716.844 -2.74349 1.30254 0
M  V30 7659 H 714.429 -1.32012 0.699506 0
M  V30 7660 H 716.311 -4.15486 -0.70353 0
M  V30 7661 H 714.986 -3.03546 -1.12435 0
M  V30 7662 H 713.893 -3.56579 1.13147 0
M  V30 7663 H 715.226 -4.69739 1.46989 0
M  V30 7664 N 716.879 -0.700114 -1.41195 0
M  V30 7665 C 717.827 -0.0263301 -2.32585 0
M  V30 7666 C 718.821 0.763683 -1.51209 0
M  V30 7667 O 720.027 0.668793 -1.67114 0
M  V30 7668 H 716.402 0.0102869 -0.75193 0
M  V30 7669 H 718.373 -0.814087 -2.8708 0
M  V30 7670 C 717.122 0.892793 -3.36042 0
M  V30 7671 H 716.445 0.294306 -3.98715 0
M  V30 7672 H 717.885 1.33247 -4.02518 0
M  V30 7673 C 716.344 2.01109 -2.7029 0
M  V30 7674 O 716.874 3.10035 -2.55423 0
M  V30 7675 N 715.08 1.79015 -2.28915 0
M  V30 7676 H 714.627 0.904275 -2.41207 0
M  V30 7677 H 714.585 2.54022 -1.85257 0
M  V30 7678 N 718.357 1.51182 -0.445186 0
M  V30 7679 C 719.605 2.01753 0.11841 0
M  V30 7680 C 719.926 1.33087 1.42523 0
M  V30 7681 O 719.196 0.467891 1.9023 0
M  V30 7682 H 717.776 0.745536 0.0467492 0
M  V30 7683 H 720.438 1.85765 -0.589688 0
M  V30 7684 H 719.534 3.10762 0.288665 0
M  V30 7685 N 719.835 0.176821 1.56605 0
M  V30 7686 C 721.084 -0.466833 1.96223 0
M  V30 7687 C 721.397 -1.64015 1.06576 0
M  V30 7688 O 722.603 -2.3504 1.35898 0
M  V30 7689 C 721.059 -0.881921 3.48927 0
M  V30 7690 C 720.667 0.266102 4.47209 0
M  V30 7691 C 722.411 -1.49368 3.97353 0
M  V30 7692 C 720.318 -0.168923 5.91159 0
M  V30 7693 H 719.248 -0.178178 0.732645 0
M  V30 7694 H 721.899 0.265929 1.81563 0
M  V30 7695 H 720.281 -1.67082 3.59026 0
M  V30 7696 H 721.455 1.04349 4.4883 0
M  V30 7697 H 719.77 0.788178 4.08872 0
M  V30 7698 H 722.367 -1.8313 5.02362 0
M  V30 7699 H 722.71 -2.3936 3.40606 0
M  V30 7700 H 723.243 -0.769114 3.90294 0
M  V30 7701 H 719.982 0.696351 6.51791 0
M  V30 7702 H 719.502 -0.911552 5.92833 0
M  V30 7703 H 721.181 -0.610938 6.44109 0
M  V30 7704 N 721.313 -1.57302 -0.09688 0
M  V30 7705 C 722.729 -1.53094 -0.451041 0
M  V30 7706 C 722.929 -0.893265 -1.80618 0
M  V30 7707 O 721.985 -0.485013 -2.47798 0
M  V30 7708 C 723.298 -2.9782 -0.415172 0
M  V30 7709 C 724.846 -3.09026 -0.497155 0
M  V30 7710 C 725.321 -4.55356 -0.491452 0
M  V30 7711 N 726.812 -4.59896 -0.552258 0
M  V30 7712 C 727.547 -5.70563 -0.569654 0
M  V30 7713 N 727.043 -6.90666 -0.543365 0
M  V30 7714 N 728.836 -5.58733 -0.614331 0
M  V30 7715 H 720.987 -1.97131 0.790771 0
M  V30 7716 H 723.25 -0.901211 0.294147 0
M  V30 7717 H 722.956 -3.47933 0.513362 0
M  V30 7718 H 722.83 -3.56416 -1.23481 0
M  V30 7719 H 725.217 -2.58902 -1.41611 0
M  V30 7720 H 725.298 -2.53386 0.35059 0
M  V30 7721 H 724.942 -5.06131 0.423549 0
M  V30 7722 H 724.872 -5.08832 -1.35639 0
M  V30 7723 H 727.363 -3.73456 -0.577842 0
M  V30 7724 H 727.676 -7.70769 -0.559873 0
M  V30 7725 H 726.021 -6.93123 -0.510441 0
M  V30 7726 H 729.212 -4.63809 -0.632387 0
M  V30 7727 H 729.385 -6.44984 -0.62442 0
M  V30 7728 N 722.791 0.367657 -1.53252 0
M  V30 7729 C 724.038 1.11052 -1.69333 0
M  V30 7730 C 724.366 1.89363 -0.444064 0
M  V30 7731 O 723.621 1.87094 0.573953 0
M  V30 7732 C 723.92 2.09825 -2.89324 0
M  V30 7733 C 723.586 1.4801 -4.25915 0
M  V30 7734 C 722.248 1.30879 -4.6306 0
M  V30 7735 C 724.6 1.03268 -5.10867 0
M  V30 7736 C 721.928 0.675868 -5.82794 0
M  V30 7737 C 724.28 0.41377 -6.31245 0
M  V30 7738 C 722.944 0.229939 -6.67104 0
M  V30 7739 H 722.214 0.406367 -0.619634 0
M  V30 7740 H 724.861 0.392558 -1.87433 0
M  V30 7741 H 723.166 2.87917 -2.65728 0
M  V30 7742 H 724.863 2.67252 -2.98961 0
M  V30 7743 H 721.453 1.62336 -3.96667 0
M  V30 7744 H 725.637 1.15297 -4.82722 0
M  V30 7745 H 720.893 0.521833 -6.09169 0
M  V30 7746 H 725.067 0.0588768 -6.96375 0
M  V30 7747 H 722.694 -0.262562 -7.59746 0
M  V30 7748 N 724.269 1.44576 0.627338 0
M  V30 7749 C 725.515 1.47777 1.38888 0
M  V30 7750 C 725.848 0.111406 1.9388 0
M  V30 7751 O 725.123 -0.87149 1.73883 0
M  V30 7752 C 725.406 2.54119 2.55138 0
M  V30 7753 C 725.259 4.00128 2.0547 0
M  V30 7754 C 726.578 2.56929 3.57317 0
M  V30 7755 H 723.697 0.538048 0.50366 0
M  V30 7756 H 726.339 1.76277 0.708978 0
M  V30 7757 H 724.489 2.29948 3.13139 0
M  V30 7758 H 726.161 4.35444 1.5227 0
M  V30 7759 H 724.404 4.11724 1.36623 0
M  V30 7760 H 725.075 4.7019 2.89181 0
M  V30 7761 H 727.551 2.78536 3.09122 0
M  V30 7762 H 726.427 3.33234 4.36173 0
M  V30 7763 H 726.688 1.6127 4.11636 0
M  V30 7764 N 725.747 -0.868086 1.31537 0
M  V30 7765 C 726.695 -1.99688 1.1928 0
M  V30 7766 C 727.689 -1.69101 0.100656 0
M  V30 7767 O 728.895 -1.78073 0.262677 0
M  V30 7768 H 725.27 -0.655032 0.369374 0
M  V30 7769 H 727.241 -2.07157 2.14776 0
M  V30 7770 C 725.99 -3.35338 0.918892 0
M  V30 7771 H 725.313 -3.59396 1.75142 0
M  V30 7772 H 726.753 -4.14909 0.873311 0
M  V30 7773 C 725.212 -3.34769 -0.378366 0
M  V30 7774 O 725.742 -3.76716 -1.39456 0
M  V30 7775 N 723.948 -2.87895 -0.39557 0
M  V30 7776 H 723.495 -2.53954 0.431889 0
M  V30 7777 H 723.453 -2.87897 -1.26344 0
M  V30 7778 N 727.225 -1.14528 -1.08264 0
M  V30 7779 C 728.453 -0.937964 -1.84418 0
M  V30 7780 C 728.868 0.51357 -1.81681 0
M  V30 7781 O 728.225 1.35591 -1.22153 0
M  V30 7782 C 728.276 -1.43272 -3.31897 0
M  V30 7783 O 727.997 -2.82738 -3.34651 0
M  V30 7784 C 729.498 -1.26555 -4.24851 0
M  V30 7785 H 726.718 -0.333704 -0.582136 0
M  V30 7786 H 729.262 -1.52076 -1.36723 0
M  V30 7787 H 727.417 -0.892653 -3.76975 0
M  V30 7788 H 727.831 -3.04971 -4.26724 0
M  V30 7789 H 729.305 -1.66031 -5.26439 0
M  V30 7790 H 729.782 -0.208589 -4.38704 0
M  V30 7791 H 730.388 -1.79423 -3.856 0
M  V30 7792 N 728.703 1.26451 -0.940633 0
M  V30 7793 C 729.95 1.93778 -0.587909 0
M  V30 7794 C 730.278 1.73811 0.872935 0
M  V30 7795 O 729.533 1.06816 1.63978 0
M  V30 7796 C 729.832 3.46503 -0.875794 0
M  V30 7797 C 729.498 3.86609 -2.32043 0
M  V30 7798 C 728.16 3.97269 -2.71534 0
M  V30 7799 C 730.512 4.0672 -3.25927 0
M  V30 7800 C 727.84 4.25436 -4.04006 0
M  V30 7801 C 730.192 4.36375 -4.57995 0
M  V30 7802 C 728.856 4.45249 -4.97302 0
M  V30 7803 H 728.126 0.709084 -0.215131 0
M  V30 7804 H 730.773 1.50272 -1.18704 0
M  V30 7805 H 729.078 3.91319 -0.194124 0
M  V30 7806 H 730.775 3.96759 -0.581665 0
M  V30 7807 H 727.365 3.78858 -2.00411 0
M  V30 7808 H 731.549 3.97912 -2.96614 0
M  V30 7809 H 726.805 4.30519 -4.34124 0
M  V30 7810 H 730.979 4.50882 -5.30734 0
M  V30 7811 H 728.606 4.66829 -5.99979 0
M  V30 7812 N 730.181 0.707592 1.40822 0
M  V30 7813 C 731.129 0.0386643 2.32568 0
M  V30 7814 C 732.123 -0.755653 1.51612 0
M  V30 7815 O 733.329 -0.659921 1.67467 0
M  V30 7816 H 729.704 -0.00629912 0.751974 0
M  V30 7817 H 731.675 0.8293 2.86645 0
M  V30 7818 C 730.424 -0.87496 3.36511 0
M  V30 7819 H 729.747 -0.273157 3.98866 0
M  V30 7820 H 731.187 -1.31111 4.03219 0
M  V30 7821 C 729.646 -1.99672 2.71353 0
M  V30 7822 O 730.176 -3.08676 2.57064 0
M  V30 7823 N 728.382 -1.77799 2.29861 0
M  V30 7824 H 727.929 -0.89147 2.41683 0
M  V30 7825 H 727.887 -2.53036 1.86601 0
M  V30 7826 N 731.66 -1.50943 0.453197 0
M  V30 7827 C 732.57 -2.31884 -0.355963 0
M  V30 7828 C 733.586 -1.41481 -1.01287 0
M  V30 7829 O 734.762 -1.74546 -1.00477 0
M  V30 7830 C 731.827 -3.15668 -1.43369 0
M  V30 7831 C 730.888 -4.2187 -0.795253 0
M  V30 7832 C 730.121 -5.0165 -1.82162 0
M  V30 7833 O 730.344 -4.82266 -3.04592 0
M  V30 7834 O 729.278 -5.85311 -1.40336 0
M  V30 7835 H 733.104 -3.02162 0.305248 0
M  V30 7836 H 730.689 -1.47839 0.215398 0
M  V30 7837 H 732.571 -3.67709 -2.05836 0
M  V30 7838 H 731.246 -2.48137 -2.07869 0
M  V30 7839 H 730.153 -3.73867 -0.132106 0
M  V30 7840 H 731.486 -4.9182 -0.193484 0
M  V30 7841 N 733.138 -0.185124 -1.56509 0
M  V30 7842 C 734.068 0.735098 -2.21627 0
M  V30 7843 C 735.049 1.2288 -1.1762 0
M  V30 7844 O 736.234 1.27945 -1.46095 0
M  V30 7845 C 733.364 1.95889 -2.86783 0
M  V30 7846 C 732.318 1.6005 -3.96948 0
M  V30 7847 C 731.644 2.90009 -4.4922 0
M  V30 7848 C 732.944 0.818008 -5.15855 0
M  V30 7849 H 734.638 0.192274 -2.98782 0
M  V30 7850 H 732.184 0.0910393 -1.43712 0
M  V30 7851 H 734.137 2.60779 -3.31017 0
M  V30 7852 H 732.861 2.52608 -2.07018 0
M  V30 7853 H 731.52 0.975237 -3.5339 0
M  V30 7854 H 731.168 3.44797 -3.6623 0
M  V30 7855 H 730.868 2.66778 -5.23549 0
M  V30 7856 H 732.392 3.55904 -4.9615 0
M  V30 7857 H 733.806 1.36979 -5.56695 0
M  V30 7858 H 732.203 0.684207 -5.96187 0
M  V30 7859 H 733.273 -0.182939 -4.84555 0
M  V30 7860 N 734.616 1.57351 0.0885366 0
M  V30 7861 C 735.865 1.85604 0.789556 0
M  V30 7862 C 736.178 0.775352 1.79576 0
M  V30 7863 O 737.384 0.945206 2.54515 0
M  V30 7864 C 735.84 3.29175 1.45506 0
M  V30 7865 C 735.448 4.45331 0.488278 0
M  V30 7866 C 737.192 3.66646 2.13942 0
M  V30 7867 C 735.099 5.79937 1.15874 0
M  V30 7868 H 734.029 0.692346 0.298619 0
M  V30 7869 H 736.68 1.83451 0.0425821 0
M  V30 7870 H 735.062 3.25889 2.24972 0
M  V30 7871 H 736.236 4.59977 -0.275359 0
M  V30 7872 H 734.551 4.16301 -0.0907363 0
M  V30 7873 H 737.148 4.64498 2.6485 0
M  V30 7874 H 737.491 2.956 2.93132 0
M  V30 7875 H 738.024 3.71848 1.41328 0
M  V30 7876 H 734.763 6.54232 0.407508 0
M  V30 7877 H 734.283 5.69123 1.89364 0
M  V30 7878 H 735.962 6.24718 1.68336 0
M  V30 7879 N 736.094 -0.359525 1.53444 0
M  V30 7880 C 737.322 -1.12198 1.73837 0
M  V30 7881 C 737.737 -1.82854 0.470107 0
M  V30 7882 O 737.094 -1.73781 -0.557349 0
M  V30 7883 C 737.145 -2.14769 2.90786 0
M  V30 7884 O 736.866 -1.46989 4.12706 0
M  V30 7885 C 738.367 -3.03514 3.231 0
M  V30 7886 H 735.587 -0.33524 0.581253 0
M  V30 7887 H 738.131 -0.416598 2.00212 0
M  V30 7888 H 736.286 -2.80896 2.66788 0
M  V30 7889 H 736.7 -2.15378 4.78239 0
M  V30 7890 H 738.174 -3.71453 4.08322 0
M  V30 7891 H 738.651 -3.68658 2.38721 0
M  V30 7892 H 739.257 -2.42996 3.49046 0
M  V30 7893 N 737.572 -1.44907 -0.619662 0
M  V30 7894 C 738.821 -1.47569 -1.37501 0
M  V30 7895 C 739.134 -0.116707 -1.95252 0
M  V30 7896 O 740.34 -0.020909 -2.71492 0
M  V30 7897 C 738.796 -2.59851 -2.49009 0
M  V30 7898 C 738.404 -4.02008 -1.97722 0
M  V30 7899 C 740.148 -2.71746 -3.2612 0
M  V30 7900 C 738.055 -5.05693 -3.0664 0
M  V30 7901 H 736.985 -0.549068 -0.51676 0
M  V30 7902 H 739.636 -1.71009 -0.665437 0
M  V30 7903 H 738.018 -2.29671 -3.22594 0
M  V30 7904 H 739.192 -4.41809 -1.30925 0
M  V30 7905 H 737.507 -3.94456 -1.33392 0
M  V30 7906 H 740.104 -3.46382 -4.07337 0
M  V30 7907 H 740.447 -1.77959 -3.76346 0
M  V30 7908 H 740.98 -3.01392 -2.5963 0
M  V30 7909 H 737.719 -6.01148 -2.61345 0
M  V30 7910 H 737.239 -4.70473 -3.72042 0
M  V30 7911 H 738.918 -5.29906 -3.71226 0
M  V30 7912 N 739.05 0.861098 -1.31996 0
M  V30 7913 C 740.278 1.6474 -1.25173 0
M  V30 7914 C 740.693 1.87926 0.181425 0
M  V30 7915 O 740.05 1.4437 1.1164 0
M  V30 7916 C 740.101 3.01036 -2.0015 0
M  V30 7917 O 739.822 2.7888 -3.37872 0
M  V30 7918 C 741.323 3.95481 -2.00273 0
M  V30 7919 H 738.543 0.513314 -0.432146 0
M  V30 7920 H 741.087 1.07419 -1.74016 0
M  V30 7921 H 739.242 3.55021 -1.55046 0
M  V30 7922 H 739.656 3.65514 -3.76165 0
M  V30 7923 H 741.13 4.88403 -2.57229 0
M  V30 7924 H 741.607 4.27957 -0.987407 0
M  V30 7925 H 742.213 3.47433 -2.45296 0
M  V30 7926 N 740.528 1.15101 1.07655 0
M  V30 7927 C 741.461 0.788522 2.14144 0
M  V30 7928 C 742.439 -0.233635 1.60913 0
M  V30 7929 O 743.623 -0.120908 1.88112 0
M  V30 7930 C 740.75 0.172033 3.38263 0
M  V30 7931 C 739.796 1.16559 4.10264 0
M  V30 7932 S 740.629 2.70627 4.62084 0
M  V30 7933 C 741.785 2.10389 5.8948 0
M  V30 7934 H 742.018 1.69047 2.44561 0
M  V30 7935 H 739.551 0.973033 1.19881 0
M  V30 7936 H 741.509 -0.177223 4.10117 0
M  V30 7937 H 740.17 -0.707468 3.06029 0
M  V30 7938 H 739.363 0.6824 4.99359 0
M  V30 7939 H 738.965 1.45923 3.44358 0
M  V30 7940 H 741.257 1.46405 6.61492 0
M  V30 7941 H 742.2 2.97639 6.42508 0
M  V30 7942 H 742.608 1.54816 5.42856 0
M  V30 7943 N 742.006 -1.2595 0.947325 0
M  V30 7944 C 743.231 -1.98083 0.614633 0
M  V30 7945 C 743.656 -1.70013 -0.804815 0
M  V30 7946 O 743.014 -0.95175 -1.54309 0
M  V30 7947 C 743.062 -3.4993 0.870706 0
M  V30 7948 O 742.166 -4.12364 -0.0541451 0
M  V30 7949 H 741.507 -0.621232 0.234451 0
M  V30 7950 H 744.037 -1.60259 1.27193 0
M  V30 7951 H 744.047 -4.00198 0.794051 0
M  V30 7952 H 742.722 -3.69691 1.90529 0
M  V30 7953 H 741.299 -3.72826 0.0740917 0
M  V30 7954 N 743.484 -0.715051 -1.40445 0
M  V30 7955 C 744.732 -0.253826 -2.005 0
M  V30 7956 C 745.053 1.15681 -1.5698 0
M  V30 7957 O 744.323 1.78414 -0.809027 0
M  V30 7958 H 742.903 -0.0908537 -0.741454 0
M  V30 7959 H 745.565 -0.920561 -1.7179 0
M  V30 7960 H 744.661 -0.286499 -3.10782 0
M  V30 7961 N 744.962 1.50701 -0.461195 0
M  V30 7962 C 745.909 2.2831 0.338094 0
M  V30 7963 C 746.879 1.32928 0.995957 0
M  V30 7964 O 748.064 1.61857 1.0103 0
M  V30 7965 C 745.204 3.14539 1.41983 0
M  V30 7966 C 744.317 4.24942 0.77773 0
M  V30 7967 C 743.452 4.98443 1.83652 0
M  V30 7968 C 742.491 6.00733 1.17413 0
M  V30 7969 N 741.628 6.6755 2.17533 0
M  V30 7970 H 746.468 2.96167 -0.330051 0
M  V30 7971 H 744.005 1.4606 -0.174611 0
M  V30 7972 H 745.963 3.62877 2.05855 0
M  V30 7973 H 744.593 2.48749 2.05727 0
M  V30 7974 H 743.645 3.80391 0.0266924 0
M  V30 7975 H 744.957 4.98151 0.254362 0
M  V30 7976 H 744.111 5.50449 2.55129 0
M  V30 7977 H 742.85 4.24917 2.39367 0
M  V30 7978 H 741.855 5.47997 0.444944 0
M  V30 7979 H 743.08 6.76227 0.624006 0
M  V30 7980 H 741.026 5.96823 2.72284 0
M  V30 7981 H 740.943 7.36603 1.70154 0
M  V30 7982 H 742.211 7.24178 2.88421 0
M  V30 7983 N 746.441 0.193421 1.56409 0
M  V30 7984 C 747.687 -0.446449 1.97825 0
M  V30 7985 C 748.02 -1.61386 1.08019 0
M  V30 7986 O 747.295 -1.94053 0.131839 0
M  V30 7987 C 747.578 -0.908199 3.48459 0
M  V30 7988 C 747.431 0.260914 4.49043 0
M  V30 7989 C 748.75 -1.77428 4.0275 0
M  V30 7990 H 745.869 -0.160807 0.719243 0
M  V30 7991 H 748.511 0.284006 1.87865 0
M  V30 7992 H 746.661 -1.53062 3.57077 0
M  V30 7993 H 748.333 0.898548 4.52464 0
M  V30 7994 H 746.576 0.912949 4.24085 0
M  V30 7995 H 747.247 -0.104657 5.51901 0
M  V30 7996 H 749.723 -1.24936 3.96901 0
M  V30 7997 H 748.599 -2.06633 5.08521 0
M  V30 7998 H 748.86 -2.72788 3.47907 0
M  V30 7999 N 747.919 -1.57396 -0.0801906 0
M  V30 8000 C 749.149 -1.90778 -0.792924 0
M  V30 8001 C 749.557 -0.786814 -1.72064 0
M  V30 8002 O 748.9 0.249259 -1.82001 0
M  V30 8003 C 748.962 -3.19552 -1.64702 0
M  V30 8004 C 748.626 -4.48259 -0.889567 0
M  V30 8005 C 749.623 -5.19465 -0.212602 0
M  V30 8006 C 747.308 -4.94896 -0.859229 0
M  V30 8007 C 749.302 -6.35555 0.484566 0
M  V30 8008 C 746.989 -6.10895 -0.158284 0
M  V30 8009 C 747.987 -6.81075 0.512421 0
M  V30 8010 O 747.675 -7.94862 1.20209 0
M  V30 8011 H 747.407 -0.63527 -0.231103 0
M  V30 8012 H 749.961 -2.0532 -0.0573081 0
M  V30 8013 H 748.191 -3.01196 -2.42524 0
M  V30 8014 H 749.88 -3.38649 -2.23767 0
M  V30 8015 H 750.646 -4.84467 -0.227403 0
M  V30 8016 H 746.525 -4.4015 -1.37073 0
M  V30 8017 H 750.069 -6.9027 1.00864 0
M  V30 8018 H 745.966 -6.45345 -0.141381 0
M  V30 8019 H 746.734 -8.10932 1.11051 0
M  V30 8020 N 749.397 0.351382 -1.53633 0
M  V30 8021 C 750.36 1.41403 -1.80383 0
M  V30 8022 C 751.36 1.45963 -0.674635 0
M  V30 8023 O 752.55 1.46476 -0.942895 0
M  V30 8024 C 749.682 2.80401 -1.93876 0
M  V30 8025 H 750.875 1.18951 -2.75301 0
M  V30 8026 H 748.428 0.58533 -1.44926 0
M  V30 8027 H 749.163 3.08147 -1.01074 0
M  V30 8028 H 748.948 2.78488 -2.7602 0
M  V30 8029 H 750.438 3.57329 -2.16116 0
M  V30 8030 N 750.875 1.45233 0.611969 0
M  V30 8031 C 751.823 1.53898 1.74408 0
M  V30 8032 C 752.817 0.409254 1.64382 0
M  V30 8033 O 754.023 0.584988 1.70229 0
M  V30 8034 H 750.398 0.483303 0.576127 0
M  V30 8035 H 752.369 2.49143 1.64227 0
M  V30 8036 C 751.118 1.51865 3.12782 0
M  V30 8037 H 750.441 2.38118 3.21154 0
M  V30 8038 H 751.881 1.61986 3.91838 0
M  V30 8039 C 750.34 0.242374 3.36027 0
M  V30 8040 O 750.87 -0.679587 3.9591 0
M  V30 8041 N 749.076 0.139448 2.90265 0
M  V30 8042 H 748.623 0.890571 2.41716 0
M  V30 8043 H 748.581 -0.713686 3.06193 0
M  V30 8044 N 752.353 -0.854086 1.3245 0
M  V30 8045 C 753.602 -1.60318 1.22397 0
M  V30 8046 C 753.915 -1.9444 -0.212664 0
M  V30 8047 O 755.121 -2.67991 -0.435066 0
M  V30 8048 C 753.577 -2.8909 2.1437 0
M  V30 8049 C 753.185 -2.62391 3.63119 0
M  V30 8050 C 754.929 -3.67104 2.13155 0
M  V30 8051 C 752.836 -3.87167 4.47052 0
M  V30 8052 H 751.766 -0.601586 0.454544 0
M  V30 8053 H 754.417 -0.943023 1.57415 0
M  V30 8054 H 752.799 -3.56567 1.72268 0
M  V30 8055 H 753.973 -2.03222 4.13567 0
M  V30 8056 H 752.288 -1.97706 3.66471 0
M  V30 8057 H 754.885 -4.59696 2.731 0
M  V30 8058 H 755.228 -4.00876 1.12268 0
M  V30 8059 H 755.761 -3.06533 2.5354 0
M  V30 8060 H 752.5 -3.58536 5.48755 0
M  V30 8061 H 752.02 -4.45729 4.01355 0
M  V30 8062 H 753.699 -4.549 4.60081 0
M  V30 8063 N 753.831 -1.1567 -1.07043 0
M  V30 8064 C 755.056 -0.957946 -1.83952 0
M  V30 8065 C 755.481 0.488807 -1.81638 0
M  V30 8066 O 754.839 1.34869 -1.21162 0
M  V30 8067 C 754.887 -1.48064 -3.288 0
M  V30 8068 O 753.991 -0.681921 -4.06723 0
M  V30 8069 H 753.332 -0.341453 -0.569479 0
M  V30 8070 H 755.862 -1.53728 -1.35015 0
M  V30 8071 H 755.872 -1.49484 -3.7963 0
M  V30 8072 H 754.547 -2.53388 -3.29799 0
M  V30 8073 H 753.124 -0.737612 -3.65532 0
M  V30 8074 N 755.309 1.25446 -0.953992 0
M  V30 8075 C 756.534 1.97755 -0.625129 0
M  V30 8076 C 756.959 1.70437 0.795787 0
M  V30 8077 O 756.317 0.95992 1.53803 0
M  V30 8078 C 756.365 3.49463 -0.889251 0
M  V30 8079 O 755.469 4.12387 0.0322757 0
M  V30 8080 H 754.81 0.61998 -0.237742 0
M  V30 8081 H 757.34 1.59582 -1.28041 0
M  V30 8082 H 757.35 3.99772 -0.815263 0
M  V30 8083 H 756.025 3.68676 -1.92487 0
M  V30 8084 H 754.602 3.72782 -0.0938625 0
M  V30 8085 N 756.787 0.722489 1.40064 0
M  V30 8086 C 758.017 0.274439 2.04769 0
M  V30 8087 C 758.425 -1.09125 1.54559 0
M  V30 8088 O 757.768 -1.69834 0.700149 0
M  V30 8089 C 757.83 0.184091 3.59028 0
M  V30 8090 C 757.494 1.48619 4.32159 0
M  V30 8091 C 758.491 2.42947 4.59644 0
M  V30 8092 C 756.176 1.74703 4.7094 0
M  V30 8093 C 758.17 3.616 5.24904 0
M  V30 8094 C 755.857 2.93636 5.3593 0
M  V30 8095 C 756.855 3.86907 5.62843 0
M  V30 8096 O 756.543 5.03753 6.26489 0
M  V30 8097 H 756.275 0.119847 0.665292 0
M  V30 8098 H 758.829 0.983352 1.80331 0
M  V30 8099 H 757.059 -0.580821 3.82313 0
M  V30 8100 H 758.748 -0.230306 4.05246 0
M  V30 8101 H 759.514 2.24062 4.30141 0
M  V30 8102 H 755.393 1.02955 4.49356 0
M  V30 8103 H 758.937 4.34418 5.45827 0
M  V30 8104 H 754.834 3.12428 5.64853 0
M  V30 8105 H 755.602 5.03922 6.44984 0
M  V30 8106 N 758.265 -1.50454 0.469181 0
M  V30 8107 C 759.213 -2.30101 -0.340033 0
M  V30 8108 C 760.207 -1.37306 -0.992135 0
M  V30 8109 O 761.413 -1.54506 -0.923458 0
M  V30 8110 H 757.788 -0.740941 -0.128495 0
M  V30 8111 H 759.759 -2.96315 0.352144 0
M  V30 8112 C 758.508 -3.17804 -1.41052 0
M  V30 8113 H 757.831 -3.89115 -0.918124 0
M  V30 8114 H 759.271 -3.76533 -1.94934 0
M  V30 8115 C 757.73 -2.35272 -2.4114 0
M  V30 8116 O 758.26 -2.03448 -3.4637 0
M  V30 8117 N 756.466 -1.97889 -2.1281 0
M  V30 8118 H 756.013 -2.2397 -1.27261 0
M  V30 8119 H 755.971 -1.42971 -2.80012 0
M  V30 8120 N 759.743 -0.201713 -1.56304 0
M  V30 8121 C 760.706 0.702811 -2.18159 0
M  V30 8122 C 761.706 1.13619 -1.13787 0
M  V30 8123 O 762.896 1.0482 -1.39134 0
M  V30 8124 C 760.028 1.96032 -2.78898 0
M  V30 8125 H 761.221 0.163836 -2.99452 0
M  V30 8126 H 758.774 0.04791 -1.56227 0
M  V30 8127 H 759.509 2.54165 -2.01421 0
M  V30 8128 H 759.294 1.65824 -3.55309 0
M  V30 8129 H 760.784 2.60519 -3.26373 0
M  V30 8130 N 761.222 1.57436 0.0718424 0
M  V30 8131 C 762.447 1.91858 0.787745 0
M  V30 8132 C 762.872 0.798119 1.70328 0
M  V30 8133 O 762.23 -0.24905 1.79581 0
M  V30 8134 C 762.278 3.25232 1.55744 0
M  V30 8135 O 761.382 3.14462 2.6681 0
M  V30 8136 H 760.723 0.628258 0.214914 0
M  V30 8137 H 763.253 2.04561 0.0401012 0
M  V30 8138 H 763.263 3.59105 1.9367 0
M  V30 8139 H 761.938 4.0636 0.885691 0
M  V30 8140 H 760.515 2.92148 2.31741 0
M  V30 8141 N 762.7 -0.34323 1.53817 0
M  V30 8142 C 763.928 -1.10348 1.75017 0
M  V30 8143 C 764.343 -1.82345 0.489475 0
M  V30 8144 O 763.7 -1.74362 -0.538886 0
M  V30 8145 C 763.751 -2.11672 2.93048 0
M  V30 8146 O 763.472 -1.42603 4.14241 0
M  V30 8147 C 764.973 -3.0007 3.26301 0
M  V30 8148 H 762.193 -0.329056 0.584776 0
M  V30 8149 H 764.737 -0.395339 2.00642 0
M  V30 8150 H 762.892 -2.78051 2.69753 0
M  V30 8151 H 763.306 -2.10294 4.80496 0
M  V30 8152 H 764.78 -3.67101 4.12239 0
M  V30 8153 H 765.257 -3.66105 2.42618 0
M  V30 8154 H 765.863 -2.3928 3.51604 0
M  V30 8155 N 764.178 -1.45556 -0.604258 0
M  V30 8156 C 765.408 -1.53056 -1.38771 0
M  V30 8157 C 765.816 -0.163092 -1.88496 0
M  V30 8158 O 765.159 0.846157 -1.63052 0
M  V30 8159 C 765.221 -2.45656 -2.62476 0
M  V30 8160 C 764.885 -3.92328 -2.34367 0
M  V30 8161 C 765.882 -4.82137 -1.94525 0
M  V30 8162 C 763.567 -4.37275 -2.47177 0
M  V30 8163 C 765.561 -6.14901 -1.67856 0
M  V30 8164 C 763.248 -5.70079 -2.20122 0
M  V30 8165 C 764.246 -6.58711 -1.80524 0
M  V30 8166 O 763.934 -7.89053 -1.53788 0
M  V30 8167 H 763.666 -0.520721 -0.431075 0
M  V30 8168 H 766.22 -1.91464 -0.743693 0
M  V30 8169 H 764.45 -2.02225 -3.29609 0
M  V30 8170 H 766.139 -2.43802 -3.24523 0
M  V30 8171 H 766.905 -4.48675 -1.84162 0
M  V30 8172 H 762.784 -3.68527 -2.76964 0
M  V30 8173 H 766.328 -6.8404 -1.36874 0
M  V30 8174 H 762.225 -6.03095 -2.30102 0
M  V30 8175 H 762.993 -8.01113 -1.67812 0
M  V30 8176 N 765.656 0.84705 -1.32902 0
M  V30 8177 C 766.588 1.96308 -1.18304 0
M  V30 8178 C 767.601 1.62386 -0.116082 0
M  V30 8179 O 768.79 1.74713 -0.365751 0
M  V30 8180 C 765.89 3.29556 -0.790305 0
M  V30 8181 C 765.063 3.91668 -1.94717 0
M  V30 8182 C 764.122 5.0326 -1.53674 0
M  V30 8183 O 763.148 5.22847 -2.24989 0
M  V30 8184 N 764.35 5.78852 -0.437075 0
M  V30 8185 H 767.115 2.09369 -2.14441 0
M  V30 8186 H 764.676 1.02233 -1.25539 0
M  V30 8187 H 766.668 4.01624 -0.49799 0
M  V30 8188 H 765.238 3.12497 0.0801286 0
M  V30 8189 H 764.458 3.12292 -2.40557 0
M  V30 8190 H 765.746 4.299 -2.72146 0
M  V30 8191 H 765.144 5.65484 0.156316 0
M  V30 8192 H 763.701 6.51479 -0.204399 0
M  V30 8193 N 767.134 1.16236 1.06428 0
M  V30 8194 C 768.381 0.943034 1.79201 0
M  V30 8195 C 768.709 -0.529243 1.87161 0
M  V30 8196 O 767.964 -1.40874 1.35842 0
M  V30 8197 C 768.263 1.51396 3.2375 0
M  V30 8198 C 767.929 3.00833 3.35873 0
M  V30 8199 C 766.591 3.41626 3.38888 0
M  V30 8200 C 768.943 3.96825 3.37904 0
M  V30 8201 C 766.271 4.77033 3.4155 0
M  V30 8202 C 768.623 5.32116 3.42104 0
M  V30 8203 C 767.287 5.72392 3.43401 0
M  V30 8204 H 766.557 0.34508 0.655744 0
M  V30 8205 H 769.204 1.44929 1.25171 0
M  V30 8206 H 767.509 0.929114 3.80624 0
M  V30 8207 H 769.206 1.31996 3.78653 0
M  V30 8208 H 765.796 2.68306 3.3423 0
M  V30 8209 H 769.98 3.66376 3.34787 0
M  V30 8210 H 765.236 5.07569 3.40858 0
M  V30 8211 H 769.41 6.06286 3.42623 0
M  V30 8212 H 767.037 6.77296 3.45216 0
M  V30 8213 N 768.612 -1.24939 0.960631 0
M  V30 8214 C 769.859 -1.92818 0.618663 0
M  V30 8215 C 770.187 -1.75177 -0.845173 0
M  V30 8216 O 769.442 -1.09412 -1.62258 0
M  V30 8217 C 769.741 -3.45066 0.930809 0
M  V30 8218 C 769.407 -3.82869 2.38164 0
M  V30 8219 C 768.069 -3.92899 2.7782 0
M  V30 8220 C 770.421 -4.01483 3.32356 0
M  V30 8221 C 767.749 -4.18955 4.10723 0
M  V30 8222 C 770.101 -4.29033 4.6488 0
M  V30 8223 C 768.765 -4.37282 5.04322 0
M  V30 8224 H 768.035 -0.705571 0.226385 0
M  V30 8225 H 770.682 -1.48365 1.21079 0
M  V30 8226 H 768.987 -3.9096 0.256355 0
M  V30 8227 H 770.684 -3.95783 0.644712 0
M  V30 8228 H 767.274 -3.75622 2.06413 0
M  V30 8229 H 771.458 -3.93143 3.02907 0
M  V30 8230 H 766.714 -4.23558 4.40918 0
M  V30 8231 H 770.888 -4.42381 5.3784 0
M  V30 8232 H 768.515 -4.57225 6.0733 0
M  V30 8233 N 770.09 -0.729906 -1.39679 0
M  V30 8234 C 771.501 -0.346241 -1.83461 0
M  V30 8235 C 771.852 1.1215 -1.60987 0
M  V30 8236 O 770.977 1.86456 -1.09832 0
M  V30 8237 C 771.572 -0.621656 -3.33048 0
M  V30 8238 C 770.131 -0.291543 -3.75269 0
M  V30 8239 C 769.278 -0.886844 -2.62736 0
M  V30 8240 H 772.229 -0.927949 -1.28743 0
M  V30 8241 H 772.25 0.108301 -3.80346 0
M  V30 8242 H 771.762 -1.68996 -3.49373 0
M  V30 8243 H 769.863 0.771133 -3.64533 0
M  V30 8244 H 769.976 -0.770544 -4.72863 0
M  V30 8245 H 768.34 -0.313839 -2.52759 0
M  V30 8246 H 769.123 -1.95971 -2.81869 0
M  V30 8247 N 771.568 1.50203 -0.477153 0
M  V30 8248 C 772.793 2.07263 0.0754986 0
M  V30 8249 C 773.218 1.33801 1.32208 0
M  V30 8250 O 772.576 0.387482 1.77111 0
M  V30 8251 C 772.624 3.59028 0.336348 0
M  V30 8252 O 771.728 3.87339 1.4157 0
M  V30 8253 H 771.069 0.663815 -0.015662 0
M  V30 8254 H 773.599 1.93321 -0.669936 0
M  V30 8255 H 773.609 4.03927 0.575034 0
M  V30 8256 H 772.284 4.11912 -0.574551 0
M  V30 8257 H 770.861 3.54272 1.16385 0
M  V30 8258 N 773.046 0.209999 1.56195 0
M  V30 8259 C 774.294 -0.423974 1.97603 0
M  V30 8260 C 774.615 -1.61112 1.09854 0
M  V30 8261 O 773.885 -1.95134 0.173032 0
M  V30 8262 H 772.465 -0.159629 0.729745 0
M  V30 8263 H 775.127 0.300205 1.92574 0
M  V30 8264 H 774.223 -0.75809 3.02753 0
M  V30 8265 N 774.524 -1.57472 -0.0634922 0
M  V30 8266 C 775.773 -1.86837 -0.759928 0
M  V30 8267 C 776.086 -0.803823 -1.7832 0
M  V30 8268 O 777.292 -0.985578 -2.52979 0
M  V30 8269 C 775.748 -3.31448 -1.4025 0
M  V30 8270 C 775.356 -4.46052 -0.417368 0
M  V30 8271 C 777.1 -3.70003 -2.08082 0
M  V30 8272 C 775.007 -5.81707 -1.06633 0
M  V30 8273 H 773.937 -0.697009 -0.287567 0
M  V30 8274 H 776.588 -1.83495 -0.0133914 0
M  V30 8275 H 774.97 -3.29427 -2.19759 0
M  V30 8276 H 776.144 -4.5948 0.348503 0
M  V30 8277 H 774.459 -4.16104 0.156955 0
M  V30 8278 H 777.056 -4.68653 -2.57426 0
M  V30 8279 H 777.399 -3.00226 -2.88393 0
M  V30 8280 H 777.932 -3.7405 -1.35394 0
M  V30 8281 H 774.671 -6.54798 -0.303374 0
M  V30 8282 H 774.191 -5.72064 -1.80286 0
M  V30 8283 H 775.87 -6.27317 -1.58376 0
M  V30 8284 N 776.003 0.335068 -1.53997 0
M  V30 8285 C 776.95 1.41187 -1.82579 0
M  V30 8286 C 777.92 1.51897 -0.672061 0
M  V30 8287 O 779.105 1.673 -0.917346 0
M  V30 8288 C 776.245 2.77717 -2.0486 0
M  V30 8289 C 775.358 2.7573 -3.32561 0
M  V30 8290 C 774.493 4.04032 -3.44864 0
M  V30 8291 C 773.532 3.96308 -4.66483 0
M  V30 8292 N 772.669 5.16317 -4.75774 0
M  V30 8293 H 777.509 1.16113 -2.74448 0
M  V30 8294 H 775.046 0.562305 -1.35928 0
M  V30 8295 H 777.004 3.57071 -2.15768 0
M  V30 8296 H 775.634 3.01124 -1.16294 0
M  V30 8297 H 774.686 1.88432 -3.3045 0
M  V30 8298 H 775.998 2.65902 -4.22016 0
M  V30 8299 H 775.152 4.91814 -3.55251 0
M  V30 8300 H 773.891 4.16652 -2.53481 0
M  V30 8301 H 772.896 3.06911 -4.56164 0
M  V30 8302 H 774.121 3.85263 -5.5924 0
M  V30 8303 H 772.067 5.29464 -3.87303 0
M  V30 8304 H 771.984 5.08779 -5.59178 0
M  V30 8305 H 773.252 6.05846 -4.9048 0
M  V30 8306 N 777.481 1.45874 0.596531 0
M  V30 8307 C 778.729 1.5017 1.35253 0
M  V30 8308 C 779.05 0.149246 1.94428 0
M  V30 8309 O 778.32 -0.82268 1.77789 0
M  V30 8310 H 776.9 0.553052 0.502138 0
M  V30 8311 H 779.562 1.81908 0.699671 0
M  V30 8312 H 778.658 2.24671 2.16632 0
M  V30 8313 N 778.959 -0.83999 1.33349 0
M  V30 8314 C 780.206 -1.59517 1.24742 0
M  V30 8315 C 780.534 -1.93598 -0.187077 0
M  V30 8316 O 779.789 -1.58782 -1.14398 0
M  V30 8317 C 780.088 -2.91571 2.06691 0
M  V30 8318 C 779.754 -2.76856 3.55895 0
M  V30 8319 C 778.416 -2.72551 3.96572 0
M  V30 8320 C 780.768 -2.61741 4.50712 0
M  V30 8321 C 778.096 -2.51028 5.30285 0
M  V30 8322 C 780.448 -2.41752 5.84584 0
M  V30 8323 C 779.112 -2.35848 6.24445 0
M  V30 8324 H 778.382 -0.583714 0.456463 0
M  V30 8325 H 781.029 -0.973261 1.64924 0
M  V30 8326 H 779.334 -3.57961 1.59284 0
M  V30 8327 H 781.031 -3.49053 1.9739 0
M  V30 8328 H 777.621 -2.81039 3.23597 0
M  V30 8329 H 781.805 -2.64102 4.20195 0
M  V30 8330 H 777.061 -2.44903 5.60208 0
M  V30 8331 H 781.235 -2.2904 6.57658 0
M  V30 8332 H 778.862 -2.18931 7.27993 0
M  V30 8333 N 780.437 -1.16799 -1.0581 0
M  V30 8334 C 781.665 -0.97687 -1.82387 0
M  V30 8335 C 782.08 0.474917 -1.82729 0
M  V30 8336 O 781.437 1.3297 -1.25001 0
M  V30 8337 C 781.488 -1.50279 -3.28783 0
M  V30 8338 O 781.209 -2.89772 -3.28578 0
M  V30 8339 C 782.71 -1.35538 -4.22071 0
M  V30 8340 H 779.93 -0.345977 -0.574927 0
M  V30 8341 H 782.474 -1.54942 -1.33466 0
M  V30 8342 H 780.629 -0.972414 -3.74997 0
M  V30 8343 H 781.043 -3.13954 -4.20159 0
M  V30 8344 H 782.517 -1.7716 -5.22799 0
M  V30 8345 H 782.994 -0.301598 -4.38163 0
M  V30 8346 H 783.6 -1.87562 -3.81708 0
M  V30 8347 N 781.915 1.24427 -0.967243 0
M  V30 8348 C 783.164 1.91789 -0.624478 0
M  V30 8349 C 783.477 1.76448 0.844129 0
M  V30 8350 O 784.683 2.38495 1.2974 0
M  V30 8351 C 783.139 3.43743 -1.06626 0
M  V30 8352 C 782.747 3.67771 -2.55829 0
M  V30 8353 C 784.491 4.16958 -0.79662 0
M  V30 8354 C 782.398 5.13293 -2.93742 0
M  V30 8355 H 781.328 0.71811 -0.229856 0
M  V30 8356 H 783.979 1.41081 -1.17339 0
M  V30 8357 H 782.361 3.93484 -0.445663 0
M  V30 8358 H 783.535 3.28631 -3.23015 0
M  V30 8359 H 781.85 3.07841 -2.80398 0
M  V30 8360 H 784.447 5.24171 -1.05589 0
M  V30 8361 H 784.79 4.15442 0.267163 0
M  V30 8362 H 785.323 3.73164 -1.37816 0
M  V30 8363 H 782.062 5.19931 -3.9919 0
M  V30 8364 H 781.582 5.53433 -2.3124 0
M  V30 8365 H 783.261 5.81521 -2.83623 0
M  V30 8366 N 783.393 0.737304 1.3929 0
M  V30 8367 C 784.618 0.295237 2.05288 0
M  V30 8368 C 785.043 -1.06235 1.55228 0
M  V30 8369 O 784.401 -1.67365 0.697043 0
M  V30 8370 C 784.449 0.309146 3.59272 0
M  V30 8371 O 783.553 -0.702437 4.06374 0
M  V30 8372 H 782.894 0.133762 0.650387 0
M  V30 8373 H 785.424 1.00387 1.78279 0
M  V30 8374 H 785.434 0.154336 4.07708 0
M  V30 8375 H 784.109 1.29974 3.95069 0
M  V30 8376 H 782.686 -0.513574 3.69346 0
M  V30 8377 N 784.871 -1.49948 0.485112 0
M  V30 8378 C 786.096 -2.073 -0.0645059 0
M  V30 8379 C 786.521 -1.345 -1.31497 0
M  V30 8380 O 785.879 -0.39687 -1.76903 0
M  V30 8381 C 785.927 -3.59201 -0.317304 0
M  V30 8382 O 785.031 -3.88085 -1.39514 0
M  V30 8383 H 784.372 -0.663723 0.0191822 0
M  V30 8384 H 786.902 -1.92963 0.680179 0
M  V30 8385 H 786.912 -4.04227 -0.553604 0
M  V30 8386 H 785.587 -4.11602 0.596387 0
M  V30 8387 H 784.164 -3.54885 -1.14504 0
M  V30 8388 N 786.349 -0.21828 -1.56081 0
M  V30 8389 C 787.577 0.419258 -2.02608 0
M  V30 8390 C 787.992 1.53578 -1.09814 0
M  V30 8391 O 787.349 1.82185 -0.107149 0
M  V30 8392 C 787.4 0.953955 -3.48686 0
M  V30 8393 O 787.121 -0.11805 -4.37941 0
M  V30 8394 C 788.622 1.66506 -4.10841 0
M  V30 8395 H 785.842 0.10296 -0.663054 0
M  V30 8396 H 788.386 -0.333776 -2.01758 0
M  V30 8397 H 786.541 1.65727 -3.50162 0
M  V30 8398 H 786.955 0.283359 -5.23734 0
M  V30 8399 H 788.429 1.99123 -5.14834 0
M  V30 8400 H 788.906 2.57705 -3.55647 0
M  V30 8401 H 789.512 1.00703 -4.13206 0
M  V30 8402 N 787.827 1.57504 0.0551401 0
M  V30 8403 C 788.737 2.08198 1.08124 0
M  V30 8404 C 789.753 1.01496 1.41331 0
M  V30 8405 O 790.929 1.33073 1.51174 0
M  V30 8406 C 787.994 2.52968 2.37083 0
M  V30 8407 C 787.055 3.7404 2.10696 0
M  V30 8408 C 786.288 4.16665 3.33505 0
M  V30 8409 O 786.511 3.59019 4.4324 0
M  V30 8410 O 785.445 5.09324 3.20737 0
M  V30 8411 H 789.271 2.95977 0.680518 0
M  V30 8412 H 786.856 1.46933 0.270401 0
M  V30 8413 H 788.738 2.82211 3.12946 0
M  V30 8414 H 787.413 1.6831 2.76502 0
M  V30 8415 H 786.32 3.49855 1.32484 0
M  V30 8416 H 787.653 4.59601 1.76148 0
M  V30 8417 N 789.305 -0.326896 1.54172 0
M  V30 8418 C 790.554 -1.06274 1.71431 0
M  V30 8419 C 790.867 -1.89282 0.493123 0
M  V30 8420 O 792.073 -2.65933 0.54699 0
M  V30 8421 C 790.529 -1.93892 3.03206 0
M  V30 8422 C 790.137 -1.16011 4.32719 0
M  V30 8423 C 791.881 -2.67232 3.29829 0
M  V30 8424 C 789.788 -2.02755 5.55558 0
M  V30 8425 H 788.718 -0.400475 0.638855 0
M  V30 8426 H 791.369 -0.321184 1.80667 0
M  V30 8427 H 789.751 -2.71933 2.87869 0
M  V30 8428 H 790.925 -0.427643 4.58811 0
M  V30 8429 H 789.24 -0.54367 4.12836 0
M  V30 8430 H 791.837 -3.32434 4.18798 0
M  V30 8431 H 792.18 -3.34692 2.47562 0
M  V30 8432 H 792.713 -1.96255 3.46018 0
M  V30 8433 H 789.452 -1.3981 6.40417 0
M  V30 8434 H 788.972 -2.73745 5.33689 0
M  V30 8435 H 790.651 -2.61419 5.91835 0
M  V30 8436 N 790.784 -1.46188 -0.588786 0
M  V30 8437 C 792.195 -1.45421 -1.17088 0
M  V30 8438 C 792.546 -0.191801 -1.9526 0
M  V30 8439 O 791.671 0.705497 -2.04577 0
M  V30 8440 C 792.266 -2.63467 -2.13004 0
M  V30 8441 C 790.825 -2.6576 -2.6655 0
M  V30 8442 C 789.972 -2.38002 -1.42304 0
M  V30 8443 H 792.923 -1.54156 -0.377052 0
M  V30 8444 H 792.944 -2.38638 -2.96365 0
M  V30 8445 H 792.456 -3.55331 -1.56081 0
M  V30 8446 H 790.557 -1.77952 -3.27359 0
M  V30 8447 H 790.67 -3.65545 -3.09699 0
M  V30 8448 H 789.034 -1.87936 -1.71907 0
M  V30 8449 H 789.817 -3.32035 -0.872209 0
M  V30 8450 N 792.262 0.832906 -1.33792 0
M  V30 8451 C 793.673 1.40489 -1.22963 0
M  V30 8452 C 794.024 1.95633 0.149026 0
M  V30 8453 O 793.149 1.8928 1.04891 0
M  V30 8454 C 793.744 2.55387 -2.22627 0
M  V30 8455 C 792.303 3.08522 -2.15618 0
M  V30 8456 C 791.45 1.81347 -2.09782 0
M  V30 8457 H 794.401 0.638156 -1.45304 0
M  V30 8458 H 794.422 3.33193 -1.83746 0
M  V30 8459 H 793.934 2.15222 -3.22957 0
M  V30 8460 H 792.035 3.53217 -1.18611 0
M  V30 8461 H 792.148 3.6829 -3.0643 0
M  V30 8462 H 790.512 2.01839 -1.55349 0
M  V30 8463 H 791.295 1.43369 -3.1193 0
M  V30 8464 N 793.74 1.17359 1.05189 0
M  V30 8465 C 794.672 0.848078 2.12933 0
M  V30 8466 C 795.685 -0.149521 1.62112 0
M  V30 8467 O 796.874 0.0767797 1.78335 0
M  V30 8468 C 793.974 0.243889 3.38021 0
M  V30 8469 C 793.147 1.28436 4.18118 0
M  V30 8470 C 792.206 0.697926 5.21551 0
M  V30 8471 O 791.232 1.36973 5.52473 0
M  V30 8472 N 792.434 -0.510024 5.78255 0
M  V30 8473 H 795.199 1.7754 2.41453 0
M  V30 8474 H 792.76 1.07244 1.21286 0
M  V30 8475 H 794.752 -0.161727 4.04377 0
M  V30 8476 H 793.322 -0.58722 3.07035 0
M  V30 8477 H 792.542 1.86573 3.47252 0
M  V30 8478 H 793.83 1.98617 4.68432 0
M  V30 8479 H 793.228 -1.07378 5.55416 0
M  V30 8480 H 791.785 -0.857705 6.46132 0
M  V30 8481 N 795.218 -1.23913 0.973828 0
M  V30 8482 C 796.458 -1.93889 0.647015 0
M  V30 8483 C 796.822 -1.74368 -0.803735 0
M  V30 8484 O 798.023 -2.38435 -1.24106 0
M  V30 8485 C 796.294 -3.4257 1.01885 0
M  V30 8486 S 797.853 -4.31306 0.807517 0
M  V30 8487 H 794.671 -0.670279 0.237165 0
M  V30 8488 H 797.273 -1.50144 1.25208 0
M  V30 8489 H 795.977 -3.54286 2.07146 0
M  V30 8490 H 795.508 -3.91312 0.404812 0
M  V30 8491 H 797.523 -4.95218 -0.311986 0
M  V30 8492 N 796.696 -0.74468 -1.38897 0
M  V30 8493 C 797.628 -0.0713608 -2.29089 0
M  V30 8494 C 798.641 0.693224 -1.47303 0
M  V30 8495 O 799.83 0.535785 -1.70269 0
M  V30 8496 C 796.93 0.923078 -3.26087 0
M  V30 8497 C 796.103 0.217998 -4.36856 0
M  V30 8498 C 795.162 1.12192 -5.14101 0
M  V30 8499 O 794.188 0.595771 -5.66073 0
M  V30 8500 N 795.39 2.45082 -5.26227 0
M  V30 8501 H 798.155 -0.845906 -2.87514 0
M  V30 8502 H 795.716 -0.594712 -1.50581 0
M  V30 8503 H 797.708 1.53061 -3.74639 0
M  V30 8504 H 796.278 1.59876 -2.68623 0
M  V30 8505 H 795.498 -0.570134 -3.90055 0
M  V30 8506 H 796.786 -0.270248 -5.08082 0
M  V30 8507 H 796.184 2.90294 -4.85537 0
M  V30 8508 H 794.741 3.00907 -5.78185 0
M  V30 8509 N 798.174 1.49689 -0.493057 0
M  V30 8510 C 799.585 1.8665 -0.0433032 0
M  V30 8511 C 799.936 1.40607 1.36836 0
M  V30 8512 O 799.061 0.780503 2.01834 0
M  V30 8513 C 799.656 3.38724 -0.0718069 0
M  V30 8514 C 798.215 3.75015 0.32257 0
M  V30 8515 C 797.362 2.7366 -0.4478 0
M  V30 8516 H 800.313 1.42119 -0.706246 0
M  V30 8517 H 800.334 3.73522 0.725347 0
M  V30 8518 H 799.846 3.72204 -1.09935 0
M  V30 8519 H 797.947 3.47142 1.35364 0
M  V30 8520 H 798.06 4.79099 0.00864259 0
M  V30 8521 H 796.424 2.54498 0.101354 0
M  V30 8522 H 797.207 3.09985 -1.47527 0
M  V30 8523 N 799.652 0.226554 1.55963 0
M  V30 8524 C 800.6 -0.697922 2.21882 0
M  V30 8525 C 801.594 -1.19586 1.19981 0
M  V30 8526 O 802.8 -1.15511 1.38048 0
M  V30 8527 H 799.175 -0.243501 0.711485 0
M  V30 8528 H 801.146 -0.118576 2.98164 0
M  V30 8529 C 799.895 -1.89309 2.91646 0
M  V30 8530 H 799.218 -1.51906 3.69817 0
M  V30 8531 H 800.658 -2.51762 3.41162 0
M  V30 8532 C 799.117 -2.75162 1.94391 0
M  V30 8533 O 799.647 -3.74071 1.46402 0
M  V30 8534 N 797.853 -2.41302 1.61932 0
M  V30 8535 H 797.4 -1.60923 2.01151 0
M  V30 8536 H 797.358 -2.99023 0.971219 0
M  V30 8537 N 801.13 -1.57531 -0.0467866 0
M  V30 8538 C 802.377 -1.88451 -0.74112 0
M  V30 8539 C 802.705 -0.821592 -1.76296 0
M  V30 8540 O 801.96 0.179585 -1.94874 0
M  V30 8541 C 802.259 -3.26091 -1.46285 0
M  V30 8542 C 801.925 -4.47171 -0.578669 0
M  V30 8543 C 800.587 -4.80032 -0.335083 0
M  V30 8544 C 802.939 -5.2119 0.0328809 0
M  V30 8545 C 800.267 -5.84309 0.529121 0
M  V30 8546 C 802.619 -6.26383 0.884684 0
M  V30 8547 C 801.283 -6.57729 1.1379 0
M  V30 8548 H 800.553 -0.68959 -0.271195 0
M  V30 8549 H 803.2 -1.915 -0.00132378 0
M  V30 8550 H 801.505 -3.18948 -2.27551 0
M  V30 8551 H 803.202 -3.47258 -2.00532 0
M  V30 8552 H 799.792 -4.21467 -0.778666 0
M  V30 8553 H 803.976 -4.96096 -0.142375 0
M  V30 8554 H 799.232 -6.06981 0.733794 0
M  V30 8555 H 803.406 -6.82888 1.36516 0
M  V30 8556 H 801.033 -7.38355 1.80929 0
M  V30 8557 N 802.608 0.318715 -1.54344 0
M  V30 8558 C 803.556 1.41254 -1.84798 0
M  V30 8559 C 804.55 1.53325 -0.720256 0
M  V30 8560 O 805.756 1.55653 -0.903992 0
M  V30 8561 H 802.131 0.471468 -0.585851 0
M  V30 8562 H 804.102 1.12795 -2.7626 0
M  V30 8563 C 802.851 2.77395 -2.09637 0
M  V30 8564 H 802.174 2.68881 -2.95876 0
M  V30 8565 H 803.614 3.52987 -2.34896 0
M  V30 8566 C 802.073 3.24948 -0.889398 0
M  V30 8567 O 802.603 4.01573 -0.101063 0
M  V30 8568 N 800.809 2.82051 -0.699684 0
M  V30 8569 H 800.356 2.19858 -1.3424 0
M  V30 8570 H 800.314 3.1422 0.106368 0
M  V30 8571 N 804.086 1.46499 0.581025 0
M  V30 8572 C 805.314 1.5547 1.36517 0
M  V30 8573 C 805.729 0.196407 1.87776 0
M  V30 8574 O 805.086 -0.806577 1.63709 0
M  V30 8575 C 805.137 2.56084 2.55154 0
M  V30 8576 O 804.858 3.86637 2.06018 0
M  V30 8577 C 806.359 2.75011 3.47683 0
M  V30 8578 H 803.579 0.525703 0.416986 0
M  V30 8579 H 806.123 1.9192 0.706177 0
M  V30 8580 H 804.278 2.22633 3.17039 0
M  V30 8581 H 804.692 4.41413 2.83292 0
M  V30 8582 H 806.166 3.49329 4.27403 0
M  V30 8583 H 806.643 1.81978 3.99726 0
M  V30 8584 H 807.249 3.09565 2.91632 0
M  V30 8585 N 805.565 -0.825799 1.34232 0
M  V30 8586 C 806.812 -1.58185 1.26427 0
M  V30 8587 C 807.14 -1.93786 -0.166533 0
M  V30 8588 O 806.395 -1.59986 -1.12707 0
M  V30 8589 C 806.694 -2.89362 2.09772 0
M  V30 8590 C 806.36 -2.73066 3.58812 0
M  V30 8591 C 805.022 -2.68329 3.99441 0
M  V30 8592 C 807.374 -2.56946 4.53462 0
M  V30 8593 C 804.702 -2.4539 5.32917 0
M  V30 8594 C 807.054 -2.35538 5.87115 0
M  V30 8595 C 805.718 -2.29212 6.26912 0
M  V30 8596 H 804.988 -0.57884 0.462629 0
M  V30 8597 H 807.635 -0.955714 1.65947 0
M  V30 8598 H 805.94 -3.56251 1.63071 0
M  V30 8599 H 807.637 -3.4694 2.01081 0
M  V30 8600 H 804.227 -2.77591 3.26559 0
M  V30 8601 H 808.411 -2.59631 4.22972 0
M  V30 8602 H 803.667 -2.38947 5.62774 0
M  V30 8603 H 807.841 -2.22051 6.6005 0
M  V30 8604 H 805.468 -2.11197 7.30274 0
M  V30 8605 N 807.043 -1.17915 -1.04565 0
M  V30 8606 C 808.273 -0.994716 -1.81077 0
M  V30 8607 C 808.681 0.460146 -1.83519 0
M  V30 8608 O 808.024 1.33136 -1.26572 0
M  V30 8609 C 808.086 -1.46698 -3.28207 0
M  V30 8610 C 807.75 -2.94523 -3.49436 0
M  V30 8611 C 808.747 -3.92414 -3.41038 0
M  V30 8612 C 806.432 -3.32841 -3.76194 0
M  V30 8613 C 808.426 -5.2662 -3.59096 0
M  V30 8614 C 806.113 -4.67212 -3.93899 0
M  V30 8615 C 807.111 -5.6391 -3.8535 0
M  V30 8616 O 806.799 -6.95849 -4.02554 0
M  V30 8617 H 806.531 -0.351797 -0.577248 0
M  V30 8618 H 809.085 -1.56772 -1.32709 0
M  V30 8619 H 807.315 -0.837592 -3.7752 0
M  V30 8620 H 809.004 -1.24724 -3.86263 0
M  V30 8621 H 809.77 -3.64157 -3.20336 0
M  V30 8622 H 805.649 -2.58139 -3.81949 0
M  V30 8623 H 809.193 -6.02082 -3.52339 0
M  V30 8624 H 805.09 -4.95172 -4.14095 0
M  V30 8625 H 805.858 -7.02679 -4.19743 0
M  V30 8626 N 808.521 1.23394 -0.980386 0
M  V30 8627 C 809.451 2.2717 -0.540024 0
M  V30 8628 C 810.432 1.64659 0.426787 0
M  V30 8629 O 811.617 1.91543 0.320153 0
M  V30 8630 C 808.747 3.46939 0.15836 0
M  V30 8631 C 807.701 4.21802 -0.725732 0
M  V30 8632 C 807.027 5.34597 0.104866 0
M  V30 8633 C 808.327 4.81802 -2.01654 0
M  V30 8634 H 810.021 2.64257 -1.40743 0
M  V30 8635 H 807.567 1.2703 -0.678193 0
M  V30 8636 H 809.52 4.18683 0.477737 0
M  V30 8637 H 808.244 3.08912 1.06022 0
M  V30 8638 H 806.903 3.51875 -1.02857 0
M  V30 8639 H 806.551 4.92812 1.00726 0
M  V30 8640 H 806.251 5.85607 -0.483557 0
M  V30 8641 H 807.775 6.09163 0.418624 0
M  V30 8642 H 809.189 5.45554 -1.76193 0
M  V30 8643 H 807.586 5.43098 -2.55273 0
M  V30 8644 H 808.656 4.02549 -2.70338 0
M  V30 8645 N 809.999 0.752036 1.385 0
M  V30 8646 C 810.909 0.125318 2.34265 0
M  V30 8647 C 811.925 -0.702437 1.59191 0
M  V30 8648 O 813.101 -0.626951 1.91393 0
M  V30 8649 C 810.166 -0.758486 3.38301 0
M  V30 8650 C 809.227 0.0834636 4.29219 0
M  V30 8651 C 808.46 -0.758252 5.28286 0
M  V30 8652 O 808.683 -1.99632 5.34325 0
M  V30 8653 O 807.617 -0.177878 6.01637 0
M  V30 8654 H 811.443 0.91617 2.89551 0
M  V30 8655 H 809.028 0.512911 1.4032 0
M  V30 8656 H 810.91 -1.26365 4.02007 0
M  V30 8657 H 809.585 -1.52786 2.85374 0
M  V30 8658 H 808.492 0.634545 3.68679 0
M  V30 8659 H 809.825 0.815455 4.85398 0
M  V30 8660 N 811.477 -1.49425 0.500989 0
M  V30 8661 C 812.724 -2.02453 -0.0435355 0
M  V30 8662 C 813.052 -1.38067 -1.36995 0
M  V30 8663 O 812.307 -0.505557 -1.89057 0
M  V30 8664 C 812.606 -3.56562 -0.24463 0
M  V30 8665 C 812.272 -4.39585 1.00379 0
M  V30 8666 C 810.934 -4.61992 1.346 0
M  V30 8667 C 813.286 -4.87881 1.83361 0
M  V30 8668 C 810.614 -5.2994 2.51755 0
M  V30 8669 C 812.966 -5.57119 2.99669 0
M  V30 8670 C 811.63 -5.77771 3.3427 0
M  V30 8671 H 810.9 -0.740829 -0.0159308 0
M  V30 8672 H 813.547 -1.79725 0.661143 0
M  V30 8673 H 811.852 -3.77969 -1.03183 0
M  V30 8674 H 813.549 -3.95185 -0.6804 0
M  V30 8675 H 810.139 -4.22385 0.727225 0
M  V30 8676 H 814.323 -4.70398 1.58237 0
M  V30 8677 H 809.579 -5.44133 2.788 0
M  V30 8678 H 813.753 -5.93516 3.64296 0
M  V30 8679 H 811.38 -6.30197 4.25154 0
M  V30 8680 N 812.955 -0.234822 -1.55841 0
M  V30 8681 C 814.203 0.392483 -1.98252 0
M  V30 8682 C 814.524 1.59344 -1.12404 0
M  V30 8683 O 813.794 1.94834 -0.204055 0
M  V30 8684 H 812.374 0.147999 -0.732192 0
M  V30 8685 H 815.036 -0.330804 -1.92072 0
M  V30 8686 H 814.132 0.709829 -3.03921 0
M  V30 8687 N 814.433 1.57553 0.0384317 0
M  V30 8688 C 815.658 1.93485 0.746872 0
M  V30 8689 C 816.083 0.834069 1.68597 0
M  V30 8690 O 815.441 -0.210902 1.80069 0
M  V30 8691 C 815.489 3.28463 1.4881 0
M  V30 8692 O 814.593 3.20051 2.60079 0
M  V30 8693 H 813.934 0.632675 0.201539 0
M  V30 8694 H 816.464 2.046 -0.00329815 0
M  V30 8695 H 816.474 3.63132 1.86009 0
M  V30 8696 H 815.149 4.08147 0.799297 0
M  V30 8697 H 813.726 2.96998 2.25492 0
M  V30 8698 N 815.911 -0.310526 1.54511 0
M  V30 8699 C 816.874 -1.3657 1.84068 0
M  V30 8700 C 817.874 -1.44123 0.713097 0
M  V30 8701 O 819.064 -1.43924 0.981399 0
M  V30 8702 C 816.196 -2.75162 2.01243 0
M  V30 8703 H 817.389 -1.1161 2.78358 0
M  V30 8704 H 814.942 -0.546699 1.46427 0
M  V30 8705 H 815.677 -3.05359 1.09208 0
M  V30 8706 H 815.462 -2.71071 2.83307 0
M  V30 8707 H 816.952 -3.51473 2.25514 0
M  V30 8708 N 817.389 -1.46805 -0.573248 0
M  V30 8709 C 818.619 -1.55965 -1.35494 0
M  V30 8710 C 819.027 -0.203038 -1.88107 0
M  V30 8711 O 818.37 0.81138 -1.6481 0
M  V30 8712 C 818.432 -2.51168 -2.57206 0
M  V30 8713 C 818.096 -3.97211 -2.25993 0
M  V30 8714 C 819.093 -4.86155 -1.84254 0
M  V30 8715 C 816.778 -4.42419 -2.37846 0
M  V30 8716 C 818.772 -6.18323 -1.54776 0
M  V30 8717 C 816.459 -5.74619 -2.0798 0
M  V30 8718 C 817.457 -6.62392 -1.66511 0
M  V30 8719 O 817.145 -7.92137 -1.37016 0
M  V30 8720 H 816.877 -0.529748 -0.419932 0
M  V30 8721 H 819.431 -1.92998 -0.702914 0
M  V30 8722 H 817.661 -2.09171 -3.25245 0
M  V30 8723 H 819.35 -2.50631 -3.19279 0
M  V30 8724 H 820.116 -4.52481 -1.74603 0
M  V30 8725 H 815.995 -3.74319 -2.69085 0
M  V30 8726 H 819.539 -6.8679 -1.22334 0
M  V30 8727 H 815.436 -6.0784 -2.17258 0
M  V30 8728 H 816.204 -8.04492 -1.50782 0
M  V30 8729 N 818.867 0.818669 -1.34668 0
M  V30 8730 C 820.095 1.60674 -1.30351 0
M  V30 8731 C 820.51 1.88408 0.121546 0
M  V30 8732 O 819.867 1.47849 1.06991 0
M  V30 8733 C 819.918 2.94516 -2.09625 0
M  V30 8734 O 819.639 2.6799 -3.46573 0
M  V30 8735 C 821.14 3.8891 -2.12754 0
M  V30 8736 H 818.36 0.499306 -0.448258 0
M  V30 8737 H 820.904 1.01828 -1.77345 0
M  V30 8738 H 819.059 3.49908 -1.66262 0
M  V30 8739 H 819.473 3.53361 -3.87603 0
M  V30 8740 H 820.947 4.79972 -2.72637 0
M  V30 8741 H 821.424 4.24599 -1.12306 0
M  V30 8742 H 822.03 3.39453 -2.56225 0
M  V30 8743 N 820.346 1.18468 1.03938 0
M  V30 8744 C 821.576 1.0043 1.80547 0
M  V30 8745 C 821.984 -0.450407 1.83761 0
M  V30 8746 O 821.327 -1.32463 1.27276 0
M  V30 8747 C 821.389 1.48437 3.27424 0
M  V30 8748 C 821.053 2.96372 3.47869 0
M  V30 8749 C 822.05 3.94217 3.38953 0
M  V30 8750 C 819.735 3.34831 3.74424 0
M  V30 8751 C 821.729 5.28517 3.56298 0
M  V30 8752 C 819.416 4.69294 3.91416 0
M  V30 8753 C 820.414 5.65946 3.82354 0
M  V30 8754 O 820.102 6.97974 3.98858 0
M  V30 8755 H 819.834 0.354853 0.575374 0
M  V30 8756 H 822.388 1.57473 1.31876 0
M  V30 8757 H 820.618 0.857601 3.7707 0
M  V30 8758 H 822.307 1.2677 3.85596 0
M  V30 8759 H 823.073 3.6585 3.184 0
M  V30 8760 H 818.952 2.60161 3.80575 0
M  V30 8761 H 822.496 6.03943 3.49141 0
M  V30 8762 H 818.393 4.97361 4.11463 0
M  V30 8763 H 819.161 7.04895 4.1601 0
M  V30 8764 N 821.824 -1.22873 0.986916 0
M  V30 8765 C 823.073 -1.90772 0.654911 0
M  V30 8766 C 823.386 -1.77768 -0.81595 0
M  V30 8767 O 824.592 -2.40529 -1.25929 0
M  V30 8768 C 823.048 -3.42003 1.12081 0
M  V30 8769 C 822.656 -3.63655 2.61647 0
M  V30 8770 C 824.4 -4.15638 0.862854 0
M  V30 8771 C 822.307 -5.08555 3.01871 0
M  V30 8772 H 821.237 -0.714362 0.241252 0
M  V30 8773 H 823.888 -1.39196 1.19568 0
M  V30 8774 H 822.27 -3.92725 0.508207 0
M  V30 8775 H 823.444 -3.2345 3.28202 0
M  V30 8776 H 821.759 -3.03341 2.8526 0
M  V30 8777 H 824.356 -5.22425 1.13915 0
M  V30 8778 H 824.699 -4.15814 -0.201036 0
M  V30 8779 H 825.232 -3.70924 1.43736 0
M  V30 8780 H 821.971 -5.13514 4.07411 0
M  V30 8781 H 821.491 -5.49684 2.40015 0
M  V30 8782 H 823.17 -5.76936 2.92839 0
M  V30 8783 N 823.302 -0.75937 -1.38099 0
M  V30 8784 C 824.548 -0.318584 -2.00282 0
M  V30 8785 C 824.881 1.09854 -1.60143 0
M  V30 8786 O 824.156 1.75344 -0.841702 0
M  V30 8787 C 824.439 -0.448047 -3.57302 0
M  V30 8788 C 824.292 -1.9067 -4.07388 0
M  V30 8789 C 825.611 0.155119 -4.39827 0
M  V30 8790 H 822.73 -0.117233 -0.727616 0
M  V30 8791 H 825.372 -0.960097 -1.63958 0
M  V30 8792 H 823.522 0.0981003 -3.88376 0
M  V30 8793 H 825.194 -2.5116 -3.86932 0
M  V30 8794 H 823.437 -2.41979 -3.6004 0
M  V30 8795 H 824.108 -1.94841 -5.1647 0
M  V30 8796 H 826.584 -0.31073 -4.14938 0
M  V30 8797 H 825.46 0.0343264 -5.48889 0
M  V30 8798 H 825.721 1.24407 -4.24235 0
M  V30 8799 N 824.78 1.49157 -0.508906 0
M  V30 8800 C 825.712 2.272 0.302115 0
M  V30 8801 C 826.725 1.3407 0.923529 0
M  V30 8802 O 827.914 1.5929 0.805532 0
M  V30 8803 C 825.014 3.06736 1.44105 0
M  V30 8804 C 824.187 4.27497 0.925477 0
M  V30 8805 C 823.246 4.89014 1.94297 0
M  V30 8806 O 822.272 5.48851 1.50834 0
M  V30 8807 N 823.474 4.7937 3.2739 0
M  V30 8808 H 826.239 2.97443 -0.367115 0
M  V30 8809 H 823.8 1.58248 -0.341933 0
M  V30 8810 H 825.792 3.44763 2.11944 0
M  V30 8811 H 824.362 2.3905 2.0143 0
M  V30 8812 H 823.582 3.94135 0.0717301 0
M  V30 8813 H 824.87 5.05714 0.55955 0
M  V30 8814 H 824.268 4.31869 3.65384 0
M  V30 8815 H 822.825 5.21559 3.90922 0
M  V30 8816 N 826.258 0.243083 1.55714 0
M  V30 8817 C 827.674 -0.111853 1.59208 0
M  V30 8818 C 827.874 -1.5723 1.2602 0
M  V30 8819 O 826.93 -2.31608 1.00569 0
M  V30 8820 C 828.243 0.233885 2.99789 0
M  V30 8821 C 829.791 0.177873 3.12494 0
M  V30 8822 C 830.266 0.49759 4.55289 0
M  V30 8823 N 831.757 0.447949 4.61029 0
M  V30 8824 C 832.492 0.668545 5.69489 0
M  V30 8825 N 831.988 0.952064 6.86227 0
M  V30 8826 N 833.781 0.599512 5.58894 0
M  V30 8827 H 825.932 1.19554 1.75558 0
M  V30 8828 H 828.195 0.480765 0.817049 0
M  V30 8829 H 827.901 1.24835 3.28799 0
M  V30 8830 H 827.775 -0.440846 3.74615 0
M  V30 8831 H 830.162 -0.827263 2.83267 0
M  V30 8832 H 830.243 0.886399 2.39951 0
M  V30 8833 H 829.887 1.50026 4.85237 0
M  V30 8834 H 829.817 -0.232371 5.26087 0
M  V30 8835 H 832.308 0.237388 3.77154 0
M  V30 8836 H 832.621 1.10791 7.64817 0
M  V30 8837 H 830.966 0.989496 6.8792 0
M  V30 8838 H 834.157 0.378088 4.66571 0
M  V30 8839 H 834.33 0.774828 6.43351 0
M  V30 8840 N 827.736 -1.57571 -0.0300757 0
M  V30 8841 C 828.683 -2.06492 -1.03101 0
M  V30 8842 C 829.653 -0.953862 -1.3598 0
M  V30 8843 O 830.838 -1.22436 -1.46335 0
M  V30 8844 C 827.978 -2.54826 -2.32718 0
M  V30 8845 C 827.091 -3.79718 -2.06006 0
M  V30 8846 C 826.226 -4.16668 -3.29487 0
M  V30 8847 C 825.265 -5.3448 -2.98324 0
M  V30 8848 N 824.402 -5.66867 -4.14254 0
M  V30 8849 H 829.242 -2.91755 -0.606877 0
M  V30 8850 H 826.779 -1.44252 -0.288038 0
M  V30 8851 H 828.737 -2.80916 -3.08451 0
M  V30 8852 H 827.367 -1.72481 -2.72856 0
M  V30 8853 H 826.419 -3.60718 -1.20774 0
M  V30 8854 H 827.731 -4.65569 -1.79017 0
M  V30 8855 H 826.885 -4.43881 -4.13588 0
M  V30 8856 H 825.624 -3.29466 -3.59588 0
M  V30 8857 H 824.629 -5.07021 -2.12625 0
M  V30 8858 H 825.854 -6.23334 -2.69502 0
M  V30 8859 H 823.8 -4.82625 -4.44308 0
M  V30 8860 H 823.717 -6.47226 -3.90685 0
M  V30 8861 H 824.985 -5.98656 -4.99231 0
M  V30 8862 N 829.214 0.302327 -1.54673 0
M  V30 8863 C 830.162 1.39286 -1.86285 0
M  V30 8864 C 831.156 1.52553 -0.736478 0
M  V30 8865 O 832.362 1.54686 -0.92045 0
M  V30 8866 H 828.737 0.465228 -0.590819 0
M  V30 8867 H 830.708 1.09859 -2.77441 0
M  V30 8868 C 829.457 2.75155 -2.12567 0
M  V30 8869 H 828.78 2.65728 -2.98712 0
M  V30 8870 H 830.22 3.50476 -2.38627 0
M  V30 8871 C 828.679 3.23987 -0.923813 0
M  V30 8872 O 829.209 4.01443 -0.143649 0
M  V30 8873 N 827.415 2.81293 -0.72956 0
M  V30 8874 H 826.962 2.18421 -1.36565 0
M  V30 8875 H 826.92 3.14315 0.0730351 0
M  V30 8876 N 830.692 1.47107 0.565454 0
M  V30 8877 C 831.969 1.43787 1.32607 0
M  V30 8878 C 832.349 0.130428 2.10697 0
M  V30 8879 O 831.697 -0.888086 2.10536 0
M  V30 8880 C 831.907 2.67833 2.23755 0
M  V30 8881 C 833.255 3.14704 2.85037 0
M  V30 8882 O 834.279 2.68503 2.34061 0
M  V30 8883 O 833.138 3.95002 3.77671 0
M  V30 8884 H 830.232 0.572623 0.596684 0
M  V30 8885 H 832.778 1.59296 0.58504 0
M  V30 8886 H 831.55 3.54532 1.65597 0
M  V30 8887 H 831.173 2.54869 3.05168 0
M  V30 8888 N 832.17 -0.811516 1.35101 0
M  V30 8889 C 833.395 -1.60499 1.31358 0
M  V30 8890 C 833.82 -1.87793 -0.107383 0
M  V30 8891 O 833.178 -1.46161 -1.07268 0
M  V30 8892 C 833.226 -2.91612 2.12119 0
M  V30 8893 O 832.33 -3.84211 1.49853 0
M  V30 8894 H 831.671 -0.487702 0.450603 0
M  V30 8895 H 834.201 -1.00758 1.7807 0
M  V30 8896 H 834.211 -3.4108 2.23894 0
M  V30 8897 H 832.886 -2.71071 3.15426 0
M  V30 8898 H 831.463 -3.42751 1.46889 0
M  V30 8899 N 833.648 -1.19017 -1.03309 0
M  V30 8900 C 834.888 -1.00129 -1.78195 0
M  V30 8901 C 835.252 0.460236 -1.86402 0
M  V30 8902 O 836.453 0.768802 -2.57571 0
M  V30 8903 C 834.724 -1.64703 -3.17187 0
M  V30 8904 S 836.283 -1.60695 -4.08317 0
M  V30 8905 H 833.101 -0.359395 -0.613479 0
M  V30 8906 H 835.703 -1.51293 -1.23818 0
M  V30 8907 H 834.407 -2.70283 -3.08829 0
M  V30 8908 H 833.938 -1.136 -3.76641 0
M  V30 8909 H 835.953 -0.628171 -4.92208 0
M  V30 8910 N 835.127 1.22348 -0.993418 0
M  V30 8911 C 836.538 1.72893 -0.704616 0
M  V30 8912 C 836.889 1.80095 0.778483 0
M  V30 8913 O 836.014 1.4476 1.60853 0
M  V30 8914 C 836.609 3.14 -1.27237 0
M  V30 8915 C 835.168 3.61949 -1.03294 0
M  V30 8916 C 834.315 2.39816 -1.39225 0
M  V30 8917 H 837.266 1.07688 -1.16572 0
M  V30 8918 H 837.287 3.74886 -0.651212 0
M  V30 8919 H 836.799 3.08727 -2.3518 0
M  V30 8920 H 834.9 3.72588 0.0298329 0
M  V30 8921 H 835.013 4.48051 -1.69668 0
M  V30 8922 H 833.377 2.41448 -0.810849 0
M  V30 8923 H 834.16 2.37203 -2.48172 0
M  V30 8924 N 836.605 0.766683 1.37694 0
M  V30 8925 C 837.515 0.150158 2.34119 0
M  V30 8926 C 838.531 -0.685513 1.59927 0
M  V30 8927 O 839.707 -0.606616 1.92047 0
M  V30 8928 C 836.772 -0.722562 3.39087 0
M  V30 8929 C 835.833 0.128983 4.29106 0
M  V30 8930 C 835.066 -0.702178 5.29061 0
M  V30 8931 O 835.289 -1.93954 5.36412 0
M  V30 8932 O 834.223 -0.114056 6.01792 0
M  V30 8933 H 838.049 0.946829 2.88563 0
M  V30 8934 H 835.634 0.527765 1.39768 0
M  V30 8935 H 837.516 -1.22095 4.03325 0
M  V30 8936 H 836.191 -1.49751 2.86978 0
M  V30 8937 H 835.098 0.673612 3.67985 0
M  V30 8938 H 836.431 0.866892 4.84506 0
M  V30 8939 N 838.083 -1.48885 0.516809 0
M  V30 8940 C 839.329 -2.02788 -0.0220928 0
M  V30 8941 C 839.662 -1.39433 -1.35175 0
M  V30 8942 O 838.937 -0.535459 -1.86984 0
M  V30 8943 C 839.22 -3.59753 -0.158012 0
M  V30 8944 C 839.073 -4.33611 1.19588 0
M  V30 8945 C 840.392 -4.30984 -0.891133 0
M  V30 8946 H 837.511 -0.736971 -0.00655488 0
M  V30 8947 H 840.153 -1.77746 0.671287 0
M  V30 8948 H 838.303 -3.8122 -0.748568 0
M  V30 8949 H 839.975 -4.23598 1.82653 0
M  V30 8950 H 838.218 -3.95547 1.78116 0
M  V30 8951 H 838.889 -5.41846 1.05391 0
M  V30 8952 H 841.365 -4.14267 -0.39012 0
M  V30 8953 H 840.241 -5.40527 -0.955107 0
M  V30 8954 H 840.502 -3.97336 -1.93847 0
M  V30 8955 N 839.561 -0.251338 -1.55583 0
M  V30 8956 C 840.508 0.646337 -2.21565 0
M  V30 8957 C 841.478 1.16796 -1.18102 0
M  V30 8958 O 842.663 1.22162 -1.46564 0
M  V30 8959 C 839.803 1.83557 -2.92234 0
M  V30 8960 C 838.916 1.35006 -4.10363 0
M  V30 8961 C 838.051 2.4992 -4.68736 0
M  V30 8962 C 837.09 1.98253 -5.79105 0
M  V30 8963 N 836.227 3.06551 -6.31642 0
M  V30 8964 H 841.067 0.0769881 -2.97901 0
M  V30 8965 H 838.604 0.026238 -1.47077 0
M  V30 8966 H 840.562 2.53425 -3.31408 0
M  V30 8967 H 839.192 2.37733 -2.18364 0
M  V30 8968 H 838.244 0.545274 -3.76472 0
M  V30 8969 H 839.556 0.931435 -4.90026 0
M  V30 8970 H 838.71 3.27823 -5.10507 0
M  V30 8971 H 837.449 2.95086 -3.88298 0
M  V30 8972 H 836.454 1.18822 -5.36807 0
M  V30 8973 H 837.679 1.54051 -6.61396 0
M  V30 8974 H 835.625 3.51143 -5.54107 0
M  V30 8975 H 835.542 2.69033 -7.06511 0
M  V30 8976 H 836.81 3.84499 -6.78071 0
M  V30 8977 N 841.039 1.57585 0.0217189 0
M  V30 8978 C 842.285 1.89887 0.712099 0
M  V30 8979 C 842.618 0.849971 1.74611 0
M  V30 8980 O 841.893 -0.13407 1.94037 0
M  V30 8981 C 842.176 3.32815 1.37499 0
M  V30 8982 C 842.029 4.48405 0.353993 0
M  V30 8983 C 843.348 3.74786 2.30703 0
M  V30 8984 H 840.467 0.690588 0.257405 0
M  V30 8985 H 843.109 1.89983 -0.0251145 0
M  V30 8986 H 841.259 3.32863 2.00335 0
M  V30 8987 H 842.931 4.60491 -0.273015 0
M  V30 8988 H 841.174 4.32573 -0.32599 0
M  V30 8989 H 841.845 5.45316 0.85644 0
M  V30 8990 H 844.321 3.76151 1.77904 0
M  V30 8991 H 843.197 4.75585 2.74061 0
M  V30 8992 H 843.458 3.07449 3.17691 0
M  V30 8993 N 842.517 -0.29412 1.54831 0
M  V30 8994 C 843.764 -1.02846 1.74439 0
M  V30 8995 C 844.092 -1.87029 0.533905 0
M  V30 8996 O 843.347 -1.8962 -0.484035 0
M  V30 8997 C 843.646 -1.95782 2.99006 0
M  V30 8998 C 843.312 -1.2752 4.32492 0
M  V30 8999 C 841.974 -1.08637 4.68777 0
M  V30 9000 C 844.326 -0.787761 5.15212 0
M  V30 9001 C 841.654 -0.39704 5.85355 0
M  V30 9002 C 844.006 -0.112123 6.32501 0
M  V30 9003 C 842.67 0.0886071 6.67441 0
M  V30 9004 H 841.94 -0.376341 0.638317 0
M  V30 9005 H 844.587 -0.302684 1.89093 0
M  V30 9006 H 842.892 -2.74911 2.79162 0
M  V30 9007 H 844.589 -2.52684 3.11371 0
M  V30 9008 H 841.179 -1.43226 4.03961 0
M  V30 9009 H 845.363 -0.921341 4.87673 0
M  V30 9010 H 840.619 -0.230597 6.10965 0
M  V30 9011 H 844.793 0.27344 6.95863 0
M  V30 9012 H 842.42 0.624748 7.57628 0
M  V30 9013 N 843.995 -1.47404 -0.557645 0
M  V30 9014 C 844.905 -1.62491 -1.69216 0
M  V30 9015 C 845.921 -0.507764 -1.66426 0
M  V30 9016 O 847.097 -0.775241 -1.85882 0
M  V30 9017 C 844.162 -1.63511 -3.05721 0
M  V30 9018 C 843.223 -2.86648 -3.1958 0
M  V30 9019 C 842.456 -2.87609 -4.49574 0
M  V30 9020 O 842.679 -1.97799 -5.35006 0
M  V30 9021 O 841.613 -3.79465 -4.67215 0
M  V30 9022 H 845.439 -2.58487 -1.59431 0
M  V30 9023 H 843.024 -1.30485 -0.7276 0
M  V30 9024 H 844.906 -1.66863 -3.86956 0
M  V30 9025 H 843.581 -0.706812 -3.15889 0
M  V30 9026 H 842.488 -2.8884 -2.37744 0
M  V30 9027 H 843.821 -3.7877 -3.14316 0
M  V30 9028 N 845.473 0.80434 -1.35529 0
M  V30 9029 C 846.75 1.5486 -1.1949 0
M  V30 9030 C 847.13 2.09897 0.22506 0
M  V30 9031 O 846.478 1.92643 1.22886 0
M  V30 9032 C 846.688 2.65535 -2.26478 0
M  V30 9033 C 848.036 3.33814 -2.62399 0
M  V30 9034 O 849.06 2.75807 -2.25409 0
M  V30 9035 O 847.919 4.38612 -3.26009 0
M  V30 9036 H 845.013 0.68433 -0.464351 0
M  V30 9037 H 847.559 0.844107 -1.47217 0
M  V30 9038 H 846.331 2.22754 -3.21709 0
M  V30 9039 H 845.954 3.43617 -2.00033 0
M  V30 9040 N 846.951 1.19563 1.02676 0
M  V30 9041 C 848.2 0.993864 1.75514 0
M  V30 9042 C 848.513 -0.475882 1.89723 0
M  V30 9043 O 849.719 -0.796525 2.59553 0
M  V30 9044 C 848.175 1.72937 3.15628 0
M  V30 9045 C 847.783 3.23937 3.09466 0
M  V30 9046 C 849.527 1.61092 3.92746 0
M  V30 9047 C 847.434 3.90067 4.44524 0
M  V30 9048 H 846.364 0.368244 0.657961 0
M  V30 9049 H 849.015 1.43081 1.14891 0
M  V30 9050 H 847.397 1.22025 3.76731 0
M  V30 9051 H 848.571 3.81983 2.57731 0
M  V30 9052 H 846.886 3.3608 2.45843 0
M  V30 9053 H 849.483 2.07848 4.92649 0
M  V30 9054 H 849.826 0.565415 4.12442 0
M  V30 9055 H 850.359 2.09361 3.3825 0
M  V30 9056 H 847.098 4.94725 4.30032 0
M  V30 9057 H 846.618 3.36809 4.96306 0
M  V30 9058 H 848.297 3.93736 5.13401 0
M  V30 9059 N 848.429 -1.21819 0.999893 0
M  V30 9060 C 849.654 -1.95298 0.698094 0
M  V30 9061 C 850.079 -1.73273 -0.731982 0
M  V30 9062 O 849.437 -1.01634 -1.50134 0
M  V30 9063 C 849.485 -3.45922 1.01834 0
M  V30 9064 O 848.589 -4.12223 0.120801 0
M  V30 9065 H 847.93 -0.610729 0.260588 0
M  V30 9066 H 850.46 -1.5472 1.33876 0
M  V30 9067 H 850.47 -3.96471 0.963074 0
M  V30 9068 H 849.145 -3.61278 2.06037 0
M  V30 9069 H 847.722 -3.72177 0.232153 0
M  V30 9070 N 849.908 -0.773975 -1.37286 0
M  V30 9071 C 850.871 -0.167974 -2.28584 0
M  V30 9072 C 851.871 0.625662 -1.48129 0
M  V30 9073 O 853.061 0.448924 -1.68316 0
M  V30 9074 C 850.193 0.769364 -3.32105 0
M  V30 9075 H 851.386 -0.972806 -2.83684 0
M  V30 9076 H 848.939 -0.542335 -1.46589 0
M  V30 9077 H 849.674 1.59912 -2.82132 0
M  V30 9078 H 849.459 0.202419 -3.91577 0
M  V30 9079 H 850.949 1.18872 -4.00324 0
M  V30 9080 N 851.386 1.48609 -0.524698 0
M  V30 9081 C 852.334 2.31205 0.254398 0
M  V30 9082 C 853.328 1.40894 0.940491 0
M  V30 9083 O 854.534 1.57827 0.865478 0
M  V30 9084 H 850.909 0.745199 0.100907 0
M  V30 9085 H 852.88 2.94804 -0.461876 0
M  V30 9086 C 851.629 3.2282 1.2916 0
M  V30 9087 H 850.952 3.92255 0.773074 0
M  V30 9088 H 852.392 3.83508 1.80825 0
M  V30 9089 C 850.851 2.4406 2.32242 0
M  V30 9090 O 851.381 2.16163 3.3858 0
M  V30 9091 N 849.587 2.05651 2.05319 0
M  V30 9092 H 849.134 2.28539 1.18861 0
M  V30 9093 H 849.092 1.53265 2.74513 0
M  V30 9094 N 852.864 0.259585 1.55447 0
M  V30 9095 C 854.092 -0.365392 2.03648 0
M  V30 9096 C 854.507 -1.50613 1.13847 0
M  V30 9097 O 853.864 -1.81837 0.155414 0
M  V30 9098 C 853.915 -0.861172 3.51093 0
M  V30 9099 O 853.636 0.234121 4.37474 0
M  V30 9100 C 855.137 -1.55555 4.15111 0
M  V30 9101 H 852.357 -0.0853439 0.66555 0
M  V30 9102 H 854.901 0.387151 2.00802 0
M  V30 9103 H 853.056 -1.56385 3.54433 0
M  V30 9104 H 853.47 -0.1444 5.24301 0
M  V30 9105 H 854.944 -1.85403 5.19932 0
M  V30 9106 H 855.421 -2.48185 3.62355 0
M  V30 9107 H 856.027 -0.89712 4.15731 0
M  V30 9108 N 854.342 -1.57594 -0.0133615 0
M  V30 9109 C 855.588 -1.90262 -0.702019 0
M  V30 9110 C 855.921 -0.859219 -1.74158 0
M  V30 9111 O 855.196 0.123778 -1.94106 0
M  V30 9112 C 855.479 -3.3354 -1.35732 0
M  V30 9113 C 855.332 -4.48586 -0.330208 0
M  V30 9114 C 856.651 -3.76004 -2.28712 0
M  V30 9115 H 853.77 -0.691943 -0.253739 0
M  V30 9116 H 856.412 -1.89967 0.0351894 0
M  V30 9117 H 854.562 -3.33921 -1.98567 0
M  V30 9118 H 856.234 -4.6034 0.297433 0
M  V30 9119 H 854.477 -4.32394 0.348926 0
M  V30 9120 H 855.148 -5.45762 -0.827508 0
M  V30 9121 H 857.624 -3.77089 -1.75906 0
M  V30 9122 H 856.5 -4.77032 -2.71535 0
M  V30 9123 H 856.761 -3.09129 -3.16056 0
M  V30 9124 N 855.82 0.285905 -1.54985 0
M  V30 9125 C 856.768 1.37302 -1.87752 0
M  V30 9126 C 857.762 1.51763 -0.752616 0
M  V30 9127 O 858.968 1.53701 -0.936805 0
M  V30 9128 H 855.343 0.458935 -0.59572 0
M  V30 9129 H 857.314 1.0691 -2.78591 0
M  V30 9130 C 856.063 2.72885 -2.15474 0
M  V30 9131 H 855.386 2.62545 -3.01513 0
M  V30 9132 H 856.826 3.47925 -2.42331 0
M  V30 9133 C 855.285 3.22989 -0.958124 0
M  V30 9134 O 855.815 4.01268 -0.186219 0
M  V30 9135 N 854.021 2.80503 -0.759354 0
M  V30 9136 H 853.568 2.16961 -1.38874 0
M  V30 9137 H 853.526 3.14375 0.0396937 0
M  V30 9138 N 857.298 1.47698 0.54982 0
M  V30 9139 C 858.231 1.55288 1.67215 0
M  V30 9140 C 859.209 0.404533 1.57487 0
M  V30 9141 O 860.393 0.613372 1.78241 0
M  V30 9142 C 857.52 1.46233 3.05505 0
M  V30 9143 C 856.566 2.65662 3.33655 0
M  V30 9144 S 857.399 4.278 3.22098 0
M  V30 9145 C 858.555 4.21311 4.62869 0
M  V30 9146 H 858.788 2.50238 1.60524 0
M  V30 9147 H 856.321 1.35987 0.731227 0
M  V30 9148 H 858.279 1.41696 3.85269 0
M  V30 9149 H 856.94 0.526543 3.09655 0
M  V30 9150 H 856.133 2.55411 4.3449 0
M  V30 9151 H 855.735 2.67359 2.61524 0
M  V30 9152 H 858.027 3.90021 5.53977 0
M  V30 9153 H 858.97 5.22257 4.78177 0
M  V30 9154 H 859.378 3.52063 4.41262 0
M  V30 9155 N 858.776 -0.797141 1.35954 0
M  V30 9156 C 859.739 -1.89104 1.29508 0
M  V30 9157 C 860.739 -1.59495 0.204444 0
M  V30 9158 O 861.929 -1.68051 0.458746 0
M  V30 9159 C 859.061 -3.25726 1.00576 0
M  V30 9160 H 860.254 -1.96237 2.26785 0
M  V30 9161 H 857.807 -0.994075 1.20614 0
M  V30 9162 H 858.542 -3.24279 0.0372519 0
M  V30 9163 H 858.327 -3.48604 1.79492 0
M  V30 9164 H 859.817 -4.0578 0.986508 0
M  V30 9165 N 860.254 -1.20106 -1.0204 0
M  V30 9166 C 861.184 -0.970301 -2.12385 0
M  V30 9167 C 862.165 0.099378 -1.69809 0
M  V30 9168 O 863.35 -0.057365 -1.94115 0
M  V30 9169 C 860.48 -0.517431 -3.43424 0
M  V30 9170 C 859.434 -1.52992 -3.99722 0
M  V30 9171 C 858.76 -0.933817 -5.26483 0
M  V30 9172 C 860.06 -2.91257 -4.33551 0
M  V30 9173 H 861.754 -1.89316 -2.31948 0
M  V30 9174 H 859.3 -0.911655 -1.11467 0
M  V30 9175 H 861.253 -0.343243 -4.2 0
M  V30 9176 H 859.977 0.441049 -3.23608 0
M  V30 9177 H 858.636 -1.6914 -3.2525 0
M  V30 9178 H 858.284 0.0324763 -5.0299 0
M  V30 9179 H 857.984 -1.60999 -5.65113 0
M  V30 9180 H 859.508 -0.770614 -6.05718 0
M  V30 9181 H 860.922 -2.78642 -5.0103 0
M  V30 9182 H 859.319 -3.55745 -4.83286 0
M  V30 9183 H 860.389 -3.43269 -3.42483 0
M  V30 9184 N 861.732 1.21287 -1.00634 0
M  V30 9185 C 862.664 2.2308 -0.526094 0
M  V30 9186 C 863.677 1.58157 0.386031 0
M  V30 9187 O 864.866 1.77528 0.186016 0
M  V30 9188 C 861.966 3.37937 0.255289 0
M  V30 9189 C 861.139 4.32449 -0.656236 0
M  V30 9190 C 860.198 5.26145 0.0757714 0
M  V30 9191 O 859.224 5.66601 -0.543325 0
M  V30 9192 N 860.426 5.6449 1.35391 0
M  V30 9193 H 863.191 2.64913 -1.40147 0
M  V30 9194 H 860.752 1.35724 -0.882641 0
M  V30 9195 H 862.744 3.97614 0.753977 0
M  V30 9196 H 861.314 2.95078 1.03187 0
M  V30 9197 H 860.534 3.70892 -1.3354 0
M  V30 9198 H 861.822 4.92526 -1.27653 0
M  V30 9199 H 861.22 5.33617 1.878 0
M  V30 9200 H 859.777 6.26524 1.79753 0
M  V30 9201 N 863.21 0.781244 1.36873 0
M  V30 9202 C 864.459 0.34652 1.98701 0
M  V30 9203 C 864.772 -1.08555 1.62712 0
M  V30 9204 O 865.978 -1.62213 2.17713 0
M  V30 9205 C 864.434 0.568611 3.5538 0
M  V30 9206 C 864.042 2.01156 4.003 0
M  V30 9207 C 865.786 0.197983 4.24038 0
M  V30 9208 C 863.693 2.18074 5.49725 0
M  V30 9209 H 862.623 0.125821 0.743428 0
M  V30 9210 H 865.274 0.961721 1.56279 0
M  V30 9211 H 863.656 -0.116185 3.9583 0
M  V30 9212 H 864.83 2.73209 3.71071 0
M  V30 9213 H 863.145 2.33967 3.44454 0
M  V30 9214 H 865.742 0.302778 5.33842 0
M  V30 9215 H 866.085 -0.852927 4.07469 0
M  V30 9216 H 866.618 0.835696 3.88923 0
M  V30 9217 H 863.357 3.21519 5.71232 0
M  V30 9218 H 862.877 1.50517 5.80607 0
M  V30 9219 H 864.556 1.98393 6.15832 0
M  V30 9220 N 864.689 -1.48329 0.532571 0
M  V30 9221 C 866.1 -1.86469 0.0927749 0
M  V30 9222 C 866.451 -1.44186 -1.3306 0
M  V30 9223 O 865.576 -0.833741 -1.99694 0
M  V30 9224 C 866.171 -3.38414 0.161588 0
M  V30 9225 C 864.73 -3.75739 -0.223028 0
M  V30 9226 C 863.877 -2.72377 0.520199 0
M  V30 9227 H 866.828 -1.40197 0.743678 0
M  V30 9228 H 866.849 -3.75314 -0.626059 0
M  V30 9229 H 866.361 -3.69159 1.19765 0
M  V30 9230 H 864.462 -3.50608 -1.26113 0
M  V30 9231 H 864.575 -4.78954 0.118385 0
M  V30 9232 H 862.939 -2.54678 -0.0338425 0
M  V30 9233 H 863.722 -3.05965 1.55694 0
M  V30 9234 N 866.167 -0.267825 -1.55308 0
M  V30 9235 C 867.099 0.65591 -2.19614 0
M  V30 9236 C 868.112 1.12302 -1.17865 0
M  V30 9237 O 869.301 1.04618 -1.44628 0
M  V30 9238 C 866.401 1.90582 -2.80235 0
M  V30 9239 C 865.574 1.58673 -4.07605 0
M  V30 9240 C 864.633 2.68836 -4.52343 0
M  V30 9241 O 863.659 2.35331 -5.18274 0
M  V30 9242 N 864.861 3.98752 -4.21873 0
M  V30 9243 H 867.626 0.105566 -2.99514 0
M  V30 9244 H 865.187 -0.0886263 -1.61657 0
M  V30 9245 H 867.179 2.63561 -3.07112 0
M  V30 9246 H 865.749 2.3654 -2.04371 0
M  V30 9247 H 864.969 0.691113 -3.88094 0
M  V30 9248 H 866.257 1.34845 -4.90606 0
M  V30 9249 H 865.655 4.28797 -3.68985 0
M  V30 9250 H 864.212 4.68131 -4.53537 0
M  V30 9251 N 867.645 1.57599 0.00500368 0
M  V30 9252 C 868.875 1.94344 0.700998 0
M  V30 9253 C 869.283 0.868011 1.68114 0
M  V30 9254 O 868.626 -0.16214 1.82983 0
M  V30 9255 C 868.688 3.27046 1.49268 0
M  V30 9256 C 868.352 4.51992 0.674684 0
M  V30 9257 C 869.349 5.19888 -0.0354833 0
M  V30 9258 C 867.034 4.98432 0.622129 0
M  V30 9259 C 869.028 6.3252 -0.787246 0
M  V30 9260 C 866.715 6.10954 -0.133362 0
M  V30 9261 C 867.713 6.77855 -0.836788 0
M  V30 9262 O 867.401 7.88221 -1.57996 0
M  V30 9263 H 867.133 0.645572 0.20053 0
M  V30 9264 H 869.687 2.0536 -0.040718 0
M  V30 9265 H 867.917 3.12424 2.27877 0
M  V30 9266 H 869.606 3.4894 2.07355 0
M  V30 9267 H 870.372 4.85 -0.00400159 0
M  V30 9268 H 866.251 4.46189 1.15917 0
M  V30 9269 H 869.795 6.84671 -1.33683 0
M  V30 9270 H 865.692 6.45285 -0.166682 0
M  V30 9271 H 866.46 8.0471 -1.49615 0
M  V30 9272 N 869.123 -0.277682 1.55134 0
M  V30 9273 C 870.37 -1.0099 1.7552 0
M  V30 9274 C 870.698 -1.86452 0.553712 0
M  V30 9275 O 869.953 -1.90122 -0.463896 0
M  V30 9276 C 870.252 -1.92599 3.01065 0
M  V30 9277 C 869.918 -1.22926 4.3382 0
M  V30 9278 C 868.58 -1.03659 4.69902 0
M  V30 9279 C 870.932 -0.733071 5.16019 0
M  V30 9280 C 868.26 -0.334933 5.85743 0
M  V30 9281 C 870.612 -0.0450319 6.32584 0
M  V30 9282 C 869.276 0.159393 6.6731 0
M  V30 9283 H 868.546 -0.36955 0.642273 0
M  V30 9284 H 871.193 -0.282611 1.89403 0
M  V30 9285 H 869.498 -2.71934 2.82062 0
M  V30 9286 H 871.195 -2.49367 3.14034 0
M  V30 9287 H 867.785 -1.38933 4.05457 0
M  V30 9288 H 871.969 -0.869565 4.88623 0
M  V30 9289 H 867.225 -0.165783 6.11175 0
M  V30 9290 H 871.399 0.34723 6.95534 0
M  V30 9291 H 869.026 0.70507 7.56923 0
M  V30 9292 N 870.601 -1.47988 -0.541979 0
M  V30 9293 C 871.531 -1.64503 -1.65713 0
M  V30 9294 C 872.512 -0.494116 -1.62765 0
M  V30 9295 O 873.697 -0.725256 -1.80149 0
M  V30 9296 C 870.827 -1.67337 -3.04328 0
M  V30 9297 C 869.781 -2.81809 -3.2213 0
M  V30 9298 C 869.107 -2.69724 -4.61685 0
M  V30 9299 C 870.407 -4.23241 -3.06046 0
M  V30 9300 H 872.101 -2.5786 -1.52147 0
M  V30 9301 H 869.647 -1.24094 -0.730529 0
M  V30 9302 H 871.6 -1.77481 -3.82202 0
M  V30 9303 H 870.324 -0.705514 -3.18889 0
M  V30 9304 H 868.983 -2.71201 -2.46669 0
M  V30 9305 H 868.631 -1.70934 -4.73065 0
M  V30 9306 H 868.331 -3.4653 -4.74543 0
M  V30 9307 H 869.855 -2.81818 -5.41674 0
M  V30 9308 H 871.269 -4.34746 -3.73723 0
M  V30 9309 H 869.666 -5.00952 -3.30405 0
M  V30 9310 H 870.736 -4.40543 -2.02609 0
M  V30 9311 N 872.079 0.78992 -1.36375 0
M  V30 9312 C 873.009 1.91683 -1.33341 0
M  V30 9313 C 873.99 1.68861 -0.204965 0
M  V30 9314 O 875.175 1.89982 -0.402531 0
M  V30 9315 C 872.305 3.28696 -1.12143 0
M  V30 9316 C 871.259 3.66041 -2.21806 0
M  V30 9317 C 870.585 5.01399 -1.85751 0
M  V30 9318 C 871.885 3.74677 -3.63888 0
M  V30 9319 H 873.579 1.94478 -2.27637 0
M  V30 9320 H 871.125 0.934271 -1.09578 0
M  V30 9321 H 873.078 4.07151 -1.08656 0
M  V30 9322 H 871.802 3.26287 -0.142974 0
M  V30 9323 H 870.461 2.89883 -2.24418 0
M  V30 9324 H 870.109 4.9551 -0.864817 0
M  V30 9325 H 869.809 5.27355 -2.59173 0
M  V30 9326 H 871.333 5.82274 -1.83819 0
M  V30 9327 H 872.747 4.43324 -3.63506 0
M  V30 9328 H 871.144 4.12118 -4.3621 0
M  V30 9329 H 872.214 2.75795 -3.9883 0
M  V30 9330 N 873.557 1.20646 1.01402 0
M  V30 9331 C 874.785 1.04389 1.78635 0
M  V30 9332 C 875.2 -0.406771 1.84366 0
M  V30 9333 O 874.557 -1.28239 1.2985 0
M  V30 9334 C 874.608 1.62378 3.22979 0
M  V30 9335 O 874.329 3.01768 3.17597 0
M  V30 9336 C 875.83 1.5111 4.1675 0
M  V30 9337 H 873.05 0.367077 0.56169 0
M  V30 9338 H 875.594 1.59789 1.27624 0
M  V30 9339 H 873.749 1.11092 3.7113 0
M  V30 9340 H 874.163 3.29331 4.08217 0
M  V30 9341 H 875.637 1.96441 5.15863 0
M  V30 9342 H 876.114 0.464011 4.36742 0
M  V30 9343 H 876.72 2.01599 3.74483 0
M  V30 9344 N 875.035 -1.20752 1.01276 0
M  V30 9345 C 876.275 -1.91733 0.708372 0
M  V30 9346 C 876.639 -1.76836 -0.747855 0
M  V30 9347 O 877.84 -2.42262 -1.16458 0
M  V30 9348 C 876.111 -3.39155 1.12732 0
M  V30 9349 S 877.67 -4.28518 0.944325 0
M  V30 9350 H 874.488 -0.662394 0.25837 0
M  V30 9351 H 877.09 -1.46085 1.29921 0
M  V30 9352 H 875.794 -3.47516 2.18313 0
M  V30 9353 H 875.325 -3.89826 0.5291 0
M  V30 9354 H 877.34 -4.9596 -0.154278 0
M  V30 9355 N 876.513 -0.788492 -1.36457 0
M  V30 9356 C 877.761 -0.359749 -1.98872 0
M  V30 9357 C 878.082 1.07197 -1.62892 0
M  V30 9358 O 877.352 1.73875 -0.902463 0
M  V30 9359 H 875.932 -0.130029 -0.735596 0
M  V30 9360 H 878.594 -1.01033 -1.66668 0
M  V30 9361 H 877.69 -0.450835 -3.08827 0
M  V30 9362 N 877.991 1.48044 -0.54043 0
M  V30 9363 C 878.901 2.33565 0.220163 0
M  V30 9364 C 879.917 1.47146 0.928659 0
M  V30 9365 O 881.093 1.80107 0.901295 0
M  V30 9366 C 878.158 3.2349 1.2472 0
M  V30 9367 C 877.219 4.25789 0.547938 0
M  V30 9368 C 876.452 5.11417 1.52605 0
M  V30 9369 O 876.675 4.99204 2.75956 0
M  V30 9370 O 875.609 5.92498 1.05972 0
M  V30 9371 H 879.435 2.99868 -0.480898 0
M  V30 9372 H 877.02 1.46332 -0.301226 0
M  V30 9373 H 878.902 3.79084 1.84047 0
M  V30 9374 H 877.577 2.59835 1.93048 0
M  V30 9375 H 876.484 3.74001 -0.0860941 0
M  V30 9376 H 877.817 4.92111 -0.0935896 0
M  V30 9377 N 879.47 0.276058 1.55163 0
M  V30 9378 C 880.716 -0.340959 1.99913 0
M  V30 9379 C 881.049 -1.55434 1.16422 0
M  V30 9380 O 880.324 -1.93081 0.234517 0
M  V30 9381 C 880.607 -0.722211 3.52783 0
M  V30 9382 C 880.46 0.498575 4.47028 0
M  V30 9383 C 881.779 -1.5583 4.11589 0
M  V30 9384 H 878.898 -0.122455 0.726756 0
M  V30 9385 H 881.54 0.38319 1.86096 0
M  V30 9386 H 879.69 -1.33919 3.64689 0
M  V30 9387 H 881.362 1.13713 4.47065 0
M  V30 9388 H 879.605 1.13646 4.18649 0
M  V30 9389 H 880.276 0.188041 5.5168 0
M  V30 9390 H 882.752 -1.03722 4.02965 0
M  V30 9391 H 881.628 -1.79387 5.1876 0
M  V30 9392 H 881.889 -2.53963 3.61877 0
M  V30 9393 N 880.948 -1.576 0.00335426 0
M  V30 9394 C 882.194 -1.90996 -0.681799 0
M  V30 9395 C 882.527 -0.877643 -1.73237 0
M  V30 9396 O 881.802 0.103183 -1.94226 0
M  V30 9397 C 882.085 -3.34961 -1.32187 0
M  V30 9398 C 881.938 -4.48911 -0.28261 0
M  V30 9399 C 883.257 -3.78408 -2.24711 0
M  V30 9400 H 880.376 -0.694596 -0.246386 0
M  V30 9401 H 883.018 -1.89919 0.055336 0
M  V30 9402 H 881.168 -3.36008 -1.95014 0
M  V30 9403 H 882.84 -4.59999 0.346241 0
M  V30 9404 H 881.083 -4.32 0.394768 0
M  V30 9405 H 881.754 -5.46609 -0.769576 0
M  V30 9406 H 884.23 -3.78934 -1.71897 0
M  V30 9407 H 883.106 -4.79885 -2.66461 0
M  V30 9408 H 883.367 -3.12464 -3.1276 0
M  V30 9409 N 882.426 0.269451 -1.5528 0
M  V30 9410 C 883.673 1.00058 -1.76053 0
M  V30 9411 C 884.001 1.86156 -0.563592 0
M  V30 9412 O 883.256 1.90366 0.453806 0
M  V30 9413 C 883.555 1.91 -3.02082 0
M  V30 9414 C 883.221 1.20623 -4.34466 0
M  V30 9415 C 881.883 1.01165 -4.70446 0
M  V30 9416 C 884.235 0.705695 -5.164 0
M  V30 9417 C 881.563 0.303865 -5.85913 0
M  V30 9418 C 883.915 0.0114838 -6.32599 0
M  V30 9419 C 882.579 -0.19478 -6.67216 0
M  V30 9420 H 881.849 0.366138 -0.644223 0
M  V30 9421 H 884.496 0.272563 -1.8955 0
M  V30 9422 H 882.801 2.70435 -2.835 0
M  V30 9423 H 884.498 2.47698 -3.15352 0
M  V30 9424 H 881.088 1.36781 -4.06188 0
M  V30 9425 H 885.272 0.84364 -4.89077 0
M  V30 9426 H 880.528 0.133368 -6.11255 0
M  V30 9427 H 884.702 -0.384111 -6.9534 0
M  V30 9428 H 882.329 -0.745201 -7.56539 0
M  V30 9429 N 883.904 1.48273 0.534124 0
M  V30 9430 C 885.129 1.59988 1.31979 0
M  V30 9431 C 885.554 0.258824 1.86311 0
M  V30 9432 O 884.912 -0.768885 1.64188 0
M  V30 9433 C 884.96 2.64642 2.44943 0
M  V30 9434 O 884.064 2.21515 3.47858 0
M  V30 9435 H 883.405 0.536625 0.391063 0
M  V30 9436 H 885.935 1.94229 0.643135 0
M  V30 9437 H 885.945 2.85786 2.91187 0
M  V30 9438 H 884.62 3.62004 2.04758 0
M  V30 9439 H 883.197 2.10567 3.0776 0
M  V30 9440 N 885.382 -0.782676 1.36792 0
M  V30 9441 C 886.628 -1.54311 1.3159 0
M  V30 9442 C 886.961 -1.93928 -0.102696 0
M  V30 9443 O 886.236 -1.63233 -1.05761 0
M  V30 9444 C 886.519 -2.81561 2.24489 0
M  V30 9445 C 886.372 -2.48268 3.75078 0
M  V30 9446 C 887.691 -3.83428 2.16034 0
M  V30 9447 H 884.81 -0.559828 0.479335 0
M  V30 9448 H 887.452 -0.898717 1.67401 0
M  V30 9449 H 885.602 -3.36549 1.9408 0
M  V30 9450 H 887.274 -1.99279 4.16036 0
M  V30 9451 H 885.517 -1.81116 3.94182 0
M  V30 9452 H 886.188 -3.39183 4.35499 0
M  V30 9453 H 888.664 -3.37905 2.42815 0
M  V30 9454 H 887.54 -4.70204 2.83194 0
M  V30 9455 H 887.801 -4.26887 1.14976 0
M  V30 9456 N 886.86 -1.21182 -1.00761 0
M  V30 9457 C 888.088 -1.05335 -1.78079 0
M  V30 9458 C 888.503 0.396988 -1.84579 0
M  V30 9459 O 887.86 1.27548 -1.30529 0
M  V30 9460 C 887.911 -1.64089 -3.22113 0
M  V30 9461 O 887.632 -3.03448 -3.15992 0
M  V30 9462 C 889.133 -1.53318 -4.15943 0
M  V30 9463 H 886.353 -0.37005 -0.559736 0
M  V30 9464 H 888.897 -1.60463 -1.26775 0
M  V30 9465 H 887.052 -1.13059 -3.70535 0
M  V30 9466 H 887.466 -3.31492 -4.06465 0
M  V30 9467 H 888.94 -1.99174 -5.14814 0
M  V30 9468 H 889.417 -0.487166 -4.3649 0
M  V30 9469 H 890.023 -2.03582 -3.73409 0
M  V30 9470 N 888.338 1.20213 -1.01915 0
M  V30 9471 C 889.586 1.89272 -0.708552 0
M  V30 9472 C 889.907 1.79394 0.76438 0
M  V30 9473 O 889.177 1.198 1.54999 0
M  V30 9474 H 887.757 0.700628 -0.259094 0
M  V30 9475 H 890.419 1.45985 -1.29129 0
M  V30 9476 H 889.515 2.95841 -0.994215 0
M  V30 9477 N 889.816 0.795718 1.36037 0
M  V30 9478 C 890.746 0.212803 2.32528 0
M  V30 9479 C 891.727 -0.655716 1.56953 0
M  V30 9480 O 892.912 -0.588238 1.85077 0
M  V30 9481 C 890.042 -0.648189 3.41198 0
M  V30 9482 C 888.996 0.120948 4.27829 0
M  V30 9483 C 888.322 -0.861044 5.27722 0
M  V30 9484 C 889.622 1.31375 5.05508 0
M  V30 9485 H 891.316 1.01893 2.81528 0
M  V30 9486 H 888.862 0.491422 1.35355 0
M  V30 9487 H 890.815 -1.06597 4.07695 0
M  V30 9488 H 889.539 -1.48709 2.9078 0
M  V30 9489 H 888.198 0.519777 3.62897 0
M  V30 9490 H 887.846 -1.69515 4.73575 0
M  V30 9491 H 887.546 -0.350808 5.86552 0
M  V30 9492 H 889.07 -1.27726 5.97092 0
M  V30 9493 H 890.484 0.971406 5.6501 0
M  V30 9494 H 888.881 1.75772 5.73781 0
M  V30 9495 H 889.951 2.10593 4.36782 0
M  V30 9496 N 891.294 -1.47756 0.548274 0
M  V30 9497 C 892.204 -2.33678 -0.207773 0
M  V30 9498 C 893.22 -1.47636 -0.920843 0
M  V30 9499 O 894.396 -1.80583 -0.89173 0
M  V30 9500 C 891.461 -3.24147 -1.23003 0
M  V30 9501 C 890.522 -4.26073 -0.52535 0
M  V30 9502 C 889.755 -5.12219 -1.4989 0
M  V30 9503 O 889.978 -5.0066 -2.73305 0
M  V30 9504 O 888.912 -5.93051 -1.02828 0
M  V30 9505 H 892.738 -2.99609 0.496794 0
M  V30 9506 H 890.323 -1.4617 0.308982 0
M  V30 9507 H 892.205 -3.80055 -1.82034 0
M  V30 9508 H 890.88 -2.60855 -1.91668 0
M  V30 9509 H 889.787 -3.7395 0.105927 0
M  V30 9510 H 891.12 -4.92054 0.119686 0
M  V30 9511 N 892.772 -0.284283 -1.55015 0
M  V30 9512 C 894.019 0.329864 -1.99795 0
M  V30 9513 C 894.347 1.55171 -1.1727 0
M  V30 9514 O 893.602 1.94312 -0.232667 0
M  V30 9515 C 893.901 0.747219 -3.49502 0
M  V30 9516 C 893.567 -0.37101 -4.49371 0
M  V30 9517 C 892.229 -0.678034 -4.76399 0
M  V30 9518 C 894.581 -1.12406 -5.08935 0
M  V30 9519 C 891.909 -1.74152 -5.60257 0
M  V30 9520 C 894.261 -2.17734 -5.93948 0
M  V30 9521 C 892.925 -2.49061 -6.19294 0
M  V30 9522 H 892.195 0.120706 -0.731103 0
M  V30 9523 H 894.842 -0.399904 -1.87278 0
M  V30 9524 H 893.147 1.55681 -3.59542 0
M  V30 9525 H 894.844 1.2333 -3.81563 0
M  V30 9526 H 891.434 -0.1216 -4.28427 0
M  V30 9527 H 895.618 -0.900119 -4.88069 0
M  V30 9528 H 890.874 -1.98915 -5.78137 0
M  V30 9529 H 895.048 -2.76553 -6.39133 0
M  V30 9530 H 892.675 -3.31602 -6.84064 0
M  V30 9531 N 894.251 1.57596 -0.0117121 0
M  V30 9532 C 895.476 1.95764 0.684938 0
M  V30 9533 C 895.901 0.887285 1.65858 0
M  V30 9534 O 895.259 -0.153508 1.80649 0
M  V30 9535 C 895.307 3.33031 1.38285 0
M  V30 9536 O 894.411 3.28163 2.49765 0
M  V30 9537 H 893.752 0.638767 0.181309 0
M  V30 9538 H 896.282 2.04486 -0.0683883 0
M  V30 9539 H 896.292 3.68866 1.74362 0
M  V30 9540 H 894.967 4.10483 0.669043 0
M  V30 9541 H 893.544 3.04021 2.15929 0
M  V30 9542 N 895.729 -0.261212 1.5542 0
M  V30 9543 C 896.959 -1.00769 1.80358 0
M  V30 9544 C 897.367 -1.79991 0.583085 0
M  V30 9545 O 896.71 -1.77911 -0.457534 0
M  V30 9546 C 896.772 -2.00463 2.9842 0
M  V30 9547 C 896.436 -1.4007 4.35005 0
M  V30 9548 C 897.433 -0.810388 5.13545 0
M  V30 9549 C 895.118 -1.42436 4.81682 0
M  V30 9550 C 897.112 -0.251784 6.36903 0
M  V30 9551 C 894.799 -0.861897 6.04991 0
M  V30 9552 C 895.797 -0.276622 6.8244 0
M  V30 9553 O 895.485 0.277194 8.03422 0
M  V30 9554 H 895.217 -0.302839 0.604371 0
M  V30 9555 H 897.771 -0.293763 2.03288 0
M  V30 9556 H 896.001 -2.75648 2.71211 0
M  V30 9557 H 897.69 -2.61336 3.10577 0
M  V30 9558 H 898.456 -0.784719 4.7861 0
M  V30 9559 H 894.335 -1.8693 4.214 0
M  V30 9560 H 897.879 0.205678 6.97297 0
M  V30 9561 H 893.776 -0.884846 6.39407 0
M  V30 9562 H 894.544 0.167682 8.18328 0
M  V30 9563 N 897.207 -1.48554 -0.526253 0
M  V30 9564 C 898.432 -1.60686 -1.31129 0
M  V30 9565 C 898.857 -0.268701 -1.86171 0
M  V30 9566 O 898.215 0.760167 -1.64594 0
M  V30 9567 C 898.263 -2.65938 -2.43536 0
M  V30 9568 O 897.367 -2.23356 -3.46678 0
M  V30 9569 H 896.708 -0.538691 -0.388211 0
M  V30 9570 H 899.238 -1.94567 -0.632826 0
M  V30 9571 H 899.248 -2.87327 -2.89668 0
M  V30 9572 H 897.923 -3.63085 -2.02835 0
M  V30 9573 H 896.5 -2.12196 -3.06639 0
M  V30 9574 N 898.685 0.775411 -1.37205 0
M  V30 9575 C 899.617 1.89761 -1.28544 0
M  V30 9576 C 900.63 1.61542 -0.201996 0
M  V30 9577 O 901.819 1.72528 -0.457848 0
M  V30 9578 C 898.919 3.24904 -0.963885 0
M  V30 9579 C 898.092 3.80796 -2.15205 0
M  V30 9580 C 897.151 4.94407 -1.80135 0
M  V30 9581 O 896.177 5.10185 -2.52388 0
M  V30 9582 N 897.379 5.75722 -0.743298 0
M  V30 9583 H 900.144 1.97708 -2.25237 0
M  V30 9584 H 897.705 0.954348 -1.30782 0
M  V30 9585 H 899.697 3.9842 -0.710182 0
M  V30 9586 H 898.267 3.12483 -0.085632 0
M  V30 9587 H 897.487 2.99101 -2.56773 0
M  V30 9588 H 898.775 4.1487 -2.94552 0
M  V30 9589 H 898.173 5.65518 -0.143655 0
M  V30 9590 H 896.73 6.4948 -0.549446 0
M  V30 9591 N 900.163 1.21714 1.00117 0
M  V30 9592 C 901.126 0.981338 2.07129 0
M  V30 9593 C 902.126 -0.0491116 1.60725 0
M  V30 9594 O 903.316 0.188555 1.73177 0
M  V30 9595 C 900.448 0.480608 3.37495 0
M  V30 9596 H 901.641 1.93075 2.29482 0
M  V30 9597 H 899.194 1.03467 1.17151 0
M  V30 9598 H 899.929 -0.473552 3.20824 0
M  V30 9599 H 899.714 1.22393 3.72508 0
M  V30 9600 H 901.204 0.33561 4.16249 0
M  V30 9601 N 901.641 -1.19671 1.02551 0
M  V30 9602 C 903.052 -1.70964 0.750208 0
M  V30 9603 C 903.403 -1.82095 -0.730461 0
M  V30 9604 O 902.528 -1.48974 -1.56958 0
M  V30 9605 C 903.123 -3.10516 1.35518 0
M  V30 9606 C 901.682 -3.59083 1.12854 0
M  V30 9607 C 900.829 -2.36041 1.45534 0
M  V30 9608 H 903.78 -1.04559 1.19386 0
M  V30 9609 H 903.801 -3.73028 0.750378 0
M  V30 9610 H 903.313 -3.02383 2.43282 0
M  V30 9611 H 901.414 -3.72536 0.0689627 0
M  V30 9612 H 901.527 -4.43395 1.81488 0
M  V30 9613 H 899.891 -2.39214 0.87458 0
M  V30 9614 H 900.674 -2.3054 2.54374 0
M  V30 9615 N 903.119 -0.802921 -1.35613 0
M  V30 9616 C 904.344 -0.392846 -2.03645 0
M  V30 9617 C 904.769 0.987075 -1.6012 0
M  V30 9618 O 904.127 1.63849 -0.776101 0
M  V30 9619 C 904.175 -0.480208 -3.57388 0
M  V30 9620 O 903.279 0.507751 -4.09262 0
M  V30 9621 H 902.62 -0.16464 -0.643265 0
M  V30 9622 H 905.15 -1.08779 -1.73287 0
M  V30 9623 H 905.16 -0.348683 -4.06507 0
M  V30 9624 H 903.835 -1.48675 -3.88418 0
M  V30 9625 H 902.412 0.336769 -3.71376 0
M  V30 9626 N 904.597 1.47463 -0.556102 0
M  V30 9627 C 905.545 2.31692 0.205299 0
M  V30 9628 C 906.539 1.42857 0.910394 0
M  V30 9629 O 907.745 1.59628 0.831806 0
M  V30 9630 H 904.12 0.747172 0.0850775 0
M  V30 9631 H 906.091 2.93758 -0.524305 0
M  V30 9632 C 904.84 3.25487 1.22283 0
M  V30 9633 H 904.163 3.93806 0.689697 0
M  V30 9634 H 905.603 3.87257 1.7265 0
M  V30 9635 C 904.062 2.48931 2.27013 0
M  V30 9636 O 904.592 2.23296 3.33919 0
M  V30 9637 N 902.798 2.0996 2.00911 0
M  V30 9638 H 902.345 2.31008 1.13986 0
M  V30 9639 H 902.303 1.59053 2.712 0
M  V30 9640 N 906.075 0.2925 1.54862 0
M  V30 9641 C 907.008 -0.629155 2.19356 0
M  V30 9642 C 907.986 -1.13927 1.16014 0
M  V30 9643 O 909.17 -1.20904 1.44618 0
M  V30 9644 C 906.297 -1.8599 2.83064 0
M  V30 9645 C 905.343 -1.48376 3.99859 0
M  V30 9646 S 906.176 -0.546976 5.32699 0
M  V30 9647 C 907.332 -1.7857 5.99886 0
M  V30 9648 H 907.565 -0.0812166 2.97189 0
M  V30 9649 H 905.098 0.0766721 1.5421 0
M  V30 9650 H 907.056 -2.56623 3.20398 0
M  V30 9651 H 905.717 -2.37899 2.05092 0
M  V30 9652 H 904.91 -2.40002 4.43187 0
M  V30 9653 H 904.512 -0.857447 3.64038 0
M  V30 9654 H 906.804 -2.7274 6.20177 0
M  V30 9655 H 907.747 -1.39513 6.9422 0
M  V30 9656 H 908.155 -1.95856 5.29434 0
M  V30 9657 N 907.553 -1.57587 0.0200696 0
M  V30 9658 C 908.5 -2.09667 -0.964791 0
M  V30 9659 C 909.47 -0.99664 -1.32877 0
M  V30 9660 O 910.655 -1.2703 -1.42366 0
M  V30 9661 C 907.795 -2.62101 -2.24493 0
M  V30 9662 C 906.908 -3.8608 -1.93821 0
M  V30 9663 C 906.043 -4.26939 -3.16064 0
M  V30 9664 C 905.082 -5.43701 -2.81169 0
M  V30 9665 N 904.219 -5.79759 -3.9601 0
M  V30 9666 H 909.059 -2.93538 -0.513751 0
M  V30 9667 H 906.596 -1.45096 -0.242 0
M  V30 9668 H 908.554 -2.90587 -2.99358 0
M  V30 9669 H 907.184 -1.81074 -2.6723 0
M  V30 9670 H 906.236 -3.64378 -1.09237 0
M  V30 9671 H 907.548 -4.71028 -1.64115 0
M  V30 9672 H 906.702 -4.56814 -3.99257 0
M  V30 9673 H 905.441 -3.40739 -3.48924 0
M  V30 9674 H 904.446 -5.13529 -1.96387 0
M  V30 9675 H 905.671 -6.31593 -2.49535 0
M  V30 9676 H 903.617 -4.96516 -4.28729 0
M  V30 9677 H 903.534 -6.59327 -3.69896 0
M  V30 9678 H 904.802 -6.14235 -4.79933 0
M  V30 9679 N 909.032 0.252966 -1.55557 0
M  V30 9680 C 910.257 1.0038 -1.8149 0
M  V30 9681 C 910.682 1.78397 -0.596318 0
M  V30 9682 O 910.04 1.7551 0.454535 0
M  V30 9683 C 910.088 1.9222 -3.05096 0
M  V30 9684 O 909.192 3.01302 -2.81587 0
M  V30 9685 H 908.533 0.285949 -0.599274 0
M  V30 9686 H 911.063 0.275795 -2.02733 0
M  V30 9687 H 911.073 2.338 -3.34368 0
M  V30 9688 H 909.748 1.34852 -3.93431 0
M  V30 9689 H 908.325 2.63894 -2.63466 0
M  V30 9690 N 910.51 1.48831 0.518367 0
M  V30 9691 C 911.756 1.57672 1.27543 0
M  V30 9692 C 912.089 0.254915 1.9252 0
M  V30 9693 O 911.364 -0.740107 1.79868 0
M  V30 9694 C 911.647 2.72345 2.35585 0
M  V30 9695 C 911.5 4.14267 1.75224 0
M  V30 9696 C 912.819 2.82726 3.37274 0
M  V30 9697 H 909.938 0.573926 0.462361 0
M  V30 9698 H 912.58 1.8105 0.576267 0
M  V30 9699 H 910.73 2.52543 2.95219 0
M  V30 9700 H 912.402 4.45539 1.19551 0
M  V30 9701 H 910.645 4.20724 1.05706 0
M  V30 9702 H 911.316 4.90345 2.53507 0
M  V30 9703 H 913.792 3.00699 2.8761 0
M  V30 9704 H 912.668 3.6467 4.10252 0
M  V30 9705 H 912.929 1.9136 3.9854 0
M  V30 9706 N 911.988 -0.768124 1.37614 0
M  V30 9707 C 912.918 -1.89537 1.36374 0
M  V30 9708 C 913.899 -1.68513 0.231803 0
M  V30 9709 O 915.084 -1.89318 0.432705 0
M  V30 9710 C 912.214 -3.26871 1.17358 0
M  V30 9711 C 911.168 -3.62466 2.27602 0
M  V30 9712 C 910.494 -4.9838 1.93705 0
M  V30 9713 C 911.794 -3.68841 3.69802 0
M  V30 9714 H 913.488 -1.90832 2.30702 0
M  V30 9715 H 911.034 -0.91672 1.11051 0
M  V30 9716 H 912.987 -4.05371 1.15119 0
M  V30 9717 H 911.711 -3.26018 0.194865 0
M  V30 9718 H 910.37 -2.86276 2.29002 0
M  V30 9719 H 910.018 -4.94071 0.943539 0
M  V30 9720 H 909.718 -5.23165 2.6753 0
M  V30 9721 H 911.242 -5.79276 1.93059 0
M  V30 9722 H 912.656 -4.37485 3.70513 0
M  V30 9723 H 911.053 -4.05126 4.42711 0
M  V30 9724 H 912.123 -2.69415 4.03167 0
M  V30 9725 N 913.466 -1.22244 -0.994698 0
M  V30 9726 C 914.398 -0.948706 -2.08644 0
M  V30 9727 C 915.411 0.0720049 -1.62641 0
M  V30 9728 O 916.6 -0.161778 -1.77765 0
M  V30 9729 C 913.7 -0.404885 -3.36473 0
M  V30 9730 C 912.873 -1.48239 -4.11514 0
M  V30 9731 C 911.932 -0.94597 -5.17627 0
M  V30 9732 O 910.958 -1.63177 -5.45309 0
M  V30 9733 N 912.16 0.23355 -5.8003 0
M  V30 9734 H 914.925 -1.88858 -2.32707 0
M  V30 9735 H 912.486 -1.12908 -1.16032 0
M  V30 9736 H 914.478 -0.0313903 -4.04688 0
M  V30 9737 H 913.048 0.440061 -3.09487 0
M  V30 9738 H 912.268 -2.02928 -3.37955 0
M  V30 9739 H 913.556 -2.20741 -4.58422 0
M  V30 9740 H 912.954 0.80756 -5.59906 0
M  V30 9741 H 911.511 0.54845 -6.49488 0
M  V30 9742 N 914.944 1.19125 -1.03184 0
M  V30 9743 C 915.907 2.20662 -0.619766 0
M  V30 9744 C 916.907 1.57621 0.318179 0
M  V30 9745 O 918.097 1.73885 0.104783 0
M  V30 9746 C 915.229 3.40774 0.0926696 0
M  V30 9747 H 916.422 2.58633 -1.5182 0
M  V30 9748 H 913.975 1.32855 -0.823364 0
M  V30 9749 H 914.71 3.08324 1.00531 0
M  V30 9750 H 914.495 3.87766 -0.581344 0
M  V30 9751 H 915.985 4.15977 0.367792 0
M  V30 9752 N 916.422 0.810101 1.35185 0
M  V30 9753 C 917.67 0.391343 1.98275 0
M  V30 9754 C 917.991 -1.04592 1.64577 0
M  V30 9755 O 917.261 -1.72417 0.93001 0
M  V30 9756 H 915.841 0.141715 0.733434 0
M  V30 9757 H 918.503 1.03672 1.6504 0
M  V30 9758 H 917.599 0.49991 3.0807 0
M  V30 9759 N 917.9 -1.47166 0.563914 0
M  V30 9760 C 919.146 -2.03337 0.0506932 0
M  V30 9761 C 919.501 -1.42976 -1.28746 0
M  V30 9762 O 918.794 -0.578508 -1.82658 0
M  V30 9763 C 918.988 -3.57279 -0.0931797 0
M  V30 9764 C 918.817 -4.32567 1.22948 0
M  V30 9765 C 917.587 -4.72206 1.79859 0
M  V30 9766 C 919.785 -4.67282 2.14829 0
M  V30 9767 N 917.767 -5.32166 3.0606 0
M  V30 9768 C 919.138 -5.27615 3.25611 0
M  V30 9769 C 921.193 -4.49211 2.14741 0
M  V30 9770 C 919.896 -5.71784 4.36412 0
M  V30 9771 C 921.922 -4.94384 3.24559 0
M  V30 9772 C 921.284 -5.54771 4.34061 0
M  V30 9773 H 917.383 -0.779627 0.0608761 0
M  V30 9774 H 919.967 -1.79563 0.75268 0
M  V30 9775 H 918.138 -3.80806 -0.764301 0
M  V30 9776 H 919.87 -4.0009 -0.609075 0
M  V30 9777 H 916.625 -4.54372 1.33577 0
M  V30 9778 H 917.049 -5.66684 3.70404 0
M  V30 9779 H 921.691 -4.01875 1.31362 0
M  V30 9780 H 919.409 -6.18108 5.20546 0
M  V30 9781 H 922.995 -4.82167 3.25586 0
M  V30 9782 H 921.875 -5.89087 5.17635 0
M  V30 9783 N 919.378 -0.300708 -1.54705 0
M  V30 9784 C 920.308 0.568675 -2.26469 0
M  V30 9785 C 921.289 1.13817 -1.26411 0
M  V30 9786 O 922.474 1.16756 -1.55183 0
M  V30 9787 C 919.604 1.74077 -3.00524 0
M  V30 9788 C 918.558 1.30165 -4.07727 0
M  V30 9789 C 917.884 2.55888 -4.69495 0
M  V30 9790 C 919.184 0.433106 -5.20501 0
M  V30 9791 H 920.878 -0.0298851 -2.99385 0
M  V30 9792 H 918.424 -0.0158135 -1.43991 0
M  V30 9793 H 920.377 2.35506 -3.49449 0
M  V30 9794 H 919.101 2.36556 -2.25186 0
M  V30 9795 H 917.76 0.710414 -3.59651 0
M  V30 9796 H 917.408 3.16681 -3.90797 0
M  V30 9797 H 917.108 2.27207 -5.41895 0
M  V30 9798 H 918.632 3.18121 -5.21183 0
M  V30 9799 H 920.046 0.95307 -5.65322 0
M  V30 9800 H 918.443 0.240085 -5.9962 0
M  V30 9801 H 919.513 -0.541866 -4.81863 0
M  V30 9802 N 920.856 1.57574 -0.0284266 0
M  V30 9803 C 921.786 2.1321 0.952039 0
M  V30 9804 C 922.767 1.04806 1.33977 0
M  V30 9805 O 923.952 1.32635 1.41851 0
M  V30 9806 C 921.082 2.65862 2.23461 0
M  V30 9807 C 920.036 3.79047 1.98765 0
M  V30 9808 C 919.362 4.18124 3.33281 0
M  V30 9809 C 920.662 5.05151 1.32739 0
M  V30 9810 H 922.356 2.95385 0.488705 0
M  V30 9811 H 919.902 1.42092 0.233628 0
M  V30 9812 H 921.855 3.03417 2.92431 0
M  V30 9813 H 920.579 1.80848 2.71959 0
M  V30 9814 H 919.238 3.41929 1.32213 0
M  V30 9815 H 918.886 3.30092 3.79537 0
M  V30 9816 H 918.586 4.94396 3.17563 0
M  V30 9817 H 920.11 4.58262 4.0352 0
M  V30 9818 H 921.524 5.40297 1.91708 0
M  V30 9819 H 919.921 5.86416 1.27421 0
M  V30 9820 H 920.991 4.83969 0.300261 0
M  V30 9821 N 922.334 -0.244713 1.55689 0
M  V30 9822 C 923.562 -0.989944 1.8168 0
M  V30 9823 C 923.977 -1.78863 0.604449 0
M  V30 9824 O 923.334 -1.77437 -0.426907 0
M  V30 9825 C 923.385 -1.92607 3.05916 0
M  V30 9826 O 923.106 -1.1597 4.22472 0
M  V30 9827 C 924.607 -2.78711 3.44724 0
M  V30 9828 H 921.827 -0.2912 0.604519 0
M  V30 9829 H 924.371 -0.266938 2.0275 0
M  V30 9830 H 922.526 -2.60333 2.8689 0
M  V30 9831 H 922.94 -1.79311 4.92898 0
M  V30 9832 H 924.414 -3.40141 4.34751 0
M  V30 9833 H 924.891 -3.49935 2.6541 0
M  V30 9834 H 925.497 -2.16435 3.66109 0
M  V30 9835 N 923.813 -1.49104 -0.510467 0
M  V30 9836 C 925.059 -1.58346 -1.26705 0
M  V30 9837 C 925.392 -0.265121 -1.92382 0
M  V30 9838 O 924.667 0.730558 -1.80258 0
M  V30 9839 C 924.95 -2.7359 -2.34137 0
M  V30 9840 C 924.803 -4.1519 -1.73024 0
M  V30 9841 C 926.122 -2.84511 -3.3577 0
M  V30 9842 H 923.241 -0.57637 -0.459311 0
M  V30 9843 H 925.883 -1.81353 -0.566658 0
M  V30 9844 H 924.033 -2.54105 -2.93876 0
M  V30 9845 H 925.705 -4.46167 -1.17186 0
M  V30 9846 H 923.948 -4.21279 -1.03473 0
M  V30 9847 H 924.619 -4.91683 -2.50903 0
M  V30 9848 H 927.095 -3.0222 -2.86011 0
M  V30 9849 H 925.971 -3.6684 -4.08313 0
M  V30 9850 H 926.232 -1.93471 -3.97519 0
M  V30 9851 N 925.291 0.760815 -1.38019 0
M  V30 9852 C 926.254 1.85604 -1.34476 0
M  V30 9853 C 927.254 1.58897 -0.24666 0
M  V30 9854 O 928.444 1.66776 -0.50314 0
M  V30 9855 C 925.576 3.22945 -1.09176 0
M  V30 9856 H 926.769 1.90155 -2.31908 0
M  V30 9857 H 924.322 0.961746 -1.23208 0
M  V30 9858 H 925.057 3.24066 -0.123216 0
M  V30 9859 H 924.842 3.43723 -1.88672 0
M  V30 9860 H 926.332 4.03022 -1.09375 0
M  V30 9861 N 926.769 1.22769 0.988202 0
M  V30 9862 C 928.015 1.05665 1.73097 0
M  V30 9863 C 928.348 -0.406615 1.89895 0
M  V30 9864 O 927.623 -1.30132 1.44554 0
M  V30 9865 C 927.906 1.77381 3.13382 0
M  V30 9866 C 927.759 3.31332 3.04203 0
M  V30 9867 C 929.078 1.52999 4.12649 0
M  V30 9868 H 926.197 0.385258 0.628288 0
M  V30 9869 H 928.839 1.51171 1.15097 0
M  V30 9870 H 926.989 1.38696 3.62899 0
M  V30 9871 H 928.661 3.79489 2.6227 0
M  V30 9872 H 926.904 3.60767 2.40894 0
M  V30 9873 H 927.575 3.76692 4.03493 0
M  V30 9874 H 930.051 1.86611 3.71908 0
M  V30 9875 H 928.927 2.05666 5.08913 0
M  V30 9876 H 929.188 0.463615 4.39662 0
M  V30 9877 N 928.247 -1.18576 1.03814 0
M  V30 9878 C 929.495 -1.88121 0.738574 0
M  V30 9879 C 929.816 -1.80587 -0.735744 0
M  V30 9880 O 929.086 -1.22251 -1.53074 0
M  V30 9881 H 927.666 -0.696417 0.270208 0
M  V30 9882 H 930.328 -1.43912 1.31435 0
M  V30 9883 H 929.424 -2.94222 1.04115 0
M  V30 9884 N 929.725 -0.817259 -1.34754 0
M  V30 9885 C 930.673 -0.223352 -2.31525 0
M  V30 9886 C 931.667 0.632785 -1.57137 0
M  V30 9887 O 932.873 0.524757 -1.72181 0
M  V30 9888 H 929.248 -0.0534765 -0.750096 0
M  V30 9889 H 931.219 -1.05446 -2.79148 0
M  V30 9890 C 929.968 0.604784 -3.424 0
M  V30 9891 H 929.291 -0.0446664 -3.99775 0
M  V30 9892 H 930.731 0.986543 -4.12363 0
M  V30 9893 C 929.19 1.77478 -2.86362 0
M  V30 9894 O 929.72 2.87273 -2.8078 0
M  V30 9895 N 927.926 1.58971 -2.43263 0
M  V30 9896 H 927.473 0.696598 -2.48003 0
M  V30 9897 H 927.431 2.37408 -2.06119 0
M  V30 9898 N 931.203 1.46865 -0.571711 0
M  V30 9899 C 932.452 2.01636 -0.050881 0
M  V30 9900 C 932.765 1.45001 1.31279 0
M  V30 9901 O 933.971 1.91523 1.92435 0
M  V30 9902 C 932.427 3.59877 -0.0404114 0
M  V30 9903 C 932.035 4.25506 -1.40172 0
M  V30 9904 C 933.779 4.22346 0.42705 0
M  V30 9905 C 931.686 5.75795 -1.34958 0
M  V30 9906 H 930.616 0.753846 -0.0152514 0
M  V30 9907 H 933.267 1.68711 -0.721723 0
M  V30 9908 H 931.649 3.89829 0.696374 0
M  V30 9909 H 932.823 4.07178 -2.15737 0
M  V30 9910 H 931.138 3.75086 -1.8083 0
M  V30 9911 H 933.735 5.32499 0.484688 0
M  V30 9912 H 934.078 3.9052 1.44222 0
M  V30 9913 H 934.611 3.9698 -0.255326 0
M  V30 9914 H 931.35 6.12265 -2.3412 0
M  V30 9915 H 930.87 5.96419 -0.635962 0
M  V30 9916 H 932.549 6.38294 -1.05779 0
M  V30 9917 N 932.681 0.308908 1.54543 0
M  V30 9918 C 933.93 -0.298854 1.99474 0
M  V30 9919 C 934.243 -1.54393 1.20093 0
M  V30 9920 O 935.449 -2.22677 1.55329 0
M  V30 9921 C 933.905 -0.58303 3.55146 0
M  V30 9922 C 933.513 0.644157 4.43345 0
M  V30 9923 C 935.257 -1.15155 4.08582 0
M  V30 9924 C 933.164 0.332694 5.90463 0
M  V30 9925 H 932.094 -0.115445 0.74511 0
M  V30 9926 H 934.745 0.418848 1.78656 0
M  V30 9927 H 933.127 -1.36053 3.71894 0
M  V30 9928 H 934.301 1.42012 4.38371 0
M  V30 9929 H 932.616 1.13186 4.00722 0
M  V30 9930 H 935.213 -1.39896 5.16075 0
M  V30 9931 H 935.556 -2.09632 3.59667 0
M  V30 9932 H 936.089 -0.435571 3.95408 0
M  V30 9933 H 932.828 1.24624 6.43544 0
M  V30 9934 H 932.348 -0.405844 5.98425 0
M  V30 9935 H 934.027 -0.0628545 6.46969 0
M  V30 9936 N 934.159 -1.57557 0.0367827 0
M  V30 9937 C 935.405 -1.92399 -0.641133 0
M  V30 9938 C 935.738 -0.914191 -1.71336 0
M  V30 9939 O 935.013 0.0619616 -1.94401 0
M  V30 9940 C 935.296 -3.37689 -1.25052 0
M  V30 9941 C 935.149 -4.4941 -0.187326 0
M  V30 9942 C 936.468 -3.8309 -2.16634 0
M  V30 9943 H 933.587 -0.699666 -0.231597 0
M  V30 9944 H 936.229 -1.89759 0.0956083 0
M  V30 9945 H 934.379 -3.40069 -1.87843 0
M  V30 9946 H 936.051 -4.59161 0.443736 0
M  V30 9947 H 934.294 -4.31065 0.486313 0
M  V30 9948 H 934.965 -5.48119 -0.653459 0
M  V30 9949 H 937.441 -3.82494 -1.63821 0
M  V30 9950 H 936.317 -4.85429 -2.56222 0
M  V30 9951 H 936.578 -3.19028 -3.06062 0
M  V30 9952 N 935.637 0.236453 -1.55816 0
M  V30 9953 C 936.567 1.29639 -1.94206 0
M  V30 9954 C 937.548 1.49667 -0.808319 0
M  V30 9955 O 938.733 1.621 -1.06945 0
M  V30 9956 C 935.863 2.64914 -2.24584 0
M  V30 9957 C 934.817 2.59565 -3.40308 0
M  V30 9958 C 934.143 3.98732 -3.56254 0
M  V30 9959 C 935.443 2.15642 -4.75706 0
M  V30 9960 H 937.137 0.977552 -2.82992 0
M  V30 9961 H 934.683 0.468804 -1.36155 0
M  V30 9962 H 936.636 3.39209 -2.50031 0
M  V30 9963 H 935.36 2.98455 -1.32636 0
M  V30 9964 H 934.019 1.87728 -3.14887 0
M  V30 9965 H 933.667 4.29556 -2.61707 0
M  V30 9966 H 933.367 3.96039 -4.34082 0
M  V30 9967 H 934.891 4.74711 -3.84033 0
M  V30 9968 H 936.305 2.79673 -5.00456 0
M  V30 9969 H 934.702 2.24039 -5.56711 0
M  V30 9970 H 935.772 1.10831 -4.72064 0
M  V30 9971 N 937.115 1.49373 0.502552 0
M  V30 9972 C 938.364 1.58028 1.25339 0
M  V30 9973 C 938.677 0.271494 1.93707 0
M  V30 9974 O 939.883 0.236584 2.70467 0
M  V30 9975 C 938.339 2.78817 2.27572 0
M  V30 9976 C 937.947 4.16448 1.65151 0
M  V30 9977 C 939.691 2.96802 3.03494 0
M  V30 9978 C 937.598 5.28461 2.65486 0
M  V30 9979 H 936.528 0.588396 0.471494 0
M  V30 9980 H 939.179 1.75756 0.52744 0
M  V30 9981 H 937.561 2.5458 3.03323 0
M  V30 9982 H 938.735 4.50816 0.954029 0
M  V30 9983 H 937.05 4.03809 1.01625 0
M  V30 9984 H 939.647 3.77656 3.78524 0
M  V30 9985 H 939.99 2.07303 3.61014 0
M  V30 9986 H 940.523 3.21071 2.34858 0
M  V30 9987 H 937.262 6.20015 2.12749 0
M  V30 9988 H 936.782 4.9855 3.33479 0
M  V30 9989 H 938.461 5.5773 3.27943 0
M  V30 9990 N 938.594 -0.753485 1.38421 0
M  V30 9991 C 939.84 -1.51485 1.34834 0
M  V30 9992 C 940.173 -1.94102 -0.0615381 0
M  V30 9993 O 939.448 -1.65439 -1.02274 0
M  V30 9994 C 939.731 -2.76736 2.30411 0
M  V30 9995 C 939.584 -2.40256 3.80259 0
M  V30 9996 C 940.903 -3.7876 2.24119 0
M  V30 9997 H 938.022 -0.549534 0.491102 0
M  V30 9998 H 940.664 -0.863006 1.6927 0
M  V30 9999 H 938.814 -3.32357 2.01175 0
M  V30 10000 H 940.486 -1.90409 4.20169 0
M  V30 10001 H 938.729 -1.72714 3.97935 0
M  V30 10002 H 939.4 -3.29869 4.42595 0
M  V30 10003 H 941.876 -3.32679 2.49928 0
M  V30 10004 H 940.752 -4.64092 2.93104 0
M  V30 10005 H 941.013 -4.24352 1.24006 0
M  V30 10006 N 940.072 -1.23292 -0.981677 0
M  V30 10007 C 941.035 -1.01417 -2.05542 0
M  V30 10008 C 942.035 0.0235354 -1.60783 0
M  V30 10009 O 943.225 -0.216082 -1.72855 0
M  V30 10010 C 940.357 -0.534239 -3.36688 0
M  V30 10011 H 941.55 -1.96702 -2.26381 0
M  V30 10012 H 939.103 -1.05318 -1.1549 0
M  V30 10013 H 939.838 0.422452 -3.21537 0
M  V30 10014 H 939.623 -1.28304 -3.70514 0
M  V30 10015 H 941.113 -0.40179 -4.15663 0
M  V30 10016 N 941.55 1.18024 -1.04442 0
M  V30 10017 C 942.798 1.87727 -0.74854 0
M  V30 10018 C 943.119 1.80975 0.726156 0
M  V30 10019 O 942.389 1.23061 1.52423 0
M  V30 10020 H 940.969 0.694974 -0.273897 0
M  V30 10021 H 943.631 1.43213 -1.32197 0
M  V30 10022 H 942.727 2.93665 -1.05674 0
M  V30 10023 N 943.028 0.824394 1.34319 0
M  V30 10024 C 943.991 0.252696 2.27803 0
M  V30 10025 C 944.991 -0.570254 1.50349 0
M  V30 10026 O 946.181 -0.386145 1.69866 0
M  V30 10027 C 943.313 -0.645575 3.34731 0
M  V30 10028 H 944.506 1.07742 2.79878 0
M  V30 10029 H 942.059 0.596367 1.44475 0
M  V30 10030 H 942.794 -1.4933 2.87873 0
M  V30 10031 H 942.579 -0.0569478 3.92059 0
M  V30 10032 H 944.069 -1.03933 4.0446 0
M  V30 10033 N 944.506 -1.46559 0.579492 0
M  V30 10034 C 945.754 -2.02 0.0637157 0
M  V30 10035 C 946.075 -1.45378 -1.29962 0
M  V30 10036 O 945.345 -0.637262 -1.85245 0
M  V30 10037 H 943.925 -0.746717 0.0205638 0
M  V30 10038 H 946.587 -1.79702 0.754544 0
M  V30 10039 H 945.683 -3.12099 -0.00770254 0
M  V30 10040 N 945.984 -0.3171 -1.54377 0
M  V30 10041 C 946.916 0.58571 -2.2159 0
M  V30 10042 C 947.929 1.08495 -1.21378 0
M  V30 10043 O 949.118 0.999638 -1.47883 0
M  V30 10044 C 946.218 1.8157 -2.86156 0
M  V30 10045 C 945.391 1.45625 -4.12447 0
M  V30 10046 C 944.45 2.54308 -4.60667 0
M  V30 10047 O 943.476 2.18724 -5.25498 0
M  V30 10048 N 944.678 3.85129 -4.34345 0
M  V30 10049 H 947.443 0.0102247 -2.99698 0
M  V30 10050 H 945.004 -0.140011 -1.61293 0
M  V30 10051 H 946.996 2.53657 -3.15341 0
M  V30 10052 H 945.566 2.29919 -2.11793 0
M  V30 10053 H 944.786 0.567294 -3.90097 0
M  V30 10054 H 946.074 1.19169 -4.94648 0
M  V30 10055 H 945.472 4.16841 -3.8244 0
M  V30 10056 H 944.029 4.53466 -4.68201 0
M  V30 10057 N 947.462 1.57535 -0.0451378 0
M  V30 10058 C 948.709 1.92451 0.629987 0
M  V30 10059 C 949.037 0.92298 1.71206 0
M  V30 10060 O 948.292 -0.0656626 1.9559 0
M  V30 10061 C 948.591 3.34065 1.27024 0
M  V30 10062 C 948.257 4.49785 0.316971 0
M  V30 10063 C 946.919 4.81169 0.0546406 0
M  V30 10064 C 949.271 5.20111 -0.336693 0
M  V30 10065 C 946.599 5.8023 -0.86889 0
M  V30 10066 C 948.951 6.2016 -1.24838 0
M  V30 10067 C 947.615 6.49976 -1.51944 0
M  V30 10068 H 946.885 0.704228 0.230529 0
M  V30 10069 H 949.532 1.91182 -0.110328 0
M  V30 10070 H 947.837 3.31672 2.08568 0
M  V30 10071 H 949.534 3.58359 1.79945 0
M  V30 10072 H 946.124 4.2529 0.531614 0
M  V30 10073 H 950.308 4.96082 -0.147105 0
M  V30 10074 H 945.564 6.0167 -1.08643 0
M  V30 10075 H 949.738 6.73767 -1.76098 0
M  V30 10076 H 947.365 7.26551 -2.2367 0
M  V30 10077 N 948.94 -0.228186 1.55939 0
M  V30 10078 C 950.165 -0.974795 1.83064 0
M  V30 10079 C 950.59 -1.77426 0.624624 0
M  V30 10080 O 949.948 -1.76211 -0.426556 0
M  V30 10081 C 949.996 -1.87342 3.08116 0
M  V30 10082 O 949.1 -2.96784 2.86344 0
M  V30 10083 H 948.441 -0.276379 0.603747 0
M  V30 10084 H 950.971 -0.243507 2.03146 0
M  V30 10085 H 950.981 -2.28451 3.38045 0
M  V30 10086 H 949.656 -1.28575 3.95526 0
M  V30 10087 H 948.233 -2.59669 2.67631 0
M  V30 10088 N 950.418 -1.49637 -0.494624 0
M  V30 10089 C 951.365 -1.66776 -1.59545 0
M  V30 10090 C 952.335 -0.509159 -1.58104 0
M  V30 10091 O 953.52 -0.736949 -1.75993 0
M  V30 10092 C 950.66 -1.74624 -2.97658 0
M  V30 10093 C 949.773 -3.01831 -3.09067 0
M  V30 10094 C 948.908 -3.00619 -4.37952 0
M  V30 10095 C 947.947 -4.22378 -4.43016 0
M  V30 10096 N 947.084 -4.1904 -5.63339 0
M  V30 10097 H 951.924 -2.60767 -1.44238 0
M  V30 10098 H 949.461 -1.29286 -0.701673 0
M  V30 10099 H 951.419 -1.77156 -3.77719 0
M  V30 10100 H 950.049 -0.840936 -3.11654 0
M  V30 10101 H 949.101 -3.08881 -2.22029 0
M  V30 10102 H 950.413 -3.91823 -3.08669 0
M  V30 10103 H 949.567 -3.01749 -5.26339 0
M  V30 10104 H 948.306 -2.08416 -4.40924 0
M  V30 10105 H 947.311 -4.21485 -3.5303 0
M  V30 10106 H 948.536 -5.15781 -4.41755 0
M  V30 10107 H 946.482 -3.29677 -5.67141 0
M  V30 10108 H 946.399 -5.02774 -5.64583 0
M  V30 10109 H 947.667 -4.24281 -6.53916 0
M  V30 10110 N 951.896 0.746133 -1.38819 0
M  V30 10111 C 952.828 1.86991 -1.3254 0
M  V30 10112 C 953.841 1.61077 -0.236216 0
M  V30 10113 O 955.03 1.71518 -0.494341 0
M  V30 10114 C 952.13 3.22786 -1.03258 0
M  V30 10115 C 951.303 3.76145 -2.23234 0
M  V30 10116 C 950.362 4.90474 -1.90581 0
M  V30 10117 O 949.388 5.04717 -2.63153 0
M  V30 10118 N 950.59 5.74015 -0.86525 0
M  V30 10119 H 953.355 1.92885 -2.2938 0
M  V30 10120 H 950.916 0.926392 -1.32776 0
M  V30 10121 H 952.908 3.96824 -0.794533 0
M  V30 10122 H 951.478 3.12231 -0.151895 0
M  V30 10123 H 950.698 2.93587 -2.63059 0
M  V30 10124 H 951.986 4.08528 -3.03285 0
M  V30 10125 H 951.384 5.65086 -0.263577 0
M  V30 10126 H 949.941 6.48168 -0.687087 0
M  V30 10127 N 953.375 1.23811 0.975125 0
M  V30 10128 C 954.621 1.08502 1.72043 0
M  V30 10129 C 954.976 -0.373437 1.88741 0
M  V30 10130 O 954.269 -1.27248 1.43243 0
M  V30 10131 C 954.463 1.74994 3.11628 0
M  V30 10132 C 954.292 3.27155 3.08544 0
M  V30 10133 C 953.062 3.96338 3.1344 0
M  V30 10134 C 955.26 4.23851 2.91299 0
M  V30 10135 N 953.242 5.35439 3.00297 0
M  V30 10136 C 954.613 5.499 2.86375 0
M  V30 10137 C 956.668 4.14519 2.75824 0
M  V30 10138 C 955.371 6.67687 2.67558 0
M  V30 10139 C 957.397 5.31975 2.58372 0
M  V30 10140 C 956.759 6.56953 2.5415 0
M  V30 10141 H 952.858 0.451607 0.638416 0
M  V30 10142 H 955.442 1.56617 1.15669 0
M  V30 10143 H 953.613 1.29404 3.66209 0
M  V30 10144 H 955.345 1.52614 3.74822 0
M  V30 10145 H 952.1 3.47453 3.21828 0
M  V30 10146 H 952.524 6.08381 2.96987 0
M  V30 10147 H 957.166 3.18662 2.77874 0
M  V30 10148 H 954.884 7.63673 2.64251 0
M  V30 10149 H 958.47 5.266 2.47354 0
M  V30 10150 H 957.35 7.46309 2.40817 0
M  V30 10151 N 954.853 -1.17469 1.05066 0
M  V30 10152 C 955.816 -2.19648 0.654793 0
M  V30 10153 C 956.816 -1.58107 -0.293063 0
M  V30 10154 O 958.006 -1.74029 -0.077106 0
M  V30 10155 C 955.138 -3.40878 -0.0384437 0
M  V30 10156 H 956.331 -2.56184 1.55915 0
M  V30 10157 H 953.884 -1.31528 0.844396 0
M  V30 10158 H 954.619 -3.09885 -0.956133 0
M  V30 10159 H 954.404 -3.86792 0.642961 0
M  V30 10160 H 955.894 -4.1651 -0.301568 0
M  V30 10161 N 956.331 -0.831506 -1.3388 0
M  V30 10162 C 957.241 -0.261688 -2.33136 0
M  V30 10163 C 958.257 0.608429 -1.63016 0
M  V30 10164 O 959.433 0.514297 -1.94723 0
M  V30 10165 C 956.498 0.559957 -3.42148 0
M  V30 10166 C 955.559 -0.333569 -4.28002 0
M  V30 10167 C 954.792 0.448956 -5.31808 0
M  V30 10168 O 955.015 1.6814 -5.45055 0
M  V30 10169 O 953.949 -0.173197 -6.01651 0
M  V30 10170 H 957.775 -1.08343 -2.83717 0
M  V30 10171 H 955.36 -0.593849 -1.3709 0
M  V30 10172 H 957.242 1.02712 -4.08691 0
M  V30 10173 H 955.917 1.35888 -2.93796 0
M  V30 10174 H 954.824 -0.848416 -3.64352 0
M  V30 10175 H 956.157 -1.09707 -4.79818 0
M  V30 10176 N 957.809 1.4625 -0.587256 0
M  V30 10177 C 959.039 2.06444 -0.0802135 0
M  V30 10178 C 959.447 1.43585 1.23207 0
M  V30 10179 O 958.79 0.536956 1.75677 0
M  V30 10180 C 958.852 3.59165 0.155129 0
M  V30 10181 C 958.516 4.44243 -1.07225 0
M  V30 10182 C 959.513 4.80497 -1.98542 0
M  V30 10183 C 957.198 4.8531 -1.29537 0
M  V30 10184 C 959.192 5.56649 -3.10516 0
M  V30 10185 C 956.879 5.61221 -2.41815 0
M  V30 10186 C 957.877 5.96805 -3.32134 0
M  V30 10187 O 957.565 6.71181 -4.42461 0
M  V30 10188 H 957.297 0.673626 -0.0566063 0
M  V30 10189 H 959.851 1.88797 -0.809004 0
M  V30 10190 H 958.081 3.75137 0.938583 0
M  V30 10191 H 959.77 4.01271 0.611243 0
M  V30 10192 H 960.536 4.49345 -1.82522 0
M  V30 10193 H 956.415 4.5706 -0.601431 0
M  V30 10194 H 959.959 5.84343 -3.81037 0
M  V30 10195 H 955.856 5.91786 -2.57797 0
M  V30 10196 H 956.624 6.8961 -4.40886 0
M  V30 10197 N 959.287 0.325282 1.54207 0
M  V30 10198 C 960.536 -0.27768 1.99779 0
M  V30 10199 C 960.849 -1.5311 1.21723 0
M  V30 10200 O 962.055 -2.21017 1.57682 0
M  V30 10201 C 960.511 -0.545329 3.55745 0
M  V30 10202 C 960.119 0.691143 4.42637 0
M  V30 10203 C 961.863 -1.10815 4.09781 0
M  V30 10204 C 959.77 0.395302 5.90077 0
M  V30 10205 H 958.7 -0.107536 0.746292 0
M  V30 10206 H 961.351 0.437773 1.78202 0
M  V30 10207 H 959.733 -1.32101 3.73317 0
M  V30 10208 H 960.907 1.46653 4.3684 0
M  V30 10209 H 959.222 1.1743 3.99499 0
M  V30 10210 H 961.819 -1.34414 5.1753 0
M  V30 10211 H 962.162 -2.05806 3.6187 0
M  V30 10212 H 962.695 -0.393608 3.95848 0
M  V30 10213 H 959.434 1.31443 6.42186 0
M  V30 10214 H 958.954 -0.34235 5.98822 0
M  V30 10215 H 960.633 0.00576877 6.47 0
M  V30 10216 N 960.765 -1.57509 0.0534917 0
M  V30 10217 C 961.695 -2.14698 -0.917999 0
M  V30 10218 C 962.676 -1.06924 -1.32292 0
M  V30 10219 O 963.861 -1.34875 -1.39723 0
M  V30 10220 C 960.991 -2.69383 -2.19203 0
M  V30 10221 C 959.945 -3.82161 -1.9271 0
M  V30 10222 C 959.271 -4.23373 -3.26587 0
M  V30 10223 C 960.571 -5.07199 -1.24686 0
M  V30 10224 H 962.265 -2.96125 -0.44165 0
M  V30 10225 H 959.811 -1.42446 -0.210993 0
M  V30 10226 H 961.764 -3.08031 -2.87567 0
M  V30 10227 H 960.488 -1.85151 -2.69048 0
M  V30 10228 H 959.147 -3.43989 -1.26757 0
M  V30 10229 H 958.795 -3.36089 -3.74237 0
M  V30 10230 H 958.495 -4.99385 -3.09658 0
M  V30 10231 H 960.019 -4.64623 -3.96178 0
M  V30 10232 H 961.433 -5.43279 -1.83088 0
M  V30 10233 H 959.83 -5.88369 -1.18076 0
M  V30 10234 H 960.9 -4.84386 -0.223227 0
M  V30 10235 N 962.243 0.219913 -1.56058 0
M  V30 10236 C 963.49 0.944064 -1.79147 0
M  V30 10237 C 963.818 1.84268 -0.622531 0
M  V30 10238 O 963.073 1.91713 0.393013 0
M  V30 10239 C 963.372 1.81293 -3.08006 0
M  V30 10240 C 963.038 1.0674 -4.38084 0
M  V30 10241 C 961.7 0.86147 -4.73426 0
M  V30 10242 C 964.052 0.541049 -5.18384 0
M  V30 10243 C 961.38 0.117307 -5.86583 0
M  V30 10244 C 963.732 -0.189779 -6.32315 0
M  V30 10245 C 962.396 -0.406951 -6.66258 0
M  V30 10246 H 961.666 0.345458 -0.655546 0
M  V30 10247 H 964.313 0.212121 -1.90322 0
M  V30 10248 H 962.618 2.61278 -2.9196 0
M  V30 10249 H 964.315 2.3754 -3.23072 0
M  V30 10250 H 960.905 1.23789 -4.10334 0
M  V30 10251 H 965.089 0.687617 -4.91514 0
M  V30 10252 H 960.345 -0.0611651 -6.11369 0
M  V30 10253 H 964.519 -0.605134 -6.93766 0
M  V30 10254 H 962.146 -0.985511 -7.53785 0
M  V30 10255 N 963.721 1.49897 0.486681 0
M  V30 10256 C 964.684 1.67086 1.56891 0
M  V30 10257 C 965.684 0.54209 1.51387 0
M  V30 10258 O 966.874 0.80883 1.54284 0
M  V30 10259 C 964.006 1.68159 2.96539 0
M  V30 10260 H 965.199 2.63626 1.42974 0
M  V30 10261 H 962.752 1.39143 0.711954 0
M  V30 10262 H 963.487 0.732562 3.15918 0
M  V30 10263 H 963.272 2.50147 3.01942 0
M  V30 10264 H 964.762 1.83466 3.7514 0
M  V30 10265 N 965.199 -0.738761 1.39212 0
M  V30 10266 C 966.162 -1.83441 1.37412 0
M  V30 10267 C 967.162 -1.58484 0.271908 0
M  V30 10268 O 968.352 -1.65954 0.529609 0
M  V30 10269 C 965.484 -3.21167 1.143 0
M  V30 10270 H 966.677 -1.86441 2.34904 0
M  V30 10271 H 964.23 -0.942023 1.24722 0
M  V30 10272 H 964.965 -3.23829 0.174756 0
M  V30 10273 H 964.75 -3.40678 1.94116 0
M  V30 10274 H 966.24 -4.01231 1.15773 0
M  V30 10275 N 966.677 -1.24326 -0.968545 0
M  V30 10276 C 967.607 -1.05951 -2.08079 0
M  V30 10277 C 968.588 0.0272666 -1.70078 0
M  V30 10278 O 969.773 -0.139644 -1.93697 0
M  V30 10279 C 966.903 -0.662623 -3.4092 0
M  V30 10280 C 965.857 -1.69807 -3.92873 0
M  V30 10281 C 965.183 -1.15628 -5.22048 0
M  V30 10282 C 966.483 -3.09383 -4.20808 0
M  V30 10283 H 968.177 -1.98984 -2.23709 0
M  V30 10284 H 965.723 -0.958112 -1.075 0
M  V30 10285 H 967.676 -0.521071 -4.18166 0
M  V30 10286 H 966.4 0.303399 -3.25188 0
M  V30 10287 H 965.059 -1.82783 -3.17783 0
M  V30 10288 H 964.707 -0.180888 -5.02675 0
M  V30 10289 H 964.407 -1.84822 -5.57776 0
M  V30 10290 H 965.931 -1.02683 -6.01904 0
M  V30 10291 H 967.345 -2.99642 -4.88761 0
M  V30 10292 H 965.742 -3.75923 -4.67763 0
M  V30 10293 H 966.812 -3.57486 -3.27616 0
M  V30 10294 N 968.156 1.1691 -1.05688 0
M  V30 10295 C 969.086 2.23275 -0.683402 0
M  V30 10296 C 970.067 1.6704 0.321206 0
M  V30 10297 O 971.252 1.93191 0.197691 0
M  V30 10298 C 968.382 3.47244 -0.0626006 0
M  V30 10299 C 967.336 4.16333 -0.992513 0
M  V30 10300 C 966.662 5.34182 -0.23533 0
M  V30 10301 C 967.962 4.68002 -2.31886 0
M  V30 10302 H 969.656 2.54771 -1.57264 0
M  V30 10303 H 967.202 1.2246 -0.757606 0
M  V30 10304 H 969.155 4.20874 0.210503 0
M  V30 10305 H 967.879 3.1503 0.861616 0
M  V30 10306 H 966.538 3.44622 -1.25026 0
M  V30 10307 H 966.186 4.9822 0.69181 0
M  V30 10308 H 965.886 5.81346 -0.855002 0
M  V30 10309 H 967.41 6.10592 0.0303717 0
M  V30 10310 H 968.824 5.33244 -2.10531 0
M  V30 10311 H 967.221 5.25764 -2.89296 0
M  V30 10312 H 968.291 3.84541 -2.95391 0
M  V30 10313 N 969.634 0.838594 1.33437 0
M  V30 10314 C 970.564 0.286672 2.31734 0
M  V30 10315 C 971.545 -0.605451 1.5896 0
M  V30 10316 O 972.73 -0.529059 1.86854 0
M  V30 10317 C 969.86 -0.539311 3.43087 0
M  V30 10318 C 968.814 0.256997 4.27228 0
M  V30 10319 C 968.14 -0.692718 5.30194 0
M  V30 10320 C 969.44 1.47391 5.01072 0
M  V30 10321 H 971.134 1.10798 2.78144 0
M  V30 10322 H 968.68 0.534235 1.33723 0
M  V30 10323 H 970.633 -0.935724 4.1088 0
M  V30 10324 H 969.357 -1.39383 2.95364 0
M  V30 10325 H 968.016 0.634967 3.61059 0
M  V30 10326 H 967.664 -1.54363 4.78729 0
M  V30 10327 H 967.364 -0.164023 5.87371 0
M  V30 10328 H 968.888 -1.08665 6.00853 0
M  V30 10329 H 970.302 1.15067 5.61634 0
M  V30 10330 H 968.699 1.93937 5.67898 0
M  V30 10331 H 969.769 2.24382 4.29861 0
M  V30 10332 N 971.112 -1.45937 0.595003 0
M  V30 10333 C 972.358 -2.0262 0.0854317 0
M  V30 10334 C 972.691 -1.46402 -1.27594 0
M  V30 10335 O 971.966 -0.633823 -1.83883 0
M  V30 10336 C 972.249 -3.60085 0.0329075 0
M  V30 10337 C 972.102 -4.26663 1.42405 0
M  V30 10338 C 973.421 -4.35101 -0.661426 0
M  V30 10339 H 970.54 -0.736282 0.0325196 0
M  V30 10340 H 973.182 -1.73938 0.764563 0
M  V30 10341 H 971.332 -3.84652 -0.545439 0
M  V30 10342 H 973.004 -4.13321 2.04851 0
M  V30 10343 H 971.247 -3.85549 1.98833 0
M  V30 10344 H 971.918 -5.35497 1.33965 0
M  V30 10345 H 974.394 -4.15753 -0.169977 0
M  V30 10346 H 973.27 -5.44829 -0.667243 0
M  V30 10347 H 973.531 -4.07053 -1.72513 0
M  V30 10348 N 972.59 -0.333456 -1.54032 0
M  V30 10349 C 973.836 0.266527 -2.01041 0
M  V30 10350 C 974.169 1.51006 -1.2211 0
M  V30 10351 O 973.444 1.92078 -0.306016 0
M  V30 10352 C 973.727 0.59078 -3.55221 0
M  V30 10353 C 973.58 -0.664143 -4.4487 0
M  V30 10354 C 974.899 1.40447 -4.17088 0
M  V30 10355 H 972.018 0.0953979 -0.7308 0
M  V30 10356 H 974.66 -0.451995 -1.84545 0
M  V30 10357 H 972.81 1.20292 -3.69408 0
M  V30 10358 H 974.482 -1.30227 -4.42537 0
M  V30 10359 H 972.725 -1.29106 -4.14143 0
M  V30 10360 H 973.396 -0.392664 -5.50602 0
M  V30 10361 H 975.872 0.886946 -4.06537 0
M  V30 10362 H 974.748 1.6001 -5.2506 0
M  V30 10363 H 975.009 2.40357 -3.71054 0
M  V30 10364 N 974.068 1.57479 -0.061844 0
M  V30 10365 C 975.308 1.94982 0.613309 0
M  V30 10366 C 975.672 0.940729 1.67375 0
M  V30 10367 O 976.873 1.20307 2.40374 0
M  V30 10368 C 975.144 3.37208 1.18429 0
M  V30 10369 S 976.703 3.96678 1.87596 0
M  V30 10370 H 973.521 0.681969 0.201096 0
M  V30 10371 H 976.123 1.95045 -0.133328 0
M  V30 10372 H 974.827 4.08441 0.400522 0
M  V30 10373 H 974.358 3.40665 1.96751 0
M  V30 10374 H 976.373 3.82772 3.15754 0
M  V30 10375 N 975.546 -0.211634 1.56173 0
M  V30 10376 C 976.792 -0.935935 1.79911 0
M  V30 10377 C 977.125 -1.83589 0.633155 0
M  V30 10378 O 976.4 -1.91004 -0.367132 0
M  V30 10379 C 976.683 -1.76638 3.13801 0
M  V30 10380 C 976.536 -0.892259 4.40861 0
M  V30 10381 C 977.855 -2.74224 3.44223 0
M  V30 10382 H 974.974 -0.338822 0.654499 0
M  V30 10383 H 977.616 -0.20422 1.88899 0
M  V30 10384 H 975.766 -2.39021 3.0627 0
M  V30 10385 H 977.438 -0.284407 4.60422 0
M  V30 10386 H 975.681 -0.198145 4.33347 0
M  V30 10387 H 976.352 -1.50793 5.31004 0
M  V30 10388 H 978.828 -2.21975 3.51946 0
M  V30 10389 H 977.704 -3.29424 4.39057 0
M  V30 10390 H 977.965 -3.52455 2.66885 0
M  V30 10391 N 977.024 -1.50153 -0.478725 0
M  V30 10392 C 978.273 -1.60002 -1.22809 0
M  V30 10393 C 978.586 -0.302277 -1.9325 0
M  V30 10394 O 979.792 -0.279583 -2.70057 0
M  V30 10395 C 978.248 -2.82402 -2.23108 0
M  V30 10396 C 977.856 -4.19023 -1.58505 0
M  V30 10397 C 979.6 -3.01593 -2.98734 0
M  V30 10398 C 977.507 -5.32618 -2.57045 0
M  V30 10399 H 976.437 -0.595822 -0.462073 0
M  V30 10400 H 979.088 -1.76573 -0.499412 0
M  V30 10401 H 977.47 -2.59373 -2.99235 0
M  V30 10402 H 978.644 -4.52277 -0.882187 0
M  V30 10403 H 976.959 -4.05374 -0.951877 0
M  V30 10404 H 979.556 -3.8363 -3.72468 0
M  V30 10405 H 979.899 -2.1302 -3.57671 0
M  V30 10406 H 980.432 -3.24766 -2.29721 0
M  V30 10407 H 977.171 -6.23321 -2.02858 0
M  V30 10408 H 976.691 -5.03792 -3.25505 0
M  V30 10409 H 978.37 -5.62877 -3.19028 0
M  V30 10410 N 978.502 0.731368 -1.39602 0
M  V30 10411 C 979.749 1.491 -1.37024 0
M  V30 10412 C 980.077 1.94473 0.0326423 0
M  V30 10413 O 979.332 1.6737 1.01418 0
M  V30 10414 C 979.631 2.74224 -2.29208 0
M  V30 10415 C 979.297 2.477 -3.7677 0
M  V30 10416 C 977.959 2.40175 -4.16976 0
M  V30 10417 C 980.311 2.25098 -4.70086 0
M  V30 10418 C 977.639 2.08095 -5.48556 0
M  V30 10419 C 979.991 1.94534 -6.01946 0
M  V30 10420 C 978.655 1.85481 -6.41212 0
M  V30 10421 H 977.925 0.545595 -0.501405 0
M  V30 10422 H 980.572 0.839127 -1.72136 0
M  V30 10423 H 978.877 3.44171 -1.87225 0
M  V30 10424 H 980.574 3.32264 -2.24504 0
M  V30 10425 H 977.164 2.54436 -3.44906 0
M  V30 10426 H 981.348 2.29876 -4.39853 0
M  V30 10427 H 976.604 1.99611 -5.77897 0
M  V30 10428 H 980.778 1.76054 -6.73779 0
M  V30 10429 H 978.405 1.60389 -7.43088 0
M  V30 10430 N 979.98 1.24838 0.961938 0
M  V30 10431 C 980.943 1.04674 2.03902 0
M  V30 10432 C 981.943 0.00204674 1.608 0
M  V30 10433 O 983.133 0.243555 1.72489 0
M  V30 10434 C 980.265 0.587736 3.35795 0
M  V30 10435 H 981.458 2.00278 2.23223 0
M  V30 10436 H 979.011 1.07142 1.138 0
M  V30 10437 H 979.746 -0.371244 3.22168 0
M  V30 10438 H 979.531 1.34182 3.68426 0
M  V30 10439 H 981.021 0.467867 4.14971 0
M  V30 10440 N 981.458 -1.16348 1.06306 0
M  V30 10441 C 982.707 -1.8622 0.774909 0
M  V30 10442 C 983.02 -1.82598 -0.701245 0
M  V30 10443 O 984.226 -2.48051 -1.10377 0
M  V30 10444 C 982.682 -3.34182 1.33604 0
M  V30 10445 C 982.29 -3.46279 2.84245 0
M  V30 10446 C 984.034 -4.09309 1.12544 0
M  V30 10447 C 981.941 -4.88327 3.33602 0
M  V30 10448 H 980.871 -0.697574 0.286194 0
M  V30 10449 H 983.522 -1.31311 1.28179 0
M  V30 10450 H 981.904 -3.88698 0.756937 0
M  V30 10451 H 983.078 -3.01923 3.48108 0
M  V30 10452 H 981.393 -2.84585 3.03974 0
M  V30 10453 H 983.99 -5.14123 1.46909 0
M  V30 10454 H 984.333 -4.16251 0.0638129 0
M  V30 10455 H 984.866 -3.61032 1.67034 0
M  V30 10456 H 981.605 -4.86565 4.39244 0
M  V30 10457 H 981.125 -5.33307 2.74487 0
M  V30 10458 H 982.804 -5.57144 3.28937 0
M  V30 10459 N 982.937 -0.845659 -1.3299 0
M  V30 10460 C 983.87 -0.228695 -2.27051 0
M  V30 10461 C 984.848 0.62812 -1.49978 0
M  V30 10462 O 986.032 0.586897 -1.79131 0
M  V30 10463 C 983.159 0.678251 -3.31839 0
M  V30 10464 C 982.205 -0.103994 -4.26373 0
M  V30 10465 S 983.038 -1.46642 -5.1503 0
M  V30 10466 C 984.194 -0.564953 -6.23345 0
M  V30 10467 H 984.427 -1.02609 -2.79032 0
M  V30 10468 H 981.96 -0.642786 -1.40384 0
M  V30 10469 H 983.918 1.1959 -3.92694 0
M  V30 10470 H 982.579 1.44937 -2.78661 0
M  V30 10471 H 981.772 0.586406 -5.00577 0
M  V30 10472 H 981.374 -0.552927 -3.6989 0
M  V30 10473 H 983.666 0.234466 -6.77094 0
M  V30 10474 H 984.609 -1.27736 -6.96483 0
M  V30 10475 H 985.017 -0.143286 -5.64318 0
M  V30 10476 N 984.415 1.45619 -0.602734 0
M  V30 10477 C 985.378 2.28941 0.108962 0
M  V30 10478 C 986.378 1.39501 0.799762 0
M  V30 10479 O 987.568 1.61673 0.648663 0
M  V30 10480 C 984.7 3.204 1.16432 0
M  V30 10481 H 985.893 2.93346 -0.623534 0
M  V30 10482 H 983.446 1.52061 -0.361565 0
M  V30 10483 H 984.181 2.60785 1.92774 0
M  V30 10484 H 983.966 3.86277 0.673248 0
M  V30 10485 H 985.456 3.83063 1.6629 0
M  V30 10486 N 985.893 0.34162 1.53853 0
M  V30 10487 C 987.309 -0.0103769 1.59597 0
M  V30 10488 C 987.509 -1.48897 1.35764 0
M  V30 10489 O 986.565 -2.24743 1.15095 0
M  V30 10490 C 987.878 0.424067 2.97695 0
M  V30 10491 C 989.426 0.376247 3.1073 0
M  V30 10492 C 989.901 0.786129 4.51203 0
M  V30 10493 N 991.392 0.74024 4.57247 0
M  V30 10494 C 992.127 1.02937 5.64085 0
M  V30 10495 N 991.623 1.38655 6.78783 0
M  V30 10496 N 993.416 0.953734 5.5395 0
M  V30 10497 H 985.567 1.30477 1.67599 0
M  V30 10498 H 987.83 0.531753 0.78482 0
M  V30 10499 H 987.536 1.45493 3.20195 0
M  V30 10500 H 987.41 -0.201713 3.7666 0
M  V30 10501 H 989.797 -0.645441 2.87955 0
M  V30 10502 H 989.878 1.0372 2.33828 0
M  V30 10503 H 989.522 1.80582 4.74713 0
M  V30 10504 H 989.452 0.102671 5.265 0
M  V30 10505 H 991.943 0.476763 3.7488 0
M  V30 10506 H 992.256 1.59206 7.56223 0
M  V30 10507 H 990.601 1.42498 6.80235 0
M  V30 10508 H 993.792 0.674044 4.63222 0
M  V30 10509 H 993.965 1.18241 6.37121 0
M  V30 10510 N 987.371 -1.57444 0.0701946 0
M  V30 10511 C 988.618 -1.93429 -0.59929 0
M  V30 10512 C 988.946 -0.9501 -1.69715 0
M  V30 10513 O 988.201 0.0345377 -1.9567 0
M  V30 10514 C 988.5 -3.36044 -1.21694 0
M  V30 10515 C 988.166 -4.50232 -0.245374 0
M  V30 10516 C 986.828 -4.81195 0.0219161 0
M  V30 10517 C 989.18 -5.1951 0.419396 0
M  V30 10518 C 986.508 -5.78775 0.96109 0
M  V30 10519 C 988.86 -6.18095 1.34688 0
M  V30 10520 C 987.524 -6.47477 1.62265 0
M  V30 10521 H 986.794 -0.707807 -0.219296 0
M  V30 10522 H 989.441 -1.90982 0.14073 0
M  V30 10523 H 987.746 -3.34948 -2.03265 0
M  V30 10524 H 989.443 -3.61176 -1.74221 0
M  V30 10525 H 986.033 -4.26082 -0.463887 0
M  V30 10526 H 990.217 -4.95785 0.226009 0
M  V30 10527 H 985.473 -5.99865 1.18202 0
M  V30 10528 H 989.647 -6.7088 1.86795 0
M  V30 10529 H 987.274 -7.229 2.352 0
M  V30 10530 N 988.849 0.203349 -1.56283 0
M  V30 10531 C 990.079 0.940061 -1.83974 0
M  V30 10532 C 990.487 1.77703 -0.649486 0
M  V30 10533 O 989.83 1.79487 0.391189 0
M  V30 10534 C 989.892 1.89249 -3.05655 0
M  V30 10535 C 989.556 1.23828 -4.39904 0
M  V30 10536 C 990.553 0.619231 -5.16199 0
M  V30 10537 C 988.238 1.2446 -4.86636 0
M  V30 10538 C 990.232 0.0152287 -6.37398 0
M  V30 10539 C 987.919 0.636764 -6.07773 0
M  V30 10540 C 988.917 0.0231481 -6.82996 0
M  V30 10541 O 988.605 -0.575187 -8.0184 0
M  V30 10542 H 988.337 0.280199 -0.615194 0
M  V30 10543 H 990.891 0.218111 -2.04239 0
M  V30 10544 H 989.121 2.65392 -2.81254 0
M  V30 10545 H 990.81 2.4963 -3.20062 0
M  V30 10546 H 991.576 0.606545 -4.81192 0
M  V30 10547 H 987.455 1.71161 -4.28048 0
M  V30 10548 H 990.999 -0.464333 -6.96053 0
M  V30 10549 H 986.896 0.646924 -6.4225 0
M  V30 10550 H 987.664 -0.471284 -8.17142 0
M  V30 10551 N 990.327 1.50405 0.470755 0
M  V30 10552 C 991.555 1.65168 1.24608 0
M  V30 10553 C 991.97 0.335153 1.85801 0
M  V30 10554 O 991.327 -0.682919 1.69241 0
M  V30 10555 C 991.378 2.74305 2.35455 0
M  V30 10556 O 991.099 4.00854 1.76771 0
M  V30 10557 C 992.6 3.00044 3.26326 0
M  V30 10558 H 989.82 0.555186 0.376842 0
M  V30 10559 H 992.364 1.9663 0.56187 0
M  V30 10560 H 990.519 2.45536 2.99651 0
M  V30 10561 H 990.933 4.61211 2.49769 0
M  V30 10562 H 992.407 3.8007 4.00313 0
M  V30 10563 H 992.884 2.11128 3.85126 0
M  V30 10564 H 993.49 3.30345 2.67866 0
M  V30 10565 N 991.805 -0.723954 1.39988 0
M  V30 10566 C 993.035 -1.51094 1.40905 0
M  V30 10567 C 993.443 -1.89199 0.00476744 0
M  V30 10568 O 992.786 -1.55398 -0.979646 0
M  V30 10569 C 992.848 -2.82114 2.22827 0
M  V30 10570 C 992.512 -2.66379 3.71337 0
M  V30 10571 C 993.509 -2.34192 4.64166 0
M  V30 10572 C 991.194 -2.82905 4.15054 0
M  V30 10573 C 993.188 -2.18729 5.98696 0
M  V30 10574 C 990.875 -2.67059 5.49657 0
M  V30 10575 C 991.873 -2.35018 6.41292 0
M  V30 10576 O 991.561 -2.19284 7.73414 0
M  V30 10577 H 991.293 -0.473142 0.482818 0
M  V30 10578 H 993.847 -0.901321 1.84568 0
M  V30 10579 H 992.077 -3.45377 1.7393 0
M  V30 10580 H 993.766 -3.43789 2.15787 0
M  V30 10581 H 994.532 -2.21065 4.31689 0
M  V30 10582 H 990.411 -3.06834 3.44055 0
M  V30 10583 H 993.955 -1.93641 6.70186 0
M  V30 10584 H 989.852 -2.79768 5.81722 0
M  V30 10585 H 990.62 -2.34269 7.84258 0
M  V30 10586 N 993.283 -1.25346 -0.955304 0
M  V30 10587 C 994.532 -1.0945 -1.69421 0
M  V30 10588 C 994.845 0.364459 -1.92175 0
M  V30 10589 O 996.051 0.643843 -2.63755 0
M  V30 10590 C 994.507 -1.91045 -3.05008 0
M  V30 10591 C 994.115 -3.41428 -2.90053 0
M  V30 10592 C 995.859 -1.83716 -3.82686 0
M  V30 10593 C 993.766 -4.1532 -4.21026 0
M  V30 10594 H 992.696 -0.405978 -0.635372 0
M  V30 10595 H 995.347 -1.49536 -1.06354 0
M  V30 10596 H 993.729 -1.43781 -3.68975 0
M  V30 10597 H 994.903 -3.9636 -2.35022 0
M  V30 10598 H 993.218 -3.49842 -2.25831 0
M  V30 10599 H 995.815 -2.36217 -4.79693 0
M  V30 10600 H 996.158 -0.804919 -4.08444 0
M  V30 10601 H 996.691 -2.28726 -3.25468 0
M  V30 10602 H 993.43 -5.18955 -4.00457 0
M  V30 10603 H 992.95 -3.65172 -4.75825 0
M  V30 10604 H 994.629 -4.22999 -4.89572 0
M  V30 10605 N 994.761 1.15782 -1.06922 0
M  V30 10606 C 995.709 2.22441 -0.679893 0
M  V30 10607 C 996.703 1.66591 0.307221 0
M  V30 10608 O 997.909 1.79182 0.171402 0
M  V30 10609 H 994.284 0.724427 -0.201765 0
M  V30 10610 H 996.255 2.52562 -1.58918 0
M  V30 10611 C 995.004 3.47586 -0.0891142 0
M  V30 10612 H 994.327 3.9088 -0.839805 0
M  V30 10613 H 995.767 4.2375 0.14569 0
M  V30 10614 C 994.226 3.15967 1.16903 0
M  V30 10615 O 994.756 3.32359 2.25611 0
M  V30 10616 N 992.962 2.70046 1.07349 0
M  V30 10617 H 992.509 2.56907 0.188825 0
M  V30 10618 H 992.467 2.49264 1.91611 0
M  V30 10619 N 996.239 0.8527 1.3254 0
M  V30 10620 C 997.65 0.510012 1.79599 0
M  V30 10621 C 998.001 -0.972002 1.70431 0
M  V30 10622 O 997.126 -1.7581 1.26173 0
M  V30 10623 C 997.721 0.918986 3.26098 0
M  V30 10624 C 996.28 0.628227 3.7112 0
M  V30 10625 C 995.427 1.11979 2.53685 0
M  V30 10626 H 998.378 1.04009 1.19866 0
M  V30 10627 H 998.399 0.234577 3.79776 0
M  V30 10628 H 997.911 1.99765 3.32739 0
M  V30 10629 H 996.012 -0.4398 3.69995 0
M  V30 10630 H 996.125 1.19315 4.64005 0
M  V30 10631 H 994.489 0.540133 2.48907 0
M  V30 10632 H 995.272 2.20552 2.63081 0
M  V30 10633 N 997.718 -1.45297 0.610449 0
M  V30 10634 C 998.681 -2.28995 -0.0968194 0
M  V30 10635 C 999.681 -1.39923 -0.792353 0
M  V30 10636 O 1000.87 -1.62014 -0.64008 0
M  V30 10637 C 998.003 -3.21013 -1.14731 0
M  V30 10638 H 999.196 -2.93012 0.639082 0
M  V30 10639 H 996.749 -1.51867 0.369624 0
M  V30 10640 H 997.484 -2.61803 -1.91388 0
M  V30 10641 H 997.269 -3.86628 -0.652753 0
M  V30 10642 H 998.759 -3.8394 -1.64256 0
M  V30 10643 N 999.196 -0.349774 -1.5367 0
M  V30 10644 C 1000.11 0.512421 -2.28935 0
M  V30 10645 C 1001.12 1.1065 -1.34286 0
M  V30 10646 O 1002.3 1.12084 -1.67329 0
M  V30 10647 C 999.363 1.64449 -3.05217 0
M  V30 10648 C 998.424 1.07956 -4.15505 0
M  V30 10649 C 997.657 2.15768 -4.88139 0
M  V30 10650 O 997.88 3.366 -4.60496 0
M  V30 10651 O 996.814 1.79712 -5.74445 0
M  V30 10652 H 1000.64 -0.0996001 -3.03537 0
M  V30 10653 H 998.225 -0.114629 -1.4896 0
M  V30 10654 H 1000.11 2.30302 -3.52901 0
M  V30 10655 H 998.782 2.24221 -2.33467 0
M  V30 10656 H 997.689 0.385381 -3.7211 0
M  V30 10657 H 999.022 0.526621 -4.89375 0
M  V30 10658 N 1000.67 1.57404 -0.0785433 0
M  V30 10659 C 1001.92 1.9292 0.588626 0
M  V30 10660 C 1002.24 0.961106 1.70359 0
M  V30 10661 O 1003.44 1.20934 2.43079 0
M  V30 10662 C 1001.9 3.42729 1.09839 0
M  V30 10663 C 1001.51 4.47998 0.0140773 0
M  V30 10664 C 1003.25 3.87235 1.73924 0
M  V30 10665 C 1001.16 5.88945 0.538269 0
M  V30 10666 H 1000.09 0.720069 0.223645 0
M  V30 10667 H 1002.74 1.8287 -0.15187 0
M  V30 10668 H 1001.12 3.47875 1.89207 0
M  V30 10669 H 1002.29 4.54476 -0.760773 0
M  V30 10670 H 1000.61 4.13001 -0.53095 0
M  V30 10671 H 1003.21 4.89927 2.14186 0
M  V30 10672 H 1003.55 3.24971 2.60191 0
M  V30 10673 H 1004.08 3.84721 1.01168 0
M  V30 10674 H 1000.82 6.5487 -0.287395 0
M  V30 10675 H 1000.34 5.85972 1.28049 0
M  V30 10676 H 1002.02 6.39028 1.01253 0
M  V30 10677 N 1002.15 -0.195058 1.56388 0
M  V30 10678 C 1003.06 -1.26219 1.97752 0
M  V30 10679 C 1004.08 -1.49801 0.885192 0
M  V30 10680 O 1005.25 -1.62415 1.19094 0
M  V30 10681 C 1002.32 -2.5865 2.3087 0
M  V30 10682 C 1001.38 -2.4314 3.5381 0
M  V30 10683 C 1000.61 -3.69255 3.85339 0
M  V30 10684 O 1000.84 -4.73425 3.18159 0
M  V30 10685 O 999.77 -3.64782 4.78767 0
M  V30 10686 H 1003.6 -0.941161 2.88749 0
M  V30 10687 H 1001.18 -0.40006 1.43944 0
M  V30 10688 H 1003.06 -3.36814 2.53247 0
M  V30 10689 H 1001.74 -2.9038 1.43042 0
M  V30 10690 H 1000.64 -1.63086 3.3668 0
M  V30 10691 H 1001.98 -2.16341 4.42105 0
M  V30 10692 N 1003.63 -1.50653 -0.462772 0
M  V30 10693 C 1004.59 -1.69561 -1.54213 0
M  V30 10694 C 1005.59 -0.566106 -1.50505 0
M  V30 10695 O 1006.78 -0.833273 -1.52978 0
M  V30 10696 C 1003.91 -1.72856 -2.93826 0
M  V30 10697 H 1005.11 -2.65867 -1.38761 0
M  V30 10698 H 1002.66 -1.40259 -0.689728 0
M  V30 10699 H 1003.4 -0.78273 -3.14712 0
M  V30 10700 H 1003.18 -2.54919 -2.97924 0
M  V30 10701 H 1004.67 -1.89411 -3.72174 0
M  V30 10702 N 1005.11 0.71652 -1.4037 0
M  V30 10703 C 1006.04 1.84138 -1.36477 0
M  V30 10704 C 1007.05 1.6054 -0.27033 0
M  V30 10705 O 1008.24 1.70431 -0.530612 0
M  V30 10706 C 1005.34 3.20523 -1.10082 0
M  V30 10707 C 1004.52 3.71326 -2.31162 0
M  V30 10708 C 1003.57 4.86322 -2.00942 0
M  V30 10709 O 1002.6 4.99022 -2.73799 0
M  V30 10710 N 1003.8 5.72051 -0.986812 0
M  V30 10711 H 1006.57 1.87977 -2.3342 0
M  V30 10712 H 1004.13 0.89802 -1.34712 0
M  V30 10713 H 1006.12 3.95049 -0.878526 0
M  V30 10714 H 1004.69 3.11838 -0.21809 0
M  V30 10715 H 1003.91 2.87941 -2.69227 0
M  V30 10716 H 1005.2 4.02003 -3.11883 0
M  V30 10717 H 1004.6 5.64399 -0.383381 0
M  V30 10718 H 1003.15 6.46565 -0.824419 0
M  V30 10719 N 1006.59 1.25851 0.948643 0
M  V30 10720 C 1007.83 1.10954 1.69397 0
M  V30 10721 C 1008.16 -0.348443 1.91353 0
M  V30 10722 O 1007.42 -1.27285 1.48651 0
M  V30 10723 C 1007.72 1.81565 3.07846 0
M  V30 10724 C 1007.38 3.31477 3.0567 0
M  V30 10725 C 1006.04 3.72371 3.04784 0
M  V30 10726 C 1008.4 4.27225 2.98543 0
M  V30 10727 C 1005.72 5.07416 2.94527 0
M  V30 10728 C 1008.08 5.62301 2.89828 0
M  V30 10729 C 1006.74 6.02516 2.87281 0
M  V30 10730 H 1006.01 0.406011 0.619868 0
M  V30 10731 H 1008.66 1.562 1.10787 0
M  V30 10732 H 1006.96 1.28767 3.70035 0
M  V30 10733 H 1008.66 1.67486 3.64348 0
M  V30 10734 H 1005.25 2.98941 3.07135 0
M  V30 10735 H 1009.43 3.96618 2.98342 0
M  V30 10736 H 1004.69 5.37746 2.90928 0
M  V30 10737 H 1008.86 6.36182 2.83276 0
M  V30 10738 H 1006.49 7.07116 2.79089 0
M  V30 10739 N 1008.06 -1.15214 1.07534 0
M  V30 10740 C 1009.34 -1.82155 0.71267 0
M  V30 10741 C 1009.72 -1.95163 -0.804655 0
M  V30 10742 O 1009.07 -1.50451 -1.71979 0
M  V30 10743 C 1009.28 -3.18392 1.42925 0
M  V30 10744 C 1010.63 -3.94005 1.58256 0
M  V30 10745 O 1011.65 -3.27952 1.39018 0
M  V30 10746 O 1010.51 -5.12436 1.89925 0
M  V30 10747 H 1007.6 -0.78709 0.253808 0
M  V30 10748 H 1010.15 -1.22309 1.17638 0
M  V30 10749 H 1008.92 -3.04034 2.46331 0
M  V30 10750 H 1008.55 -3.85925 0.956439 0
M  V30 10751 N 1009.54 -0.859717 -1.32086 0
M  V30 10752 C 1010.45 -0.31108 -2.32528 0
M  V30 10753 C 1011.47 0.573714 -1.6427 0
M  V30 10754 O 1012.64 0.472878 -1.9577 0
M  V30 10755 C 1009.71 0.487256 -3.43259 0
M  V30 10756 C 1008.77 -0.424279 -4.27198 0
M  V30 10757 C 1008 0.336051 -5.32641 0
M  V30 10758 O 1008.23 1.56541 -5.48499 0
M  V30 10759 O 1007.16 -0.300777 -6.01148 0
M  V30 10760 H 1010.99 -1.14336 -2.81355 0
M  V30 10761 H 1008.57 -0.622794 -1.358 0
M  V30 10762 H 1010.45 0.940203 -4.10777 0
M  V30 10763 H 1009.13 1.29626 -2.96612 0
M  V30 10764 H 1008.04 -0.925509 -3.62471 0
M  V30 10765 H 1009.37 -1.1986 -4.77383 0
M  V30 10766 N 1011.02 1.44971 -0.618145 0
M  V30 10767 C 1012.3 1.95539 -0.0489895 0
M  V30 10768 C 1012.68 1.5604 1.42179 0
M  V30 10769 O 1012.03 0.82809 2.12967 0
M  V30 10770 C 1012.24 3.48044 -0.258193 0
M  V30 10771 C 1013.58 4.24354 -0.144541 0
M  V30 10772 O 1014.61 3.55699 -0.18887 0
M  V30 10773 O 1013.47 5.46486 -0.038519 0
M  V30 10774 H 1010.56 0.826466 0.0297256 0
M  V30 10775 H 1013.11 1.55086 -0.688944 0
M  V30 10776 H 1011.88 3.69798 -1.27926 0
M  V30 10777 H 1011.5 3.95412 0.416522 0
M  V30 10778 N 1012.5 0.357919 1.53482 0
M  V30 10779 C 1013.41 -0.500273 2.29204 0
M  V30 10780 C 1014.42 -1.09936 1.3487 0
M  V30 10781 O 1015.6 -1.11195 1.67921 0
M  V30 10782 C 1012.67 -1.62828 3.06085 0
M  V30 10783 C 1011.73 -1.05751 4.16071 0
M  V30 10784 C 1010.96 -2.13176 4.89277 0
M  V30 10785 O 1011.18 -3.34153 4.62274 0
M  V30 10786 O 1010.12 -1.76663 5.7539 0
M  V30 10787 H 1013.94 0.115696 3.0348 0
M  V30 10788 H 1011.53 0.122527 1.48897 0
M  V30 10789 H 1013.41 -2.28427 3.54117 0
M  V30 10790 H 1012.08 -2.22979 2.34653 0
M  V30 10791 H 1010.99 -0.365642 3.72309 0
M  V30 10792 H 1012.32 -0.500661 4.89647 0
M  V30 10793 N 1013.98 -1.5736 0.0868897 0
M  V30 10794 C 1014.92 -2.13571 -0.874996 0
M  V30 10795 C 1015.89 -1.0521 -1.2853 0
M  V30 10796 O 1017.08 -1.32954 -1.3685 0
M  V30 10797 C 1014.22 -2.71386 -2.13175 0
M  V30 10798 C 1013.33 -3.93953 -1.77272 0
M  V30 10799 C 1012.47 -4.3996 -2.97671 0
M  V30 10800 C 1011.51 -5.55137 -2.57856 0
M  V30 10801 N 1010.64 -5.96034 -3.71064 0
M  V30 10802 H 1015.48 -2.95453 -0.388789 0
M  V30 10803 H 1013.02 -1.45992 -0.180242 0
M  V30 10804 H 1014.98 -3.03022 -2.86764 0
M  V30 10805 H 1013.61 -1.92245 -2.5931 0
M  V30 10806 H 1012.66 -3.68683 -0.936845 0
M  V30 10807 H 1013.97 -4.77565 -1.43989 0
M  V30 10808 H 1013.13 -4.73337 -3.79522 0
M  V30 10809 H 1011.86 -3.55232 -3.34158 0
M  V30 10810 H 1010.87 -5.21397 -1.7443 0
M  V30 10811 H 1012.09 -6.41608 -2.22522 0
M  V30 10812 H 1010.04 -5.14253 -4.07284 0
M  V30 10813 H 1009.96 -6.74423 -3.41599 0
M  V30 10814 H 1011.23 -6.34038 -4.53449 0
M  V30 10815 N 1015.45 0.186762 -1.56489 0
M  V30 10816 C 1016.4 1.23141 -1.95205 0
M  V30 10817 C 1017.37 1.44799 -0.81378 0
M  V30 10818 O 1018.56 1.57795 -1.07263 0
M  V30 10819 C 1015.7 2.56926 -2.30397 0
M  V30 10820 C 1014.81 2.42777 -3.57328 0
M  V30 10821 C 1013.94 3.69323 -3.81804 0
M  V30 10822 C 1012.98 3.50041 -5.02133 0
M  V30 10823 N 1012.12 4.68619 -5.2282 0
M  V30 10824 H 1016.96 0.894256 -2.84266 0
M  V30 10825 H 1014.5 0.430187 -1.40669 0
M  V30 10826 H 1016.46 3.3488 -2.4882 0
M  V30 10827 H 1015.09 2.88668 -1.44466 0
M  V30 10828 H 1014.14 1.56078 -3.46906 0
M  V30 10829 H 1015.45 2.24468 -4.45439 0
M  V30 10830 H 1014.6 4.55715 -4.00511 0
M  V30 10831 H 1013.34 3.90595 -2.92039 0
M  V30 10832 H 1012.35 2.62034 -4.8334 0
M  V30 10833 H 1013.57 3.30206 -5.93414 0
M  V30 10834 H 1011.52 4.90139 -4.36005 0
M  V30 10835 H 1011.44 4.53165 -6.05126 0
M  V30 10836 H 1012.7 5.56338 -5.45993 0
M  V30 10837 N 1016.93 1.50896 0.454776 0
M  V30 10838 C 1017.88 1.71497 1.57136 0
M  V30 10839 C 1018.87 0.58098 1.59126 0
M  V30 10840 O 1020.08 0.761916 1.63079 0
M  V30 10841 H 1016.46 0.54158 0.521724 0
M  V30 10842 H 1018.43 2.65129 1.36928 0
M  V30 10843 C 1017.18 1.84125 2.94947 0
M  V30 10844 H 1016.5 2.7078 2.9414 0
M  V30 10845 H 1017.94 2.02558 3.72487 0
M  V30 10846 C 1016.4 0.596752 3.31573 0
M  V30 10847 O 1016.93 -0.256632 4.00879 0
M  V30 10848 N 1015.13 0.445958 2.87158 0
M  V30 10849 H 1014.68 1.14146 2.30929 0
M  V30 10850 H 1014.64 -0.385519 3.12027 0
M  V30 10851 N 1018.41 -0.709066 1.40748 0
M  V30 10852 C 1019.83 -1.01797 1.22921 0
M  V30 10853 C 1020.03 -2.01205 0.109011 0
M  V30 10854 O 1019.08 -2.46854 -0.530987 0
M  V30 10855 C 1020.4 -1.55546 2.57344 0
M  V30 10856 C 1021.94 -1.67498 2.64412 0
M  V30 10857 C 1022.42 -2.24652 3.99119 0
M  V30 10858 N 1023.91 -2.3203 4.00895 0
M  V30 10859 C 1024.64 -2.7725 5.01917 0
M  V30 10860 N 1024.14 -3.22174 6.13332 0
M  V30 10861 N 1025.93 -2.76692 4.89283 0
M  V30 10862 H 1018.08 -0.0502704 2.12341 0
M  V30 10863 H 1020.35 -0.0848933 0.944191 0
M  V30 10864 H 1020.05 -0.899631 3.39999 0
M  V30 10865 H 1019.93 -2.53971 2.78888 0
M  V30 10866 H 1022.31 -2.32196 1.82123 0
M  V30 10867 H 1022.4 -0.676553 2.46691 0
M  V30 10868 H 1022.04 -1.60573 4.81849 0
M  V30 10869 H 1021.97 -3.25221 4.14173 0
M  V30 10870 H 1024.46 -2.00309 3.20444 0
M  V30 10871 H 1024.77 -3.55265 6.86299 0
M  V30 10872 H 1023.12 -3.20116 6.16888 0
M  V30 10873 H 1026.31 -2.40936 4.01332 0
M  V30 10874 H 1026.48 -3.11617 5.68154 0
M  V30 10875 N 1019.89 -1.26353 -0.941956 0
M  V30 10876 C 1020.82 -1.10341 -2.05784 0
M  V30 10877 C 1021.8 -0.00881565 -1.70098 0
M  V30 10878 O 1022.99 -0.180699 -1.93357 0
M  V30 10879 C 1020.12 -0.734788 -3.39438 0
M  V30 10880 C 1019.07 -1.78103 -3.89183 0
M  V30 10881 C 1018.4 -1.26675 -5.19478 0
M  V30 10882 C 1019.7 -3.1824 -4.14151 0
M  V30 10883 H 1021.39 -2.03684 -2.19438 0
M  V30 10884 H 1018.94 -0.980698 -1.05443 0
M  V30 10885 H 1020.89 -0.609653 -4.16967 0
M  V30 10886 H 1019.61 0.234354 -3.25758 0
M  V30 10887 H 1018.27 -1.89482 -3.13835 0
M  V30 10888 H 1017.92 -0.287472 -5.02178 0
M  V30 10889 H 1017.62 -1.96612 -5.53731 0
M  V30 10890 H 1019.14 -1.15427 -5.99591 0
M  V30 10891 H 1020.56 -3.09942 -4.82296 0
M  V30 10892 H 1018.95 -3.8576 -4.59684 0
M  V30 10893 H 1020.02 -3.64354 -3.19959 0
M  V30 10894 N 1021.37 1.14642 -1.08144 0
M  V30 10895 C 1022.28 2.23257 -0.720668 0
M  V30 10896 C 1023.29 1.71866 0.271648 0
M  V30 10897 O 1024.47 2.01064 0.116266 0
M  V30 10898 C 1021.53 3.46447 -0.132542 0
M  V30 10899 C 1020.6 4.12789 -1.17913 0
M  V30 10900 C 1019.83 5.30099 -0.618971 0
M  V30 10901 O 1020.05 5.6762 0.562418 0
M  V30 10902 O 1018.99 5.86154 -1.36774 0
M  V30 10903 H 1022.81 2.56463 -1.62667 0
M  V30 10904 H 1020.4 1.22521 -0.854932 0
M  V30 10905 H 1022.28 4.20959 0.19277 0
M  V30 10906 H 1020.95 3.14971 0.746662 0
M  V30 10907 H 1019.86 3.40163 -1.55693 0
M  V30 10908 H 1021.19 4.48365 -2.03051 0
M  V30 10909 N 1022.85 0.866709 1.31628 0
M  V30 10910 C 1023.79 0.318169 2.28596 0
M  V30 10911 C 1024.76 -0.581558 1.55586 0
M  V30 10912 O 1025.95 -0.513895 1.83749 0
M  V30 10913 C 1023.09 -0.477137 3.41786 0
M  V30 10914 C 1022.2 0.449739 4.29653 0
M  V30 10915 C 1021.34 -0.359373 5.29983 0
M  V30 10916 C 1020.37 0.564138 6.09495 0
M  V30 10917 N 1019.51 -0.208526 7.0179 0
M  V30 10918 H 1024.35 1.15029 2.74904 0
M  V30 10919 H 1021.89 0.578649 1.35241 0
M  V30 10920 H 1023.85 -0.953985 4.06146 0
M  V30 10921 H 1022.48 -1.27398 2.96597 0
M  V30 10922 H 1021.53 1.04502 3.65764 0
M  V30 10923 H 1022.84 1.158 4.85172 0
M  V30 10924 H 1021.99 -0.89887 6.00004 0
M  V30 10925 H 1020.73 -1.10094 4.75111 0
M  V30 10926 H 1019.74 1.11542 5.38366 0
M  V30 10927 H 1020.96 1.30451 6.66453 0
M  V30 10928 H 1018.91 -0.932969 6.49332 0
M  V30 10929 H 1018.83 0.440463 7.54716 0
M  V30 10930 H 1020.09 -0.72936 7.7608 0
M  V30 10931 N 1024.32 -1.44642 0.625825 0
M  V30 10932 C 1025.55 -2.06971 0.133373 0
M  V30 10933 C 1025.97 -1.46421 -1.18078 0
M  V30 10934 O 1025.33 -0.563676 -1.72315 0
M  V30 10935 C 1025.38 -3.6059 0.0265097 0
M  V30 10936 O 1024.48 -3.99615 -1.01889 0
M  V30 10937 H 1023.82 -0.658873 0.0823568 0
M  V30 10938 H 1026.35 -1.85601 0.861002 0
M  V30 10939 H 1026.36 -4.07663 -0.1658 0
M  V30 10940 H 1025.04 -4.04043 0.985986 0
M  V30 10941 H 1023.62 -3.64183 -0.801577 0
M  V30 10942 N 1025.8 -0.366053 -1.5329 0
M  V30 10943 C 1026.75 0.495319 -2.27265 0
M  V30 10944 C 1027.74 1.08298 -1.30261 0
M  V30 10945 O 1028.95 1.02613 -1.47887 0
M  V30 10946 H 1025.32 0.178454 -0.730519 0
M  V30 10947 H 1027.3 -0.150354 -2.98021 0
M  V30 10948 C 1026.04 1.62283 -3.07505 0
M  V30 10949 H 1025.37 1.17993 -3.81992 0
M  V30 10950 H 1026.81 2.20024 -3.62444 0
M  V30 10951 C 1025.27 2.56542 -2.18375 0
M  V30 10952 O 1025.8 3.59371 -1.79486 0
M  V30 10953 N 1024 2.25742 -1.82999 0
M  V30 10954 H 1023.55 1.42159 -2.14822 0
M  V30 10955 H 1023.51 2.89064 -1.2365 0
M  V30 10956 N 1027.28 1.57312 -0.0952337 0
M  V30 10957 C 1028.69 1.81589 0.433875 0
M  V30 10958 C 1029.04 1.01086 1.68155 0
M  V30 10959 O 1028.17 0.240272 2.15062 0
M  V30 10960 C 1028.76 3.29366 0.793931 0
M  V30 10961 C 1027.32 3.54407 1.26778 0
M  V30 10962 C 1026.47 2.76035 0.264518 0
M  V30 10963 H 1029.42 1.55426 -0.320675 0
M  V30 10964 H 1029.44 3.42697 1.65345 0
M  V30 10965 H 1028.95 3.87932 -0.114334 0
M  V30 10966 H 1027.05 3.01173 2.19376 0
M  V30 10967 H 1027.17 4.63055 1.22952 0
M  V30 10968 H 1025.53 2.43509 0.746691 0
M  V30 10969 H 1026.31 3.37349 -0.636429 0
M  V30 10970 N 1028.76 -0.17846 1.56586 0
M  V30 10971 C 1029.99 -0.910674 1.85446 0
M  V30 10972 C 1030.4 -1.76647 0.677675 0
M  V30 10973 O 1029.74 -1.80086 -0.362584 0
M  V30 10974 C 1029.8 -1.84363 3.08627 0
M  V30 10975 C 1029.46 -1.16814 4.41818 0
M  V30 10976 C 1030.46 -0.53703 5.17119 0
M  V30 10977 C 1028.15 -1.16703 4.88555 0
M  V30 10978 C 1030.14 0.0861778 6.37342 0
M  V30 10979 C 1027.83 -0.539992 6.0871 0
M  V30 10980 C 1028.83 0.0855135 6.82946 0
M  V30 10981 O 1028.51 0.70268 8.00823 0
M  V30 10982 H 1028.25 -0.270377 0.619574 0
M  V30 10983 H 1030.8 -0.185591 2.0456 0
M  V30 10984 H 1029.03 -2.60884 2.85441 0
M  V30 10985 H 1030.72 -2.44506 3.23993 0
M  V30 10986 H 1031.48 -0.529915 4.82096 0
M  V30 10987 H 1027.36 -1.64329 4.30717 0
M  V30 10988 H 1030.91 0.575011 6.95226 0
M  V30 10989 H 1026.8 -0.544666 6.43198 0
M  V30 10990 H 1027.57 0.601224 8.16289 0
M  V30 10991 N 1030.24 -1.51135 -0.446768 0
M  V30 10992 C 1031.48 -1.63336 -1.19698 0
M  V30 10993 C 1031.81 -0.345099 -1.91414 0
M  V30 10994 O 1031.07 0.670365 -1.8386 0
M  V30 10995 C 1031.36 -2.78034 -2.2457 0
M  V30 10996 C 1031.03 -4.17652 -1.69934 0
M  V30 10997 C 1029.69 -4.55636 -1.54756 0
M  V30 10998 C 1032.04 -5.04813 -1.29665 0
M  V30 10999 C 1029.37 -5.78496 -0.977689 0
M  V30 11000 C 1031.72 -6.28244 -0.741112 0
M  V30 11001 C 1030.39 -6.65009 -0.576156 0
M  V30 11002 H 1029.66 -0.597689 -0.438006 0
M  V30 11003 H 1032.31 -1.85141 -0.48939 0
M  V30 11004 H 1030.61 -2.50413 -3.01331 0
M  V30 11005 H 1032.31 -2.84675 -2.8242 0
M  V30 11006 H 1028.9 -3.87699 -1.82722 0
M  V30 11007 H 1033.08 -4.76081 -1.40216 0
M  V30 11008 H 1028.34 -6.05636 -0.837563 0
M  V30 11009 H 1032.51 -6.95129 -0.42053 0
M  V30 11010 H 1030.14 -7.60085 -0.132443 0
M  V30 11011 N 1031.71 0.701592 -1.41122 0
M  V30 11012 C 1032.65 1.8257 -1.36907 0
M  V30 11013 C 1033.62 1.6086 -0.237245 0
M  V30 11014 O 1034.81 1.83688 -0.423182 0
M  V30 11015 C 1031.94 3.19149 -1.13408 0
M  V30 11016 C 1030.98 3.59661 -2.29229 0
M  V30 11017 S 1031.81 3.65161 -3.91685 0
M  V30 11018 C 1032.97 5.04477 -3.70478 0
M  V30 11019 H 1033.2 1.85867 -2.32036 0
M  V30 11020 H 1030.74 0.869726 -1.27574 0
M  V30 11021 H 1032.69 3.97998 -1.00537 0
M  V30 11022 H 1031.36 3.13468 -0.199099 0
M  V30 11023 H 1030.55 4.58866 -2.08466 0
M  V30 11024 H 1030.15 2.88105 -2.38477 0
M  V30 11025 H 1032.44 5.91803 -3.29811 0
M  V30 11026 H 1033.39 5.3028 -4.69264 0
M  V30 11027 H 1033.79 4.75731 -3.03876 0
M  V30 11028 N 1033.19 1.2685 0.935242 0
M  V30 11029 C 1034.42 1.15645 1.72165 0
M  V30 11030 C 1034.84 -0.283909 1.85945 0
M  V30 11031 O 1034.2 -1.20567 1.354 0
M  V30 11032 C 1034.25 1.83689 3.10307 0
M  V30 11033 O 1033.35 1.12972 3.96625 0
M  V30 11034 H 1032.69 0.402629 0.528002 0
M  V30 11035 H 1035.22 1.67781 1.17093 0
M  V30 11036 H 1035.23 1.90749 3.60664 0
M  V30 11037 H 1033.91 2.88472 2.99595 0
M  V30 11038 H 1032.48 1.13929 3.5507 0
M  V30 11039 N 1034.67 -1.14067 1.0875 0
M  V30 11040 C 1035.92 -1.84819 0.817698 0
M  V30 11041 C 1036.24 -1.83545 -0.658488 0
M  V30 11042 O 1035.51 -1.28633 -1.47751 0
M  V30 11043 H 1034.09 -0.68433 0.299502 0
M  V30 11044 H 1036.75 -1.38208 1.37421 0
M  V30 11045 H 1035.85 -2.89541 1.16501 0
M  V30 11046 N 1036.15 -0.873678 -1.31166 0
M  V30 11047 C 1037.11 -0.337069 -2.26708 0
M  V30 11048 C 1038.11 0.51406 -1.52362 0
M  V30 11049 O 1039.3 0.322834 -1.71182 0
M  V30 11050 C 1036.43 0.520897 -3.36897 0
M  V30 11051 H 1037.63 -1.18056 -2.75686 0
M  V30 11052 H 1035.18 -0.649577 -1.42163 0
M  V30 11053 H 1035.91 1.38543 -2.93217 0
M  V30 11054 H 1035.7 -0.0886015 -3.92 0
M  V30 11055 H 1037.19 0.888497 -4.08039 0
M  V30 11056 N 1037.63 1.44308 -0.633487 0
M  V30 11057 C 1038.57 2.32455 0.0821956 0
M  V30 11058 C 1039.57 1.47482 0.833388 0
M  V30 11059 O 1040.77 1.63812 0.746021 0
M  V30 11060 H 1037.15 0.750631 0.045352 0
M  V30 11061 H 1039.12 2.90566 -0.679282 0
M  V30 11062 C 1037.87 3.31512 1.04858 0
M  V30 11063 H 1037.19 3.96908 0.479979 0
M  V30 11064 H 1038.63 3.95865 1.51879 0
M  V30 11065 C 1037.09 2.60615 2.13498 0
M  V30 11066 O 1037.62 2.40682 3.21613 0
M  V30 11067 N 1035.83 2.20315 1.89499 0
M  V30 11068 H 1035.37 2.36726 1.01581 0
M  V30 11069 H 1035.33 1.73205 2.62388 0
M  V30 11070 N 1039.1 0.374177 1.53094 0
M  V30 11071 C 1040.33 -0.215903 2.06273 0
M  V30 11072 C 1040.75 -1.40979 1.24526 0
M  V30 11073 O 1040.11 -1.79331 0.266462 0
M  V30 11074 C 1040.16 -0.579089 3.5592 0
M  V30 11075 O 1039.26 -1.67516 3.76845 0
M  V30 11076 H 1038.61 -0.0293981 0.663349 0
M  V30 11077 H 1041.14 0.537271 1.9742 0
M  V30 11078 H 1041.15 -0.847678 3.99097 0
M  V30 11079 H 1039.82 0.293843 4.14861 0
M  V30 11080 H 1038.4 -1.40146 3.45563 0
M  V30 11081 N 1040.58 -1.57259 0.103575 0
M  V30 11082 C 1041.51 -2.1153 -0.882472 0
M  V30 11083 C 1042.53 -1.05446 -1.24036 0
M  V30 11084 O 1043.72 -1.32867 -1.192 0
M  V30 11085 C 1040.82 -2.58717 -2.18903 0
M  V30 11086 C 1039.99 -3.8873 -2.00519 0
M  V30 11087 C 1039.05 -4.21675 -3.14764 0
M  V30 11088 O 1038.07 -4.90755 -2.88355 0
M  V30 11089 N 1039.28 -3.77757 -4.40772 0
M  V30 11090 H 1042.04 -2.96758 -0.418901 0
M  V30 11091 H 1039.6 -1.61696 -0.0812921 0
M  V30 11092 H 1041.59 -2.77797 -2.94297 0
M  V30 11093 H 1040.16 -1.78454 -2.56657 0
M  V30 11094 H 1039.38 -3.78714 -1.09406 0
M  V30 11095 H 1040.67 -4.73771 -1.85522 0
M  V30 11096 H 1040.07 -3.22011 -4.65108 0
M  V30 11097 H 1038.63 -4.01975 -5.13088 0
M  V30 11098 N 1042.06 0.170153 -1.56679 0
M  V30 11099 C 1043.01 1.21064 -1.965 0
M  V30 11100 C 1043.98 1.43928 -0.829092 0
M  V30 11101 O 1045.16 1.56649 -1.08931 0
M  V30 11102 C 1042.3 2.54468 -2.33109 0
M  V30 11103 C 1041.42 2.38974 -3.59883 0
M  V30 11104 C 1040.55 3.65252 -3.857 0
M  V30 11105 C 1039.59 3.44696 -5.05817 0
M  V30 11106 N 1038.73 4.63047 -5.27761 0
M  V30 11107 H 1043.57 0.864055 -2.85198 0
M  V30 11108 H 1041.1 0.415243 -1.41117 0
M  V30 11109 H 1043.06 3.32222 -2.52358 0
M  V30 11110 H 1041.69 2.8712 -1.4752 0
M  V30 11111 H 1040.74 1.5239 -3.48542 0
M  V30 11112 H 1042.06 2.19731 -4.47794 0
M  V30 11113 H 1041.21 4.51441 -4.05322 0
M  V30 11114 H 1039.95 3.87475 -2.96166 0
M  V30 11115 H 1038.95 2.56893 -4.86092 0
M  V30 11116 H 1040.18 3.23894 -5.96883 0
M  V30 11117 H 1038.12 4.85487 -4.41179 0
M  V30 11118 H 1038.04 4.46722 -6.09898 0
M  V30 11119 H 1039.31 5.50516 -5.51863 0
M  V30 11120 N 1043.54 1.5137 0.438746 0
M  V30 11121 C 1044.47 1.68774 1.55074 0
M  V30 11122 C 1045.48 0.568436 1.52554 0
M  V30 11123 O 1046.67 0.842707 1.57355 0
M  V30 11124 C 1043.77 1.68592 2.9399 0
M  V30 11125 C 1042.95 2.97084 3.2103 0
M  V30 11126 C 1042 2.89108 4.39663 0
M  V30 11127 O 1041.03 3.63052 4.38385 0
M  V30 11128 N 1042.23 2.04863 5.4315 0
M  V30 11129 H 1045 2.647 1.40549 0
M  V30 11130 H 1042.56 1.49238 0.627663 0
M  V30 11131 H 1044.55 1.60826 3.71372 0
M  V30 11132 H 1043.12 0.802657 3.02119 0
M  V30 11133 H 1042.34 3.18729 2.3196 0
M  V30 11134 H 1043.63 3.82143 3.35923 0
M  V30 11135 H 1043.03 1.4416 5.47023 0
M  V30 11136 H 1041.58 2.02977 6.1939 0
M  V30 11137 N 1045.02 -0.694098 1.41492 0
M  V30 11138 C 1045.95 -1.81841 1.37873 0
M  V30 11139 C 1046.93 -1.60732 0.245772 0
M  V30 11140 O 1048.11 -1.83461 0.432917 0
M  V30 11141 C 1045.24 -3.18543 1.15099 0
M  V30 11142 C 1044.28 -3.5844 2.31133 0
M  V30 11143 S 1045.12 -3.63079 3.93617 0
M  V30 11144 C 1046.27 -5.02505 3.73148 0
M  V30 11145 H 1046.51 -1.84634 2.33018 0
M  V30 11146 H 1044.04 -0.862948 1.28033 0
M  V30 11147 H 1046 -3.9746 1.02646 0
M  V30 11148 H 1044.66 -3.13358 0.21572 0
M  V30 11149 H 1043.85 -4.57754 2.10896 0
M  V30 11150 H 1043.45 -2.86837 2.40002 0
M  V30 11151 H 1045.75 -5.90046 3.32945 0
M  V30 11152 H 1046.69 -5.27784 4.72069 0
M  V30 11153 H 1047.1 -4.74113 3.06394 0
M  V30 11154 O 1046.53 -1.38164 -0.836233 0
M  V30 11155 H 1047.22 -1.25159 -1.47834 0
M  V30 END ATOM
M  V30 BEGIN BOND
M  V30 END BOND
M  V30 END CTAB
M  END
$$$$
