drugbank_target|P31213 3-oxo-5-alpha-steroid 4-dehydrogenase 2 (DB00548; DB01126; DB01216)
 OpenBabel12092119353D

  0  0  0     0  0            999 V3000
M  V30 BEGIN CTAB
M  V30 COUNTS 4046 4114 0 0 0
M  V30 BEGIN ATOM
M  V30 1 H -0.908 1.98254 -0.117106 0
M  V30 2 N 0 1.576 0 0
M  V30 3 C 0.933 2.03868 1.02534 0
M  V30 4 C 1.911 0.928543 1.3348 0
M  V30 5 O 3.095 1.19667 1.45644 0
M  V30 6 C 0.222 2.43627 2.35294 0
M  V30 7 C -0.732 3.65373 2.2001 0
M  V30 8 S 0.101 5.13292 1.52614 0
M  V30 9 C 1.257 5.56322 2.86805 0
M  V30 10 H 1.49 2.90518 0.631377 0
M  V30 11 H -0.977 1.52953 0.210867 0
M  V30 12 H 0.981 2.67203 3.11629 0
M  V30 13 H -0.358 1.57376 2.7183 0
M  V30 14 H -1.165 3.90944 3.18086 0
M  V30 15 H -1.563 3.418 1.51819 0
M  V30 16 H 0.729 5.58782 3.83104 0
M  V30 17 H 1.672 6.56266 2.65933 0
M  V30 18 H 2.08 4.83886 2.90714 0
M  V30 19 N 1.4781 -0.272755 1.55222 0
M  V30 20 C 2.4101 -1.35946 1.8453 0
M  V30 21 C 3.4231 -1.45525 0.729818 0
M  V30 22 O 4.6121 -1.47337 1.00767 0
M  V30 23 C 1.7121 -2.74069 1.99347 0
M  V30 24 C 0.8851 -2.87079 3.30007 0
M  V30 25 C -0.0559 -4.05879 3.34886 0
M  V30 26 O -1.0299 -3.96626 4.08261 0
M  V30 27 N 0.1721 -5.17857 2.62307 0
M  V30 28 H 2.9371 -1.11149 2.78327 0
M  V30 29 H 0.4981 -0.462869 1.55142 0
M  V30 30 H 2.4901 -3.51838 1.99981 0
M  V30 31 H 1.0601 -2.91688 1.12415 0
M  V30 32 H 0.2801 -1.96193 3.41909 0
M  V30 33 H 1.5681 -2.92701 4.16177 0
M  V30 34 H 0.9661 -5.28261 2.02377 0
M  V30 35 H -0.4769 -5.93855 2.68663 0
M  V30 36 N 2.9562 -1.48159 -0.537278 0
M  V30 37 C 4.2022 -1.56035 -1.29541 0
M  V30 38 C 4.5352 -0.230377 -1.92829 0
M  V30 39 O 3.8102 0.762952 -1.78911 0
M  V30 40 C 4.0932 -2.69323 -2.39034 0
M  V30 41 C 3.9462 -4.12002 -1.80485 0
M  V30 42 C 5.2652 -2.78408 -3.40847 0
M  V30 43 H 2.3842 -0.567992 -0.469632 0
M  V30 44 H 5.0262 -1.80302 -0.599277 0
M  V30 45 H 3.1762 -2.48763 -2.98412 0
M  V30 46 H 4.8482 -4.43981 -1.25215 0
M  V30 47 H 3.0912 -4.19344 -1.11055 0
M  V30 48 H 3.7622 -4.87077 -2.59731 0
M  V30 49 H 6.2382 -2.97012 -2.91416 0
M  V30 50 H 5.1142 -3.59416 -4.14863 0
M  V30 51 H 5.3752 -1.86269 -4.00944 0
M  V30 52 N 4.4343 0.785586 -1.36625 0
M  V30 53 C 5.3663 1.90711 -1.2713 0
M  V30 54 C 6.3793 1.61688 -0.189986 0
M  V30 55 O 7.5683 1.72864 -0.445014 0
M  V30 56 C 4.6683 3.25611 -0.939713 0
M  V30 57 C 3.8413 3.82385 -2.12369 0
M  V30 58 C 2.9003 4.95732 -1.76456 0
M  V30 59 O 1.9263 5.12047 -2.48589 0
M  V30 60 N 3.1283 5.76258 -0.700492 0
M  V30 61 H 5.8933 1.99376 -2.23762 0
M  V30 62 H 3.4543 0.964041 -1.30069 0
M  V30 63 H 5.4463 3.98937 -0.680554 0
M  V30 64 H 4.0163 3.12538 -0.0624074 0
M  V30 65 H 3.2363 3.01001 -2.54543 0
M  V30 66 H 4.5243 4.17047 -2.9146 0
M  V30 67 H 3.9223 5.65609 -0.101624 0
M  V30 68 H 2.4793 6.4987 -0.501165 0
M  V30 69 N 5.9124 1.20967 1.01018 0
M  V30 70 C 7.1524 1.03511 1.76252 0
M  V30 71 C 7.5164 -0.42458 1.87247 0
M  V30 72 O 8.7174 -0.719508 2.58991 0
M  V30 73 C 6.9884 1.70726 3.13986 0
M  V30 74 S 8.5474 1.68458 4.05176 0
M  V30 75 H 5.3654 0.371037 0.606508 0
M  V30 76 H 7.9674 1.53628 1.20908 0
M  V30 77 H 6.6714 2.76128 3.03614 0
M  V30 78 H 6.2024 1.20767 3.74405 0
M  V30 79 H 8.2174 0.721987 4.90919 0
M  V30 80 N 7.3905 -1.2043 1.01659 0
M  V30 81 C 8.3225 -2.22626 0.544988 0
M  V30 82 C 9.3355 -1.58479 -0.372609 0
M  V30 83 O 10.5245 -1.77679 -0.170958 0
M  V30 84 C 7.6245 -3.38141 -0.22663 0
M  V30 85 C 6.7975 -4.31877 0.692876 0
M  V30 86 C 5.8565 -5.26191 -0.0311616 0
M  V30 87 O 4.8825 -5.6612 0.591343 0
M  V30 88 N 6.0845 -5.65618 -1.30601 0
M  V30 89 H 8.8495 -2.63716 1.42388 0
M  V30 90 H 6.4105 -1.34971 0.894116 0
M  V30 91 H 8.4025 -3.98239 -0.72024 0
M  V30 92 H 6.9725 -2.95943 -1.00681 0
M  V30 93 H 6.1925 -3.69746 1.36679 0
M  V30 94 H 7.4805 -4.91426 1.31824 0
M  V30 95 H 6.8785 -5.3519 -1.83269 0
M  V30 96 H 5.4355 -6.28025 -1.74435 0
M  V30 97 N 8.8686 -0.792821 -1.36206 0
M  V30 98 C 9.8006 -0.151469 -2.28699 0
M  V30 99 C 10.8136 0.641262 -1.49638 0
M  V30 100 O 12.0026 0.475885 -1.72039 0
M  V30 101 C 9.1026 0.808424 -3.29117 0
M  V30 102 C 8.2756 0.0650202 -4.37352 0
M  V30 103 C 7.3346 0.941358 -5.17711 0
M  V30 104 O 6.3606 0.397352 -5.67811 0
M  V30 105 N 7.5626 2.2652 -5.3448 0
M  V30 106 H 10.3276 -0.945982 -2.84379 0
M  V30 107 H 7.8886 -0.647032 -1.48409 0
M  V30 108 H 9.8806 1.3986 -3.79765 0
M  V30 109 H 8.4506 1.5038 -2.74052 0
M  V30 110 H 7.6706 -0.706255 -3.87822 0
M  V30 111 H 8.9586 -0.447847 -5.06825 0
M  V30 112 H 8.3566 2.73128 -4.95396 0
M  V30 113 H 6.9136 2.80493 -5.88359 0
M  V30 114 N 10.3467 1.47872 -0.545128 0
M  V30 115 C 11.5717 2.07391 -0.0190611 0
M  V30 116 C 11.9967 1.39688 1.25971 0
M  V30 117 O 11.3547 0.467816 1.7516 0
M  V30 118 C 11.4027 3.60188 0.172335 0
M  V30 119 O 10.5067 3.9339 1.23766 0
M  V30 120 H 9.8477 0.662411 -0.0459059 0
M  V30 121 H 12.3777 1.90066 -0.757365 0
M  V30 122 H 12.3877 4.06129 0.390305 0
M  V30 123 H 11.0627 4.08865 -0.761725 0
M  V30 124 H 9.6397 3.5921 1.00114 0
M  V30 125 N 11.8248 0.280983 1.55075 0
M  V30 126 C 13.2358 -0.215629 1.85451 0
M  V30 127 C 13.5868 -1.54991 1.203 0
M  V30 128 O 12.7118 -2.10699 0.493435 0
M  V30 129 C 13.3068 -0.398026 3.36454 0
M  V30 130 C 11.8658 -0.838866 3.66933 0
M  V30 131 C 11.0128 0.064458 2.77225 0
M  V30 132 H 13.9638 0.502601 1.50531 0
M  V30 133 H 13.9848 -1.23569 3.59876 0
M  V30 134 H 13.4968 0.573241 3.83843 0
M  V30 135 H 11.5978 -1.8214 3.25048 0
M  V30 136 H 11.7108 -0.672123 4.74362 0
M  V30 137 H 10.0748 -0.452863 2.50642 0
M  V30 138 H 10.8578 1.03172 3.2743 0
M  V30 139 N 13.3029 -1.57598 0.00835791 0
M  V30 140 C 14.5489 -1.91211 -0.675732 0
M  V30 141 C 14.8819 -0.883139 -1.72958 0
M  V30 142 O 14.1569 0.097016 -1.94258 0
M  V30 143 C 14.4399 -3.35379 -1.31123 0
M  V30 144 C 14.2929 -4.48999 -0.268356 0
M  V30 145 C 15.6119 -3.7912 -2.23508 0
M  V30 146 H 12.7309 -0.695374 -0.244179 0
M  V30 147 H 15.3729 -1.89901 0.0613655 0
M  V30 148 H 13.5229 -3.36626 -1.93946 0
M  V30 149 H 15.1949 -4.59887 0.360844 0
M  V30 150 H 13.4379 -4.31873 0.408482 0
M  V30 151 H 14.1089 -5.46851 -0.752218 0
M  V30 152 H 16.5849 -3.79477 -1.70693 0
M  V30 153 H 15.4609 -4.80729 -2.64936 0
M  V30 154 H 15.7219 -3.13455 -3.11766 0
M  V30 155 N 14.781 0.264519 -1.55364 0
M  V30 156 C 15.711 1.33121 -1.91836 0
M  V30 157 C 16.692 1.51101 -0.781192 0
M  V30 158 O 17.877 1.64003 -1.04003 0
M  V30 159 C 15.007 2.68921 -2.19769 0
M  V30 160 C 13.961 2.65661 -3.35571 0
M  V30 161 C 13.287 4.05093 -3.49004 0
M  V30 162 C 14.587 2.24187 -4.71739 0
M  V30 163 H 16.281 1.02844 -2.81182 0
M  V30 164 H 13.827 0.493286 -1.35287 0
M  V30 165 H 15.78 3.43663 -2.43872 0
M  V30 166 H 14.504 3.00799 -1.27231 0
M  V30 167 H 13.163 1.93377 -3.1145 0
M  V30 168 H 12.811 4.34206 -2.53917 0
M  V30 169 H 12.511 4.03804 -4.26868 0
M  V30 170 H 14.035 4.81561 -3.75408 0
M  V30 171 H 15.449 2.88654 -4.9533 0
M  V30 172 H 13.846 2.34044 -5.52579 0
M  V30 173 H 14.916 1.19327 -4.69988 0
M  V30 174 N 16.2591 1.48442 0.529413 0
M  V30 175 C 17.2221 1.62524 1.61612 0
M  V30 176 C 18.2221 0.498509 1.52877 0
M  V30 177 O 19.4121 0.76431 1.56537 0
M  V30 178 C 16.5441 1.59597 3.01233 0
M  V30 179 H 17.7371 2.59423 1.50465 0
M  V30 180 H 15.2901 1.37047 0.751514 0
M  V30 181 H 16.0251 0.641781 3.17886 0
M  V30 182 H 15.8101 2.41397 3.08982 0
M  V30 183 H 17.3001 1.72646 3.80241 0
M  V30 184 N 17.7372 -0.778329 1.37039 0
M  V30 185 C 18.9852 -1.53361 1.31623 0
M  V30 186 C 19.3062 -1.94739 -0.100831 0
M  V30 187 O 18.5762 -1.65797 -1.04347 0
M  V30 188 H 17.1562 -0.568794 0.484234 0
M  V30 189 H 19.8182 -0.926742 1.71457 0
M  V30 190 H 18.9142 -2.43606 1.95096 0
M  V30 191 N 19.2153 -1.21501 -1.00376 0
M  V30 192 C 20.4403 -1.05977 -1.78279 0
M  V30 193 C 20.8653 0.385994 -1.84097 0
M  V30 194 O 20.2233 1.27849 -1.28547 0
M  V30 195 C 20.2713 -1.66302 -3.19963 0
M  V30 196 O 19.3753 -0.909333 -4.0225 0
M  V30 197 H 18.7163 -0.372906 -0.549397 0
M  V30 198 H 21.2463 -1.6107 -1.26165 0
M  V30 199 H 21.2563 -1.70574 -3.70632 0
M  V30 200 H 19.9313 -2.71515 -3.15043 0
M  V30 201 H 18.5083 -0.941795 -3.60811 0
M  V30 202 N 20.6934 1.19889 -1.02296 0
M  V30 203 C 21.6564 2.21116 -0.603351 0
M  V30 204 C 22.6564 1.5738 0.329884 0
M  V30 205 O 23.8464 1.73802 0.117702 0
M  V30 206 C 20.9784 3.40696 0.117992 0
M  V30 207 H 22.1714 2.59754 -1.49893 0
M  V30 208 H 19.7244 1.33463 -0.813468 0
M  V30 209 H 20.4594 3.07569 1.0282 0
M  V30 210 H 20.2444 3.88188 -0.552511 0
M  V30 211 H 21.7344 4.15692 0.398696 0
M  V30 212 N 22.1715 0.800033 1.35784 0
M  V30 213 C 23.3995 0.389606 2.03199 0
M  V30 214 C 23.8145 -0.997375 1.60306 0
M  V30 215 O 23.1715 -1.64154 0.797481 0
M  V30 216 C 23.2225 0.455855 3.58614 0
M  V30 217 O 22.9435 1.78815 3.99946 0
M  V30 218 C 24.4445 0.0374032 4.43284 0
M  V30 219 H 21.6645 0.159132 0.651857 0
M  V30 220 H 24.2085 1.08183 1.73541 0
M  V30 221 H 22.3635 -0.188057 3.86943 0
M  V30 222 H 22.7775 1.74636 4.94573 0
M  V30 223 H 24.2515 0.134882 5.51835 0
M  V30 224 H 24.7285 -1.01651 4.27275 0
M  V30 225 H 25.3345 0.654215 4.20238 0
M  V30 226 N 23.6496 -1.47581 0.552962 0
M  V30 227 C 24.5796 -2.32762 -0.185451 0
M  V30 228 C 25.5606 -1.43527 -0.912905 0
M  V30 229 O 26.7456 -1.72388 -0.894201 0
M  V30 230 C 23.8756 -3.25219 -1.21859 0
M  V30 231 C 22.8296 -4.23661 -0.607864 0
M  V30 232 C 22.1556 -5.05413 -1.74533 0
M  V30 233 C 23.4556 -5.20481 0.435582 0
M  V30 234 H 25.1496 -2.94749 0.525684 0
M  V30 235 H 22.6956 -1.41738 0.254251 0
M  V30 236 H 24.6486 -3.8365 -1.7433 0
M  V30 237 H 23.3726 -2.61279 -1.95961 0
M  V30 238 H 22.0316 -3.66451 -0.104489 0
M  V30 239 H 21.6796 -4.3788 -2.47529 0
M  V30 240 H 21.3796 -5.72059 -1.34249 0
M  V30 241 H 22.9036 -5.66701 -2.27338 0
M  V30 242 H 24.3176 -5.733 -0.00290157 0
M  V30 243 H 22.7146 -5.95305 0.757067 0
M  V30 244 H 23.7846 -4.66217 1.33303 0
M  V30 245 N 25.1277 -0.289203 -1.54924 0
M  V30 246 C 26.3737 0.323998 -2.00195 0
M  V30 247 C 26.7067 1.54441 -1.17735 0
M  V30 248 O 25.9817 1.92875 -0.250878 0
M  V30 249 C 26.2647 0.692276 -3.53383 0
M  V30 250 C 26.1177 -0.536457 -4.46589 0
M  V30 251 C 27.4367 1.52335 -4.12895 0
M  V30 252 H 24.5557 0.116289 -0.727768 0
M  V30 253 H 27.1977 -0.398954 -1.85764 0
M  V30 254 H 25.3477 1.30822 -3.65811 0
M  V30 255 H 27.0197 -1.17499 -4.46085 0
M  V30 256 H 25.2627 -1.17192 -4.1767 0
M  V30 257 H 25.9337 -0.234806 -5.515 0
M  V30 258 H 28.4097 1.00302 -4.0383 0
M  V30 259 H 27.2857 1.74982 -5.20262 0
M  V30 260 H 27.5467 2.50886 -3.64018 0
M  V30 261 N 26.6058 1.57591 -0.0167156 0
M  V30 262 C 27.5688 2.08393 0.954204 0
M  V30 263 C 28.5688 0.996531 1.26198 0
M  V30 264 O 29.7588 1.25858 1.20438 0
M  V30 265 C 26.8908 2.5394 2.27436 0
M  V30 266 H 28.0838 2.95455 0.514451 0
M  V30 267 H 25.6368 1.54582 0.231089 0
M  V30 268 H 26.3718 1.70171 2.76066 0
M  V30 269 H 26.1568 3.33371 2.06412 0
M  V30 270 H 27.6468 2.93512 2.97053 0
M  V30 271 N 28.0839 -0.256276 1.55502 0
M  V30 272 C 29.0139 -1.32102 1.92539 0
M  V30 273 C 29.9949 -1.50684 0.789194 0
M  V30 274 O 31.1799 -1.63449 1.04872 0
M  V30 275 C 28.3099 -2.67752 2.21192 0
M  V30 276 C 27.2639 -2.63878 3.36975 0
M  V30 277 C 26.5899 -4.03236 3.51147 0
M  V30 278 C 27.8899 -2.21682 4.72921 0
M  V30 279 H 29.5839 -1.01351 2.81724 0
M  V30 280 H 27.1299 -0.486105 1.35547 0
M  V30 281 H 29.0829 -3.42365 2.45691 0
M  V30 282 H 27.8069 -3.0012 1.28824 0
M  V30 283 H 26.4659 -1.91722 3.12471 0
M  V30 284 H 26.1139 -4.32854 2.56216 0
M  V30 285 H 25.8139 -4.01535 4.29003 0
M  V30 286 H 27.3379 -4.79563 3.77957 0
M  V30 287 H 28.7519 -2.86023 4.96854 0
M  V30 288 H 27.1489 -2.3111 5.53812 0
M  V30 289 H 28.2189 -1.16833 4.70615 0
M  V30 290 N 29.562 -1.4872 -0.521534 0
M  V30 291 C 30.81 -1.56857 -1.27437 0
M  V30 292 C 31.131 -0.247982 -1.93417 0
M  V30 293 O 30.401 0.731151 -1.81744 0
M  V30 294 H 28.981 -0.577885 -0.473347 0
M  V30 295 H 31.643 -1.85233 -0.606205 0
M  V30 296 H 30.739 -2.35402 -2.0492 0
M  V30 297 N 31.0401 0.771051 -1.3745 0
M  V30 298 C 32.0031 1.86598 -1.33093 0
M  V30 299 C 33.0031 1.59076 -0.234845 0
M  V30 300 O 34.1931 1.67145 -0.490732 0
M  V30 301 C 31.3251 3.23747 -1.06773 0
M  V30 302 H 32.5181 1.91873 -2.30488 0
M  V30 303 H 30.0711 0.970876 -1.2249 0
M  V30 304 H 30.8061 3.24148 -0.099129 0
M  V30 305 H 30.5911 3.45115 -1.86112 0
M  V30 306 H 32.0811 4.03824 -1.06377 0
M  V30 307 N 32.5182 1.22032 0.997298 0
M  V30 308 C 33.4482 1.01065 2.10495 0
M  V30 309 C 34.4292 -0.0669542 1.69968 0
M  V30 310 O 35.6142 0.0943987 1.9397 0
M  V30 311 C 32.7442 0.582874 3.42374 0
M  V30 312 C 31.6982 1.60592 3.96729 0
M  V30 313 C 31.0242 1.03412 5.24605 0
M  V30 314 C 32.3242 2.99478 4.27914 0
M  V30 315 H 34.0182 1.93708 2.28292 0
M  V30 316 H 31.5642 0.932761 1.09707 0
M  V30 317 H 33.5172 0.423332 4.19268 0
M  V30 318 H 32.2412 -0.379213 3.24391 0
M  V30 319 H 30.9002 1.75316 3.21963 0
M  V30 320 H 30.5482 0.063518 5.0296 0
M  V30 321 H 30.2482 1.71754 5.61938 0
M  V30 322 H 31.7722 0.886066 6.04137 0
M  V30 323 H 33.1862 2.88153 4.95622 0
M  V30 324 H 31.5832 3.64903 4.76409 0
M  V30 325 H 32.6532 3.49742 3.3587 0
M  V30 326 N 33.9963 -1.19345 1.0293 0
M  V30 327 C 34.9593 -2.20793 0.615069 0
M  V30 328 C 35.9593 -1.57553 -0.321533 0
M  V30 329 O 37.1493 -1.73862 -0.108483 0
M  V30 330 C 34.2813 -3.40754 -0.0999222 0
M  V30 331 H 35.4743 -2.58955 1.51269 0
M  V30 332 H 33.0273 -1.3303 0.820534 0
M  V30 333 H 33.7623 -3.0811 -1.01187 0
M  V30 334 H 33.5473 -3.87889 0.57309 0
M  V30 335 H 35.0373 -4.15898 -0.376645 0
M  V30 336 N 35.4744 -0.807222 -1.35358 0
M  V30 337 C 36.4044 -0.232509 -2.3234 0
M  V30 338 C 37.3854 0.642386 -1.57504 0
M  V30 339 O 38.5704 0.572526 -1.85569 0
M  V30 340 C 35.7004 0.619238 -3.41735 0
M  V30 341 C 34.6544 -0.157215 -4.27711 0
M  V30 342 C 33.9804 0.816273 -5.28433 0
M  V30 343 C 35.2804 -1.35656 -5.04376 0
M  V30 344 H 36.9744 -1.04276 -2.80654 0
M  V30 345 H 34.5204 -0.50288 -1.34934 0
M  V30 346 H 36.4734 1.03137 -4.08584 0
M  V30 347 H 35.1974 1.46239 -2.92031 0
M  V30 348 H 33.8564 -0.550525 -3.62443 0
M  V30 349 H 33.5044 1.65494 -4.74996 0
M  V30 350 H 33.2044 0.301067 -5.86828 0
M  V30 351 H 34.7284 1.22659 -5.98153 0
M  V30 352 H 36.1424 -1.01927 -5.64166 0
M  V30 353 H 34.5394 -1.8063 -5.7227 0
M  V30 354 H 35.6094 -2.14288 -4.34981 0
M  V30 355 N 36.9525 1.47285 -0.560781 0
M  V30 356 C 38.1825 2.06555 -0.0429638 0
M  V30 357 C 38.5905 1.41339 1.25777 0
M  V30 358 O 37.9335 0.505182 1.76617 0
M  V30 359 C 37.9955 3.58827 0.219887 0
M  V30 360 C 37.6595 4.46105 -0.991944 0
M  V30 361 C 38.6565 4.84 -1.89843 0
M  V30 362 C 36.3415 4.87567 -1.20762 0
M  V30 363 C 38.3355 5.6216 -3.00425 0
M  V30 364 C 36.0225 5.65491 -2.31653 0
M  V30 365 C 37.0205 6.02699 -3.21315 0
M  V30 366 O 36.7085 6.79052 -4.30283 0
M  V30 367 H 36.4405 0.674537 -0.0444468 0
M  V30 368 H 38.9945 1.90225 -0.774818 0
M  V30 369 H 37.2245 3.73383 1.00609 0
M  V30 370 H 38.9135 4.00103 0.683522 0
M  V30 371 H 39.6795 4.52564 -1.74387 0
M  V30 372 H 35.5585 4.5807 -0.518893 0
M  V30 373 H 39.1025 5.9112 -3.70436 0
M  V30 374 H 34.9995 5.9634 -2.47081 0
M  V30 375 H 35.7675 6.9745 -4.28376 0
M  V30 376 N 38.4306 0.297415 1.54768 0
M  V30 377 C 39.6766 -0.313376 2.00364 0
M  V30 378 C 40.0096 -1.53815 1.18553 0
M  V30 379 O 39.2846 -1.92739 0.261103 0
M  V30 380 C 39.5676 -0.673525 3.53745 0
M  V30 381 C 39.4206 0.560133 4.46299 0
M  V30 382 C 40.7396 -1.50143 4.13697 0
M  V30 383 H 37.8586 -0.112428 0.728374 0
M  V30 384 H 40.5006 0.4088 1.8555 0
M  V30 385 H 38.6506 -1.28881 3.665 0
M  V30 386 H 40.3226 1.19863 4.45455 0
M  V30 387 H 38.5656 1.19405 4.17043 0
M  V30 388 H 39.2366 0.26405 5.51368 0
M  V30 389 H 41.7126 -0.981588 4.04356 0
M  V30 390 H 40.5886 -1.72221 5.21182 0
M  V30 391 H 40.8496 -2.48952 3.65343 0
M  V30 392 N 39.9087 -1.5758 0.0250728 0
M  V30 393 C 40.8717 -2.08896 -0.943139 0
M  V30 394 C 41.8717 -1.00321 -1.25668 0
M  V30 395 O 43.0617 -1.26495 -1.19769 0
M  V30 396 C 40.1937 -2.55143 -2.26086 0
M  V30 397 H 41.3867 -2.95723 -0.498775 0
M  V30 398 H 38.9397 -1.54703 -0.222888 0
M  V30 399 H 39.6747 -1.71633 -2.75159 0
M  V30 400 H 39.4597 -3.34461 -2.04641 0
M  V30 401 H 40.9497 -2.95083 -2.95492 0
M  V30 402 N 41.3868 0.248026 -1.55636 0
M  V30 403 C 42.3338 1.30707 -1.90222 0
M  V30 404 C 43.3038 1.47881 -0.756332 0
M  V30 405 O 44.4888 1.61883 -1.00988 0
M  V30 406 C 41.6288 2.65769 -2.20138 0
M  V30 407 C 40.7418 2.56612 -3.47526 0
M  V30 408 C 39.8768 3.8402 -3.67017 0
M  V30 409 C 38.9158 3.69476 -4.8801 0
M  V30 410 N 38.0528 4.88774 -5.04029 0
M  V30 411 H 42.8928 1.00512 -2.80538 0
M  V30 412 H 40.4298 0.485055 -1.38873 0
M  V30 413 H 42.3878 3.44386 -2.35487 0
M  V30 414 H 41.0178 2.94115 -1.33027 0
M  V30 415 H 40.0698 1.69571 -3.40514 0
M  V30 416 H 41.3818 2.41774 -4.36287 0
M  V30 417 H 40.5358 4.7108 -3.8232 0
M  V30 418 H 39.2748 4.01754 -2.76487 0
M  V30 419 H 38.2798 2.80799 -4.72686 0
M  V30 420 H 39.5048 3.53238 -5.8 0
M  V30 421 H 37.4508 5.0687 -4.16435 0
M  V30 422 H 37.3678 4.76562 -5.86877 0
M  V30 423 H 38.6358 5.77335 -5.23741 0
M  V30 424 N 42.8649 1.48995 0.513639 0
M  V30 425 C 44.2759 1.5119 1.09537 0
M  V30 426 C 44.6269 0.290906 1.94031 0
M  V30 427 O 43.7519 -0.60049 2.07902 0
M  V30 428 C 44.3469 2.73964 1.99322 0
M  V30 429 C 42.9059 2.78978 2.52682 0
M  V30 430 C 42.0529 2.44934 1.30009 0
M  V30 431 H 45.0039 1.55875 0.298125 0
M  V30 432 H 45.0249 2.53409 2.83838 0
M  V30 433 H 44.5369 3.62813 1.37799 0
M  V30 434 H 42.6379 1.94378 3.1788 0
M  V30 435 H 42.7509 3.8083 2.90698 0
M  V30 436 H 41.1149 1.9644 1.62122 0
M  V30 437 H 41.8979 3.36043 0.702131 0
M  V30 438 N 44.343 -0.763751 1.37857 0
M  V30 439 C 45.568 -1.55805 1.36893 0
M  V30 440 C 45.993 -1.88054 -0.0416135 0
M  V30 441 O 45.351 -1.49825 -1.02089 0
M  V30 442 C 45.399 -2.84012 2.22192 0
M  V30 443 O 44.503 -3.78732 1.63204 0
M  V30 444 H 43.844 -0.471638 0.46739 0
M  V30 445 H 46.374 -0.944657 1.81487 0
M  V30 446 H 46.384 -3.33037 2.35691 0
M  V30 447 H 45.059 -2.59869 3.24716 0
M  V30 448 H 43.636 -3.37402 1.58791 0
M  V30 449 N 45.8211 -1.22559 -0.990812 0
M  V30 450 C 47.0691 -1.04933 -1.72724 0
M  V30 451 C 47.3901 0.416158 -1.90508 0
M  V30 452 O 46.6601 1.29918 -1.46622 0
M  V30 453 H 45.2401 -0.385296 -0.639965 0
M  V30 454 H 47.9021 -1.54105 -1.19322 0
M  V30 455 H 46.9981 -1.52886 -2.72089 0
M  V30 456 N 47.2992 1.18797 -1.03562 0
M  V30 457 C 48.5292 1.92319 -0.754773 0
M  V30 458 C 48.9372 1.7612 0.691248 0
M  V30 459 O 48.2802 1.08491 1.48241 0
M  V30 460 C 48.3422 3.44284 -1.03484 0
M  V30 461 C 48.0062 3.84258 -2.47376 0
M  V30 462 C 49.0032 3.88459 -3.45537 0
M  V30 463 C 46.6882 4.15701 -2.81954 0
M  V30 464 C 48.6822 4.23545 -4.76328 0
M  V30 465 C 46.3692 4.50458 -4.12954 0
M  V30 466 C 47.3672 4.54356 -5.09951 0
M  V30 467 O 47.0552 4.88305 -6.38603 0
M  V30 468 H 46.7872 0.617527 -0.275021 0
M  V30 469 H 49.3412 1.51683 -1.38497 0
M  V30 470 H 47.5712 3.85135 -0.347513 0
M  V30 471 H 49.2602 3.99049 -0.7426 0
M  V30 472 H 50.0262 3.6431 -3.20162 0
M  V30 473 H 45.9052 4.11847 -2.0713 0
M  V30 474 H 49.4492 4.26502 -5.52035 0
M  V30 475 H 45.3462 4.74067 -4.38099 0
M  V30 476 H 46.1142 5.06227 -6.43177 0
M  V30 477 N 48.7773 0.814389 1.34928 0
M  V30 478 C 50.0253 0.397636 1.9815 0
M  V30 479 C 50.3463 -1.04069 1.64908 0
M  V30 480 O 49.6163 -1.72121 0.93548 0
M  V30 481 H 48.1963 0.144043 0.732981 0
M  V30 482 H 50.8583 1.04195 1.6471 0
M  V30 483 H 49.9543 0.509688 3.0791 0
M  V30 484 N 50.2554 -1.46986 0.568584 0
M  V30 485 C 51.2024 -2.30153 -0.172707 0
M  V30 486 C 52.1724 -1.39759 -0.897586 0
M  V30 487 O 53.3574 -1.68716 -0.891044 0
M  V30 488 C 50.4974 -3.23952 -1.1895 0
M  V30 489 C 49.6104 -4.29441 -0.469517 0
M  V30 490 C 48.7454 -5.1038 -1.47259 0
M  V30 491 C 47.7844 -6.07632 -0.738225 0
M  V30 492 N 46.9214 -6.8149 -1.68868 0
M  V30 493 H 51.7614 -2.93019 0.542596 0
M  V30 494 H 49.2984 -1.44422 0.279401 0
M  V30 495 H 51.2564 -3.76767 -1.79173 0
M  V30 496 H 49.8864 -2.62926 -1.87269 0
M  V30 497 H 48.9384 -3.79594 0.247467 0
M  V30 498 H 50.2504 -4.98689 0.105241 0
M  V30 499 H 49.4044 -5.67402 -2.14803 0
M  V30 500 H 48.1434 -4.4106 -2.08128 0
M  V30 501 H 47.1484 -5.49778 -0.0489293 0
M  V30 502 H 48.3734 -6.78966 -0.135129 0
M  V30 503 H 46.3194 -6.14891 -2.28573 0
M  V30 504 H 46.2364 -7.46948 -1.16636 0
M  V30 505 H 47.5044 -7.43078 -2.3549 0
M  V30 506 N 51.7335 -0.305618 -1.54608 0
M  V30 507 C 52.6835 0.583595 -2.20405 0
M  V30 508 C 53.6675 1.09539 -1.17856 0
M  V30 509 O 54.8595 1.0354 -1.43557 0
M  V30 510 C 51.9885 1.75277 -2.95183 0
M  V30 511 C 51.0745 1.25672 -4.05052 0
M  V30 512 N 51.4655 0.478998 -5.03527 0
M  V30 513 C 49.7635 1.53704 -4.18678 0
M  V30 514 C 50.4645 0.214269 -5.81305 0
M  V30 515 N 49.4405 0.795374 -5.3775 0
M  V30 516 H 53.2425 -0.0180946 -2.93894 0
M  V30 517 H 50.7565 -0.110601 -1.62023 0
M  V30 518 H 52.7535 2.4014 -3.40791 0
M  V30 519 H 51.4135 2.35812 -2.23211 0
M  V30 520 H 52.4245 0.123473 -5.17753 0
M  V30 521 H 49.1015 2.14954 -3.57912 0
M  V30 522 H 50.4915 -0.410656 -6.70644 0
M  V30 523 N 53.2116 1.57565 -0.0334293 0
M  V30 524 C 54.4396 1.9628 0.654347 0
M  V30 525 C 54.8546 0.910138 1.65414 0
M  V30 526 O 54.2116 -0.107595 1.82183 0
M  V30 527 C 54.2626 3.35067 1.35693 0
M  V30 528 O 53.9836 4.36296 0.397191 0
M  V30 529 C 55.4846 3.88439 2.13613 0
M  V30 530 H 52.7046 0.646369 0.180132 0
M  V30 531 H 55.2486 2.04282 -0.0944721 0
M  V30 532 H 53.4036 3.2827 2.05712 0
M  V30 533 H 53.8176 5.1678 0.896597 0
M  V30 534 H 55.2916 4.8788 2.58219 0
M  V30 535 H 55.7686 3.22914 2.97696 0
M  V30 536 H 56.3746 3.98516 1.48543 0
M  V30 537 N 54.6897 -0.239769 1.55765 0
M  V30 538 C 55.5997 -1.31831 1.94056 0
M  V30 539 C 56.6157 -1.52275 0.841925 0
M  V30 540 O 57.7917 -1.65759 1.14394 0
M  V30 541 C 54.8567 -2.65156 2.23368 0
M  V30 542 C 53.9177 -2.53173 3.46701 0
M  V30 543 C 53.1507 -3.8014 3.74606 0
M  V30 544 O 53.3737 -4.82343 3.04469 0
M  V30 545 O 52.3077 -3.78344 4.68123 0
M  V30 546 H 56.1337 -1.02347 2.85935 0
M  V30 547 H 53.7187 -0.441123 1.42739 0
M  V30 548 H 55.6007 -3.43929 2.43497 0
M  V30 549 H 54.2757 -2.94358 1.34666 0
M  V30 550 H 53.1827 -1.72662 3.31871 0
M  V30 551 H 54.5157 -2.28915 4.35728 0
M  V30 552 N 56.1678 -1.49265 -0.50573 0
M  V30 553 C 57.3928 -1.62478 -1.28902 0
M  V30 554 C 57.8178 -0.294332 -1.85783 0
M  V30 555 O 57.1758 0.737412 -1.65626 0
M  V30 556 C 57.2238 -2.69268 -2.39848 0
M  V30 557 O 56.3278 -2.28113 -3.43567 0
M  V30 558 H 55.6688 -0.54399 -0.380751 0
M  V30 559 H 58.1988 -1.95421 -0.605952 0
M  V30 560 H 58.2088 -2.91291 -2.85681 0
M  V30 561 H 56.8838 -3.65846 -1.97812 0
M  V30 562 H 55.4608 -2.16401 -3.03685 0
M  V30 563 N 57.6459 0.756429 -1.3826 0
M  V30 564 C 58.5759 1.88374 -1.37976 0
M  V30 565 C 59.5569 1.68311 -0.246082 0
M  V30 566 O 60.7419 1.88944 -0.44874 0
M  V30 567 C 57.8719 3.25864 -1.20125 0
M  V30 568 C 56.8259 3.60523 -2.30666 0
M  V30 569 C 56.1519 4.9672 -1.97923 0
M  V30 570 C 57.4519 3.65692 -3.72916 0
M  V30 571 H 59.1459 1.88869 -2.32312 0
M  V30 572 H 56.6919 0.907272 -1.11824 0
M  V30 573 H 58.6449 4.0438 -1.18552 0
M  V30 574 H 57.3689 3.25841 -0.222498 0
M  V30 575 H 56.0279 2.84324 -2.3142 0
M  V30 576 H 55.6759 4.93253 -0.985393 0
M  V30 577 H 55.3759 5.20878 -2.71955 0
M  V30 578 H 56.8999 5.77618 -1.97964 0
M  V30 579 H 58.3139 4.34328 -3.74208 0
M  V30 580 H 56.7109 4.01358 -4.4613 0
M  V30 581 H 57.7809 2.65987 -4.05436 0
M  V30 582 N 59.124 1.23083 0.984299 0
M  V30 583 C 60.071 1.00854 2.07598 0
M  V30 584 C 61.041 -0.0726709 1.65941 0
M  V30 585 O 62.226 0.0786535 1.90638 0
M  V30 586 C 59.366 0.601645 3.39815 0
M  V30 587 C 58.479 1.75456 3.94765 0
M  V30 588 C 57.614 1.29482 5.15177 0
M  V30 589 C 56.653 2.41873 5.62284 0
M  V30 590 N 55.79 1.96885 6.73929 0
M  V30 591 H 60.63 1.943 2.25946 0
M  V30 592 H 58.167 0.968001 1.10762 0
M  V30 593 H 60.125 0.346854 4.15756 0
M  V30 594 H 58.755 -0.295803 3.21442 0
M  V30 595 H 57.807 2.12346 3.15616 0
M  V30 596 H 59.119 2.59965 4.25699 0
M  V30 597 H 58.273 0.997923 5.98437 0
M  V30 598 H 57.012 0.420046 4.85888 0
M  V30 599 H 56.017 2.72342 4.77608 0
M  V30 600 H 57.242 3.29881 5.93595 0
M  V30 601 H 55.188 1.11782 6.46406 0
M  V30 602 H 55.105 2.74956 7.04227 0
M  V30 603 H 56.373 1.70289 7.60672 0
M  V30 604 N 60.6021 -1.18246 1.0419 0
M  V30 605 C 62.0131 -1.69914 0.773698 0
M  V30 606 C 62.3641 -1.83085 -0.705297 0
M  V30 607 O 61.4891 -1.51123 -1.5489 0
M  V30 608 C 62.0841 -3.08619 1.39784 0
M  V30 609 C 60.6431 -3.57494 1.17792 0
M  V30 610 C 59.7901 -2.34013 1.48773 0
M  V30 611 H 62.7411 -1.02904 1.20816 0
M  V30 612 H 62.7621 -3.71958 0.801714 0
M  V30 613 H 62.2741 -2.99001 2.47426 0
M  V30 614 H 60.3751 -3.72406 0.120295 0
M  V30 615 H 60.4881 -4.40852 1.87581 0
M  V30 616 H 58.8521 -2.37986 0.907463 0
M  V30 617 H 59.6351 -2.27013 2.57527 0
M  V30 618 N 62.0802 -0.821533 -1.34494 0
M  V30 619 C 63.0432 -0.247847 -2.27856 0
M  V30 620 C 64.0432 0.573453 -1.50227 0
M  V30 621 O 65.2332 0.389759 -1.69784 0
M  V30 622 C 62.3652 0.652698 -3.34593 0
M  V30 623 H 63.5582 -1.07146 -2.80107 0
M  V30 624 H 61.1112 -0.593291 -1.44602 0
M  V30 625 H 61.8462 1.49943 -2.87555 0
M  V30 626 H 61.6312 0.065292 -3.92046 0
M  V30 627 H 63.1212 1.04793 -4.04238 0
M  V30 628 N 63.5583 1.46682 -0.576371 0
M  V30 629 C 64.5213 2.28707 0.150239 0
M  V30 630 C 65.5213 1.38035 0.824794 0
M  V30 631 O 66.7113 1.60476 0.677719 0
M  V30 632 C 63.8433 3.18248 1.22192 0
M  V30 633 H 65.0363 2.94423 -0.570521 0
M  V30 634 H 62.5893 1.52688 -0.334078 0
M  V30 635 H 63.3243 2.57265 1.97447 0
M  V30 636 H 63.1093 3.85 0.742812 0
M  V30 637 H 64.5993 3.80001 1.73172 0
M  V30 638 N 65.0364 0.313813 1.54444 0
M  V30 639 C 66.2644 -0.293918 2.04802 0
M  V30 640 C 66.6794 -1.46537 1.19047 0
M  V30 641 O 66.0364 -1.81182 0.218939 0
M  V30 642 C 66.0874 -0.737806 3.53891 0
M  V30 643 O 65.8084 0.387038 4.36387 0
M  V30 644 C 67.3094 -1.40936 4.203 0
M  V30 645 H 64.5294 -0.0620057 0.668129 0
M  V30 646 H 67.0734 0.457169 1.99324 0
M  V30 647 H 65.2284 -1.43889 3.59687 0
M  V30 648 H 65.6424 0.0391274 5.24485 0
M  V30 649 H 67.1164 -1.67099 5.26101 0
M  V30 650 H 67.5934 -2.35355 3.70816 0
M  V30 651 H 68.1994 -0.751117 4.18615 0
M  V30 652 N 66.5145 -1.57545 0.0417849 0
M  V30 653 C 67.9305 -1.56467 -0.314704 0
M  V30 654 C 68.1305 -1.04859 -1.72066 0
M  V30 655 O 67.1865 -0.700983 -2.42575 0
M  V30 656 C 68.4995 -3.00317 -0.15174 0
M  V30 657 C 70.0475 -3.12201 -0.223553 0
M  V30 658 C 70.5225 -4.57913 -0.0892295 0
M  V30 659 N 72.0135 -4.6297 -0.145808 0
M  V30 660 C 72.7485 -5.73362 -0.0658459 0
M  V30 661 N 72.2445 -6.92769 0.0659282 0
M  V30 662 N 74.0375 -5.6197 -0.12075 0
M  V30 663 H 66.1885 -1.89416 0.961014 0
M  V30 664 H 68.4515 -0.871862 0.372237 0
M  V30 665 H 68.1575 -3.42073 0.817254 0
M  V30 666 H 68.0315 -3.65892 -0.916692 0
M  V30 667 H 70.4185 -2.70349 -1.18301 0
M  V30 668 H 70.4995 -2.49323 0.571994 0
M  V30 669 H 70.1435 -5.00448 0.866867 0
M  V30 670 H 70.0735 -5.18786 -0.903802 0
M  V30 671 H 72.5645 -3.7709 -0.247286 0
M  V30 672 H 72.8775 -7.72707 0.119905 0
M  V30 673 H 71.2225 -6.94927 0.100885 0
M  V30 674 H 74.4135 -4.67572 -0.222187 0
M  V30 675 H 74.5865 -6.47977 -0.0549735 0
M  V30 676 N 67.9926 0.231505 -1.5589 0
M  V30 677 C 68.9226 1.29022 -1.94617 0
M  V30 678 C 69.9036 1.4941 -0.813067 0
M  V30 679 O 71.0886 1.6176 -1.07459 0
M  V30 680 C 68.2186 2.64199 -2.25424 0
M  V30 681 C 67.1726 2.58484 -3.41131 0
M  V30 682 C 66.4986 3.97599 -3.57518 0
M  V30 683 C 67.7986 2.1413 -4.76388 0
M  V30 684 H 69.4926 0.968563 -2.83301 0
M  V30 685 H 67.0386 0.464479 -1.36303 0
M  V30 686 H 68.9916 3.38413 -2.51107 0
M  V30 687 H 67.7156 2.98032 -1.33583 0
M  V30 688 H 66.3746 1.86727 -3.15481 0
M  V30 689 H 66.0226 4.28723 -2.6307 0
M  V30 690 H 65.7226 3.94659 -4.35337 0
M  V30 691 H 67.2466 4.7349 -3.85538 0
M  V30 692 H 68.6606 2.78083 -5.01341 0
M  V30 693 H 67.0576 2.2227 -5.57419 0
M  V30 694 H 68.1276 1.09331 -4.72414 0
M  V30 695 N 69.4707 1.49531 0.497807 0
M  V30 696 C 70.8817 1.52344 1.07927 0
M  V30 697 C 71.2327 0.311469 1.93712 0
M  V30 698 O 70.3577 -0.578405 2.08527 0
M  V30 699 C 70.9527 2.76062 1.96405 0
M  V30 700 C 69.5117 2.81643 2.49709 0
M  V30 701 C 68.6587 2.46299 1.27404 0
M  V30 702 H 71.6097 1.56182 0.281576 0
M  V30 703 H 71.6307 2.56405 2.81135 0
M  V30 704 H 71.1427 3.64254 1.33943 0
M  V30 705 H 69.2437 1.97739 3.15801 0
M  V30 706 H 69.3567 3.83891 2.86643 0
M  V30 707 H 67.7207 1.98148 1.60029 0
M  V30 708 H 68.5037 3.36769 0.66645 0
M  V30 709 N 70.9488 -0.749086 1.3866 0
M  V30 710 C 71.9118 -1.84457 1.36045 0
M  V30 711 C 72.9118 -1.58682 0.260122 0
M  V30 712 O 74.1018 -1.66343 0.517261 0
M  V30 713 C 71.2338 -3.22008 1.11911 0
M  V30 714 H 72.4268 -1.88182 2.33512 0
M  V30 715 H 69.9798 -0.951266 1.24019 0
M  V30 716 H 70.7148 -3.2395 0.150686 0
M  V30 717 H 70.4998 -3.42111 1.91579 0
M  V30 718 H 71.9898 -4.0208 1.12788 0
M  V30 719 N 72.4269 -1.23603 -0.977757 0
M  V30 720 C 73.8429 -0.999251 -1.24447 0
M  V30 721 C 74.0429 0.298053 -1.99283 0
M  V30 722 O 73.0989 1.01681 -2.31122 0
M  V30 723 C 74.4119 -2.20784 -2.04144 0
M  V30 724 C 75.9599 -2.25303 -2.17273 0
M  V30 725 C 76.4349 -3.45755 -3.00362 0
M  V30 726 N 77.9259 -3.4601 -3.07947 0
M  V30 727 C 78.6609 -4.35868 -3.72568 0
M  V30 728 N 78.1569 -5.35966 -4.38991 0
M  V30 729 N 79.9499 -4.23605 -3.6948 0
M  V30 730 H 72.1009 -2.06986 -0.476483 0
M  V30 731 H 74.3639 -0.907801 -0.273134 0
M  V30 732 H 74.0699 -3.14945 -1.56533 0
M  V30 733 H 73.9439 -2.22085 -3.04891 0
M  V30 734 H 76.3309 -1.3168 -2.64092 0
M  V30 735 H 76.4119 -2.28033 -1.15907 0
M  V30 736 H 76.0559 -4.39687 -2.5424 0
M  V30 737 H 75.9859 -3.40266 -4.01904 0
M  V30 738 H 78.4769 -2.73588 -2.60688 0
M  V30 739 H 78.7899 -6.00783 -4.86086 0
M  V30 740 H 77.1349 -5.39863 -4.37691 0
M  V30 741 H 80.3259 -3.44647 -3.16759 0
M  V30 742 H 80.4989 -4.93836 -4.1956 0
M  V30 743 N 73.905 1.17692 -1.04816 0
M  V30 744 C 74.868 2.19787 -0.650117 0
M  V30 745 C 75.868 1.58044 0.296427 0
M  V30 746 O 77.058 1.74012 0.0808097 0
M  V30 747 C 74.19 3.40869 0.0456987 0
M  V30 748 H 75.383 2.56516 -1.5537 0
M  V30 749 H 72.936 1.31708 -0.841594 0
M  V30 750 H 73.671 3.09681 0.962726 0
M  V30 751 H 73.456 3.86928 -0.634727 0
M  V30 752 H 74.946 4.16445 0.310432 0
M  V30 753 N 75.3831 0.828654 1.34056 0
M  V30 754 C 76.3461 0.259927 2.27721 0
M  V30 755 C 77.3461 -0.565478 1.50529 0
M  V30 756 O 78.5361 -0.38075 1.69988 0
M  V30 757 C 75.6681 -0.634944 3.34935 0
M  V30 758 H 76.8611 1.0863 2.79534 0
M  V30 759 H 74.4141 0.600951 1.44285 0
M  V30 760 H 75.1491 -1.48416 2.88346 0
M  V30 761 H 74.9341 -0.0444999 3.92075 0
M  V30 762 H 76.4241 -1.02648 4.04788 0
M  V30 763 N 76.8612 -1.46375 0.584142 0
M  V30 764 C 78.1072 -2.03248 0.0787103 0
M  V30 765 C 78.4622 -1.44737 -1.26763 0
M  V30 766 O 77.7552 -0.603625 -1.81843 0
M  V30 767 C 77.9492 -3.57373 -0.0439342 0
M  V30 768 C 77.7782 -4.30831 1.28897 0
M  V30 769 C 76.5482 -4.69683 1.8635 0
M  V30 770 C 78.7462 -4.64278 2.21248 0
M  V30 771 N 76.7282 -5.27898 3.13365 0
M  V30 772 C 78.0992 -5.23078 3.32851 0
M  V30 773 C 80.1542 -4.46209 2.20911 0
M  V30 774 C 78.8572 -5.65715 4.44251 0
M  V30 775 C 80.8832 -4.89864 3.31341 0
M  V30 776 C 80.2452 -5.48736 4.41665 0
M  V30 777 H 76.3442 -0.778714 0.0716144 0
M  V30 778 H 78.9282 -1.78509 0.777355 0
M  V30 779 H 77.0992 -3.81823 -0.711749 0
M  V30 780 H 78.8312 -4.00892 -0.553881 0
M  V30 781 H 75.5862 -4.52488 1.39826 0
M  V30 782 H 76.0102 -5.61525 3.78178 0
M  V30 783 H 80.6522 -4.00027 1.36888 0
M  V30 784 H 78.3702 -6.10875 5.29015 0
M  V30 785 H 81.9562 -4.77634 3.322 0
M  V30 786 H 80.8362 -5.81898 5.25704 0
M  V30 787 N 78.3393 -0.321999 -1.54275 0
M  V30 788 C 79.5863 0.281044 -2.0054 0
M  V30 789 C 79.9143 1.52265 -1.21019 0
M  V30 790 O 79.1693 1.93687 -0.279982 0
M  V30 791 C 79.4683 0.661769 -3.5122 0
M  V30 792 C 79.1343 -0.480482 -4.48333 0
M  V30 793 C 77.7963 -0.794005 -4.74604 0
M  V30 794 C 80.1483 -1.24783 -5.06042 0
M  V30 795 C 77.4763 -1.87763 -5.55844 0
M  V30 796 C 79.8283 -2.32153 -5.88462 0
M  V30 797 C 78.4923 -2.64089 -6.13036 0
M  V30 798 H 77.7623 0.102841 -0.733829 0
M  V30 799 H 80.4093 -0.445453 -1.86247 0
M  V30 800 H 78.7143 1.46867 -3.63232 0
M  V30 801 H 80.4113 1.13989 -3.84457 0
M  V30 802 H 77.0013 -0.226039 -4.28004 0
M  V30 803 H 81.1853 -1.01887 -4.85729 0
M  V30 804 H 76.4413 -2.12954 -5.73115 0
M  V30 805 H 80.6153 -2.92057 -6.32199 0
M  V30 806 H 78.2423 -3.48185 -6.75775 0
M  V30 807 N 79.8174 1.5752 -0.0501392 0
M  V30 808 C 80.7474 2.14502 0.922566 0
M  V30 809 C 81.7284 1.06642 1.3252 0
M  V30 810 O 82.9134 1.34577 1.4001 0
M  V30 811 C 80.0434 2.68916 2.19776 0
M  V30 812 C 78.9974 3.8175 1.93523 0
M  V30 813 C 78.3234 4.22677 3.27487 0
M  V30 814 C 79.6234 5.06932 1.25765 0
M  V30 815 H 81.3174 2.9603 0.447952 0
M  V30 816 H 78.8634 1.42401 0.214024 0
M  V30 817 H 80.8164 3.07419 2.88222 0
M  V30 818 H 79.5404 1.84578 2.69441 0
M  V30 819 H 78.1994 3.43718 1.27489 0
M  V30 820 H 77.8474 3.35291 3.74952 0
M  V30 821 H 77.5474 4.98725 3.1072 0
M  V30 822 H 79.0714 4.63779 3.97166 0
M  V30 823 H 80.4854 5.42888 1.84244 0
M  V30 824 H 78.8824 5.88116 1.19328 0
M  V30 825 H 79.9524 4.84337 0.233536 0
M  V30 826 N 81.2955 -0.223234 1.56011 0
M  V30 827 C 82.2275 -1.30006 1.88762 0
M  V30 828 C 83.2405 -1.43129 0.775746 0
M  V30 829 O 84.4295 -1.44057 1.05403 0
M  V30 830 C 81.5295 -2.67589 2.07965 0
M  V30 831 C 80.7025 -2.76434 3.38973 0
M  V30 832 C 79.7615 -3.95019 3.47629 0
M  V30 833 O 78.7875 -3.83436 4.20672 0
M  V30 834 N 79.9895 -5.09249 2.78649 0
M  V30 835 H 82.7545 -1.02238 2.81722 0
M  V30 836 H 80.3155 -0.413278 1.56536 0
M  V30 837 H 82.3075 -3.45297 2.11073 0
M  V30 838 H 80.8775 -2.87964 1.21638 0
M  V30 839 H 80.0975 -1.85216 3.47978 0
M  V30 840 H 81.3855 -2.79313 4.25278 0
M  V30 841 H 80.7835 -5.21556 2.19081 0
M  V30 842 H 79.3405 -5.85007 2.8742 0
M  V30 843 N 82.7736 -1.49793 -0.48987 0
M  V30 844 C 83.6836 -1.70036 -1.61632 0
M  V30 845 C 84.6996 -0.583102 -1.63939 0
M  V30 846 O 85.8756 -0.859169 -1.82154 0
M  V30 847 C 82.9406 -1.77277 -2.97949 0
M  V30 848 C 82.0016 -3.00918 -3.06181 0
M  V30 849 C 81.2346 -3.07804 -4.35996 0
M  V30 850 O 81.4576 -2.21982 -5.25433 0
M  V30 851 O 80.3916 -4.00369 -4.49431 0
M  V30 852 H 84.2176 -2.65486 -1.47482 0
M  V30 853 H 81.8026 -1.33666 -0.667362 0
M  V30 854 H 83.6846 -1.84329 -3.78947 0
M  V30 855 H 82.3596 -0.850076 -3.12339 0
M  V30 856 H 81.2666 -2.99377 -2.2433 0
M  V30 857 H 82.5996 -3.92704 -2.96723 0
M  V30 858 N 84.2517 0.741722 -1.39055 0
M  V30 859 C 85.1817 1.869 -1.39966 0
M  V30 860 C 86.1627 1.6804 -0.26392 0
M  V30 861 O 87.3477 1.88458 -0.468755 0
M  V30 862 C 84.4777 3.24572 -1.23574 0
M  V30 863 C 83.4317 3.58056 -2.34477 0
M  V30 864 C 82.7577 4.94593 -2.0318 0
M  V30 865 C 84.0577 3.61716 -3.76774 0
M  V30 866 H 85.7517 1.86395 -2.34302 0
M  V30 867 H 83.2977 0.895361 -1.1278 0
M  V30 868 H 85.2507 4.031 -1.22834 0
M  V30 869 H 83.9747 3.25587 -0.257045 0
M  V30 870 H 82.6337 2.81854 -2.34423 0
M  V30 871 H 82.2817 4.92181 -1.03765 0
M  V30 872 H 81.9817 5.17964 -2.77465 0
M  V30 873 H 83.5057 5.75486 -2.04079 0
M  V30 874 H 84.9197 4.30335 -3.78794 0
M  V30 875 H 83.3167 3.96603 -4.50362 0
M  V30 876 H 84.3867 2.61672 -4.08235 0
M  V30 877 N 85.7298 1.2412 0.971189 0
M  V30 878 C 87.1408 1.07236 1.52831 0
M  V30 879 C 87.4918 -0.357352 1.92918 0
M  V30 880 O 86.6168 -1.24528 1.76979 0
M  V30 881 C 87.2118 1.94043 2.77728 0
M  V30 882 C 85.7708 1.81394 3.29808 0
M  V30 883 C 84.9178 1.89189 2.02738 0
M  V30 884 H 87.8688 1.37648 0.789864 0
M  V30 885 H 87.8898 1.47066 3.5093 0
M  V30 886 H 87.4018 2.98093 2.4852 0
M  V30 887 H 85.5028 0.801634 3.63874 0
M  V30 888 H 85.6158 2.65294 3.98944 0
M  V30 889 H 83.9798 1.32877 2.17292 0
M  V30 890 H 84.7628 2.94812 1.759 0
M  V30 891 N 87.2079 -1.17134 1.05439 0
M  V30 892 C 88.4329 -1.91913 0.786396 0
M  V30 893 C 88.8579 -1.7643 -0.652234 0
M  V30 894 O 88.2159 -1.08372 -1.45345 0
M  V30 895 C 88.2639 -3.40921 1.17497 0
M  V30 896 O 87.3679 -4.11244 0.308589 0
M  V30 897 H 86.7089 -0.598215 0.288158 0
M  V30 898 H 89.2389 -1.48457 1.4079 0
M  V30 899 H 89.2489 -3.91668 1.14281 0
M  V30 900 H 87.9239 -3.5151 2.22292 0
M  V30 901 H 86.5009 -3.70731 0.40157 0
M  V30 902 N 88.686 -0.835752 -1.33615 0
M  V30 903 C 89.933 -0.429959 -1.97883 0
M  V30 904 C 90.261 1.01006 -1.66217 0
M  V30 905 O 89.516 1.72047 -0.93265 0
M  V30 906 C 89.815 -0.593925 -3.52431 0
M  V30 907 C 89.481 -2.00158 -4.04039 0
M  V30 908 C 88.143 -2.38662 -4.17844 0
M  V30 909 C 90.495 -2.92117 -4.31644 0
M  V30 910 C 87.823 -3.68435 -4.56588 0
M  V30 911 C 90.175 -4.21368 -4.71838 0
M  V30 912 C 88.839 -4.59833 -4.83849 0
M  V30 913 H 88.109 -0.157333 -0.724104 0
M  V30 914 H 90.756 -1.06217 -1.59343 0
M  V30 915 H 89.061 0.121619 -3.91611 0
M  V30 916 H 90.758 -0.260282 -4.00154 0
M  V30 917 H 87.348 -1.69252 -3.93766 0
M  V30 918 H 91.532 -2.63608 -4.20505 0
M  V30 919 H 86.788 -3.98046 -4.64079 0
M  V30 920 H 90.962 -4.92703 -4.92155 0
M  V30 921 H 88.589 -5.60438 -5.13627 0
M  V30 922 N 90.1641 1.46063 -0.591896 0
M  V30 923 C 91.1271 2.28854 0.125973 0
M  V30 924 C 92.1271 1.38903 0.810107 0
M  V30 925 O 93.3171 1.61186 0.66066 0
M  V30 926 C 90.4491 3.19526 1.1881 0
M  V30 927 H 91.6421 2.93802 -0.601717 0
M  V30 928 H 89.1951 1.52325 -0.350254 0
M  V30 929 H 89.9301 2.59345 1.94707 0
M  V30 930 H 89.7151 3.85766 0.701936 0
M  V30 931 H 91.2051 3.81817 1.69132 0
M  V30 932 N 91.6422 0.330177 1.54103 0
M  V30 933 C 92.8882 -0.270806 2.00984 0
M  V30 934 C 93.2212 -1.51265 1.21789 0
M  V30 935 O 92.4962 -1.92142 0.301927 0
M  V30 936 C 92.7792 -0.598339 3.55094 0
M  V30 937 C 92.6322 0.654674 4.4501 0
M  V30 938 C 93.9512 -1.41334 4.16789 0
M  V30 939 H 91.0702 -0.0969531 0.730595 0
M  V30 940 H 93.7122 0.448066 1.84641 0
M  V30 941 H 91.8622 -1.21078 3.69151 0
M  V30 942 H 93.5342 1.29285 4.42813 0
M  V30 943 H 91.7772 1.28224 4.14416 0
M  V30 944 H 92.4482 0.380944 5.50684 0
M  V30 945 H 94.9242 -0.895597 4.06347 0
M  V30 946 H 93.8002 -1.61127 5.24718 0
M  V30 947 H 94.0612 -2.41146 3.70541 0
M  V30 948 N 93.1203 -1.57491 0.0584922 0
M  V30 949 C 94.5313 -1.80526 -0.476138 0
M  V30 950 C 94.8823 -0.971334 -1.70469 0
M  V30 951 O 94.0073 -0.190012 -2.15564 0
M  V30 952 C 94.6023 -3.27424 -0.870587 0
M  V30 953 C 93.1613 -3.51351 -1.35015 0
M  V30 954 C 92.3083 -2.75343 -0.32887 0
M  V30 955 H 95.2593 -1.56133 0.284312 0
M  V30 956 H 95.2803 -3.38745 -1.73299 0
M  V30 957 H 94.7923 -3.88093 0.0237627 0
M  V30 958 H 92.8933 -2.95971 -2.26345 0
M  V30 959 H 93.0063 -4.60059 -1.33726 0
M  V30 960 H 91.3703 -2.417 -0.803321 0
M  V30 961 H 92.1533 -3.38743 0.557521 0
M  V30 962 N 94.5984 0.214957 -1.56127 0
M  V30 963 C 95.5614 1.24997 -1.92116 0
M  V30 964 C 96.5614 1.39467 -0.800344 0
M  V30 965 O 97.7514 1.37619 -1.06802 0
M  V30 966 C 94.8834 2.62271 -2.17777 0
M  V30 967 H 96.0764 0.942875 -2.84693 0
M  V30 968 H 93.6294 0.455654 -1.49511 0
M  V30 969 H 94.3644 2.98068 -1.27773 0
M  V30 970 H 94.1494 2.53143 -2.99434 0
M  V30 971 H 95.6394 3.36946 -2.46693 0
M  V30 972 N 96.0765 1.50051 0.48192 0
M  V30 973 C 97.3245 1.60181 1.23234 0
M  V30 974 C 97.6455 0.299176 1.92691 0
M  V30 975 O 96.9155 -0.682708 1.83619 0
M  V30 976 H 95.4955 0.590232 0.457859 0
M  V30 977 H 98.1575 1.86775 0.556881 0
M  V30 978 H 97.2535 2.40753 1.98607 0
M  V30 979 N 97.5546 -0.734337 1.39446 0
M  V30 980 C 98.8036 -1.48937 1.36017 0
M  V30 981 C 99.1166 -1.95557 -0.0409005 0
M  V30 982 O 100.323 -2.70779 -0.19778 0
M  V30 983 C 98.7786 -2.69125 2.38955 0
M  V30 984 C 98.3866 -2.29452 3.8478 0
M  V30 985 C 100.131 -3.46944 2.44603 0
M  V30 986 C 98.0376 -3.46366 4.79358 0
M  V30 987 H 96.9676 -0.559296 0.505672 0
M  V30 988 H 99.6186 -0.800983 1.65095 0
M  V30 989 H 98.0006 -3.40041 2.02948 0
M  V30 990 H 99.1746 -1.66077 4.29831 0
M  V30 991 H 97.4896 -1.64723 3.82433 0
M  V30 992 H 100.087 -4.33907 3.12456 0
M  V30 993 H 100.43 -3.89454 1.47076 0
M  V30 994 H 100.963 -2.83056 2.79507 0
M  V30 995 H 97.7016 -3.08905 5.78151 0
M  V30 996 H 97.2216 -4.08719 4.38986 0
M  V30 997 H 98.9006 -4.12691 4.98292 0
M  V30 998 N 99.0327 -1.24633 -0.964593 0
M  V30 999 C 99.9627 -1.06611 -2.07741 0
M  V30 1000 C 100.944 0.0218666 -1.70086 0
M  V30 1001 O 102.129 -0.145793 -1.93652 0
M  V30 1002 C 99.2587 -0.673444 -3.40708 0
M  V30 1003 C 98.2127 -1.71054 -3.92332 0
M  V30 1004 C 97.5387 -1.17285 -5.21678 0
M  V30 1005 C 98.8387 -3.10718 -4.19824 0
M  V30 1006 H 100.533 -1.99693 -2.23076 0
M  V30 1007 H 98.0787 -0.96152 -1.07195 0
M  V30 1008 H 100.032 -0.534345 -4.17998 0
M  V30 1009 H 98.7557 0.293073 -3.25282 0
M  V30 1010 H 97.4147 -1.83791 -3.17201 0
M  V30 1011 H 97.0627 -0.196847 -5.02615 0
M  V30 1012 H 96.7627 -1.86592 -5.57187 0
M  V30 1013 H 98.2867 -1.04593 -6.01575 0
M  V30 1014 H 99.7007 -3.01192 -4.87808 0
M  V30 1015 H 98.0977 -3.77406 -4.66567 0
M  V30 1016 H 99.1677 -3.58524 -3.26479 0
M  V30 1017 N 100.511 1.16574 -1.06058 0
M  V30 1018 C 101.474 2.19085 -0.673392 0
M  V30 1019 C 102.474 1.5835 0.279648 0
M  V30 1020 O 103.664 1.74088 0.0623488 0
M  V30 1021 C 100.796 3.40899 0.00954234 0
M  V30 1022 H 101.989 2.54853 -1.58081 0
M  V30 1023 H 99.5418 1.30808 -0.855516 0
M  V30 1024 H 100.277 3.10684 0.929826 0
M  V30 1025 H 100.062 3.86233 -0.67573 0
M  V30 1026 H 101.552 4.1675 0.266245 0
M  V30 1027 N 101.989 0.842826 1.3317 0
M  V30 1028 C 103.405 0.531128 1.50503 0
M  V30 1029 C 103.605 -0.940734 1.78192 0
M  V30 1030 O 102.661 -1.72436 1.84451 0
M  V30 1031 C 103.974 1.40789 2.65705 0
M  V30 1032 C 105.522 1.40708 2.79589 0
M  V30 1033 C 105.997 2.26878 3.97857 0
M  V30 1034 N 107.488 2.24609 4.05099 0
M  V30 1035 C 108.223 2.88019 4.95815 0
M  V30 1036 N 107.719 3.60496 5.9162 0
M  V30 1037 N 109.512 2.77469 4.88843 0
M  V30 1038 H 101.663 1.79557 1.1346 0
M  V30 1039 H 103.926 0.766267 0.558156 0
M  V30 1040 H 103.632 2.454 2.51936 0
M  V30 1041 H 103.506 1.08677 3.61205 0
M  V30 1042 H 105.893 0.368668 2.92788 0
M  V30 1043 H 105.974 1.76829 1.84838 0
M  V30 1044 H 105.618 3.3078 3.85418 0
M  V30 1045 H 105.548 1.88096 4.91861 0
M  V30 1046 H 108.039 1.71906 3.36536 0
M  V30 1047 H 108.352 4.06076 6.57512 0
M  V30 1048 H 106.697 3.64604 5.91683 0
M  V30 1049 H 109.888 2.20406 4.12963 0
M  V30 1050 H 110.061 3.2717 5.59342 0
M  V30 1051 N 103.467 -1.45747 0.599634 0
M  V30 1052 C 104.399 -2.28628 -0.161879 0
M  V30 1053 C 105.412 -1.39494 -0.839367 0
M  V30 1054 O 106.601 -1.63941 -0.706089 0
M  V30 1055 C 103.701 -3.15014 -1.24976 0
M  V30 1056 C 102.874 -4.32378 -0.660935 0
M  V30 1057 C 101.933 -5.00033 -1.63869 0
M  V30 1058 O 100.959 -5.57085 -1.1681 0
M  V30 1059 N 102.161 -4.98589 -2.97303 0
M  V30 1060 H 104.926 -2.94624 0.549265 0
M  V30 1061 H 102.487 -1.55847 0.438565 0
M  V30 1062 H 104.479 -3.5714 -1.9035 0
M  V30 1063 H 103.049 -2.5098 -1.86354 0
M  V30 1064 H 102.269 -3.9383 0.170688 0
M  V30 1065 H 103.557 -5.08197 -0.247619 0
M  V30 1066 H 102.955 -4.53514 -3.38145 0
M  V30 1067 H 101.512 -5.44603 -3.58121 0
M  V30 1068 N 104.945 -0.338344 -1.53925 0
M  V30 1069 C 106.356 0.146651 -1.86123 0
M  V30 1070 C 106.707 1.5042 -1.2597 0
M  V30 1071 O 105.832 2.08723 -0.571294 0
M  V30 1072 C 106.427 0.272879 -3.37699 0
M  V30 1073 C 104.986 0.702103 -3.69794 0
M  V30 1074 C 104.133 -0.167304 -2.76795 0
M  V30 1075 H 107.084 -0.558123 -1.48562 0
M  V30 1076 H 107.105 1.10128 -3.64214 0
M  V30 1077 H 106.617 -0.715307 -3.81451 0
M  V30 1078 H 104.718 1.6995 -3.31584 0
M  V30 1079 H 104.831 0.495604 -4.7653 0
M  V30 1080 H 103.195 0.359527 -2.5215 0
M  V30 1081 H 103.978 -1.15253 -3.23375 0
M  V30 1082 N 106.423 1.57458 -0.0668435 0
M  V30 1083 C 107.353 2.15468 0.899764 0
M  V30 1084 C 108.334 1.08042 1.31381 0
M  V30 1085 O 109.519 1.36054 1.38574 0
M  V30 1086 C 106.649 2.71232 2.16911 0
M  V30 1087 C 105.603 3.83781 1.89463 0
M  V30 1088 C 104.929 4.26127 3.22986 0
M  V30 1089 C 106.229 5.08238 1.20381 0
M  V30 1090 H 107.923 2.96488 0.416529 0
M  V30 1091 H 105.469 1.4262 0.198908 0
M  V30 1092 H 107.422 3.10458 2.84945 0
M  V30 1093 H 106.146 1.87426 2.67468 0
M  V30 1094 H 104.805 3.45051 1.23836 0
M  V30 1095 H 104.453 3.39249 3.71374 0
M  V30 1096 H 104.153 5.01993 3.05413 0
M  V30 1097 H 105.677 4.67966 3.92225 0
M  V30 1098 H 107.091 5.44811 1.78475 0
M  V30 1099 H 105.488 5.89349 1.13083 0
M  V30 1100 H 106.558 4.84558 0.182153 0
M  V30 1101 N 107.901 -0.206675 1.56239 0
M  V30 1102 C 109.126 -0.949474 1.8439 0
M  V30 1103 C 109.551 -1.76549 0.649016 0
M  V30 1104 O 108.909 -1.76782 -0.402231 0
M  V30 1105 C 108.957 -1.83078 3.10668 0
M  V30 1106 O 108.061 -2.9281 2.90407 0
M  V30 1107 H 107.402 -0.268033 0.607499 0
M  V30 1108 H 109.932 -0.215488 2.03462 0
M  V30 1109 H 109.942 -2.2377 3.41161 0
M  V30 1110 H 108.617 -1.23112 3.97261 0
M  V30 1111 H 107.194 -2.55956 2.71184 0
M  V30 1112 N 109.379 -1.50304 -0.473955 0
M  V30 1113 C 110.309 -1.71886 -1.58042 0
M  V30 1114 C 111.29 -0.567799 -1.60344 0
M  V30 1115 O 112.475 -0.806623 -1.76656 0
M  V30 1116 C 109.605 -1.81036 -2.96384 0
M  V30 1117 C 108.559 -2.962 -3.08949 0
M  V30 1118 C 107.885 -2.9049 -4.48909 0
M  V30 1119 C 109.185 -4.36752 -2.86434 0
M  V30 1120 H 110.879 -2.64527 -1.40234 0
M  V30 1121 H 108.425 -1.27295 -0.673201 0
M  V30 1122 H 110.378 -1.94719 -3.73714 0
M  V30 1123 H 109.102 -0.850147 -3.15341 0
M  V30 1124 H 107.761 -2.82164 -2.3405 0
M  V30 1125 H 107.409 -1.92321 -4.64781 0
M  V30 1126 H 107.109 -3.67802 -4.58253 0
M  V30 1127 H 108.633 -3.06218 -5.28264 0
M  V30 1128 H 110.047 -4.5133 -3.53517 0
M  V30 1129 H 108.444 -5.15493 -3.07225 0
M  V30 1130 H 109.514 -4.49321 -1.82316 0
M  V30 1131 N 110.857 0.726932 -1.39834 0
M  V30 1132 C 112.104 1.48664 -1.37496 0
M  V30 1133 C 112.432 1.94482 0.0264678 0
M  V30 1134 O 111.687 1.67692 1.00886 0
M  V30 1135 C 111.986 2.73495 -2.30077 0
M  V30 1136 C 111.652 2.46502 -3.77555 0
M  V30 1137 C 110.314 2.3885 -4.17737 0
M  V30 1138 C 112.666 2.23604 -4.70798 0
M  V30 1139 C 109.994 2.06352 -5.49214 0
M  V30 1140 C 112.346 1.92622 -6.02561 0
M  V30 1141 C 111.01 1.83444 -6.41798 0
M  V30 1142 H 110.28 0.544001 -0.503135 0
M  V30 1143 H 112.927 0.833657 -1.72402 0
M  V30 1144 H 111.232 3.43575 -1.88317 0
M  V30 1145 H 112.929 3.31549 -2.25558 0
M  V30 1146 H 109.519 2.5334 -3.45712 0
M  V30 1147 H 113.703 2.28479 -4.40581 0
M  V30 1148 H 108.959 1.97776 -5.78528 0
M  V30 1149 H 113.133 1.73914 -6.74334 0
M  V30 1150 H 110.76 1.58029 -7.43593 0
M  V30 1151 N 112.336 1.25143 0.95797 0
M  V30 1152 C 113.584 1.09476 1.69881 0
M  V30 1153 C 113.905 -0.365502 1.91544 0
M  V30 1154 O 113.175 -1.25985 1.50015 0
M  V30 1155 H 111.755 0.402128 0.629525 0
M  V30 1156 H 114.417 1.57214 1.15194 0
M  V30 1157 H 113.513 1.60046 2.6794 0
M  V30 1158 N 113.814 -1.1601 1.06675 0
M  V30 1159 C 115.225 -1.68235 0.809565 0
M  V30 1160 C 115.576 -1.8454 -0.666303 0
M  V30 1161 O 114.701 -1.54374 -1.5165 0
M  V30 1162 C 115.296 -3.05585 1.46299 0
M  V30 1163 C 113.855 -3.54915 1.25349 0
M  V30 1164 C 113.002 -2.30804 1.53703 0
M  V30 1165 H 115.953 -1.00318 1.22971 0
M  V30 1166 H 115.974 -3.70174 0.880431 0
M  V30 1167 H 115.486 -2.93686 2.53713 0
M  V30 1168 H 113.587 -3.72067 0.199261 0
M  V30 1169 H 113.7 -4.36774 1.9689 0
M  V30 1170 H 112.064 -2.36007 0.957739 0
M  V30 1171 H 112.847 -2.21499 2.62284 0
M  V30 1172 N 115.292 -0.849877 -1.32721 0
M  V30 1173 C 116.703 -0.506188 -1.79707 0
M  V30 1174 C 117.054 0.975627 -1.70223 0
M  V30 1175 O 116.179 1.76078 -1.25799 0
M  V30 1176 C 116.774 -0.912044 -3.26293 0
M  V30 1177 C 115.333 -0.620326 -3.71253 0
M  V30 1178 C 114.48 -1.11439 -2.53922 0
M  V30 1179 H 117.431 -1.03754 -1.20087 0
M  V30 1180 H 117.452 -0.226493 -3.79825 0
M  V30 1181 H 116.964 -1.99057 -3.33164 0
M  V30 1182 H 115.065 0.447674 -3.69901 0
M  V30 1183 H 115.178 -1.18327 -4.64258 0
M  V30 1184 H 113.542 -0.534834 -2.49021 0
M  V30 1185 H 114.325 -2.19992 -2.6355 0
M  V30 1186 N 116.77 1.45427 -0.607355 0
M  V30 1187 C 118.018 2.01841 -0.102253 0
M  V30 1188 C 118.339 1.47832 1.27164 0
M  V30 1189 O 117.609 0.672497 1.83995 0
M  V30 1190 H 116.189 0.746188 -0.0348101 0
M  V30 1191 H 118.851 1.78229 -0.7887 0
M  V30 1192 H 117.947 3.12057 -0.0518585 0
M  V30 1193 N 118.248 0.346503 1.53744 0
M  V30 1194 C 119.476 -0.25041 2.05379 0
M  V30 1195 C 119.891 -1.43979 1.22129 0
M  V30 1196 O 119.248 -1.80677 0.257321 0
M  V30 1197 C 119.299 -0.662575 3.55376 0
M  V30 1198 O 119.02 0.479515 4.35468 0
M  V30 1199 C 120.521 -1.31989 4.23195 0
M  V30 1200 H 117.741 -0.0478198 0.669294 0
M  V30 1201 H 120.285 0.499346 1.9831 0
M  V30 1202 H 118.44 -1.36227 3.62658 0
M  V30 1203 H 118.854 0.15037 5.24284 0
M  V30 1204 H 120.328 -1.55902 5.29527 0
M  V30 1205 H 120.805 -2.27436 3.75725 0
M  V30 1206 H 121.411 -0.662154 4.20114 0
M  V30 1207 N 119.726 -1.57421 0.075193 0
M  V30 1208 C 120.972 -1.93905 -0.594025 0
M  V30 1209 C 121.305 -0.955701 -1.69056 0
M  V30 1210 O 120.58 0.0145373 -1.94495 0
M  V30 1211 C 120.863 -3.40638 -1.1678 0
M  V30 1212 C 120.716 -4.49733 -0.0776792 0
M  V30 1213 C 122.035 -3.88259 -2.07228 0
M  V30 1214 H 119.154 -0.705105 -0.214466 0
M  V30 1215 H 121.796 -1.8947 0.141854 0
M  V30 1216 H 119.946 -3.44549 -1.79494 0
M  V30 1217 H 121.618 -4.57942 0.555573 0
M  V30 1218 H 119.861 -4.29751 0.591286 0
M  V30 1219 H 120.532 -5.49549 -0.519603 0
M  V30 1220 H 123.008 -3.86376 -1.54445 0
M  V30 1221 H 121.884 -4.91533 -2.44308 0
M  V30 1222 H 122.145 -3.26396 -2.98191 0
M  V30 1223 N 121.204 0.198386 -1.56346 0
M  V30 1224 C 122.134 1.24865 -1.9731 0
M  V30 1225 C 123.115 1.47651 -0.844576 0
M  V30 1226 O 124.3 1.59444 -1.10866 0
M  V30 1227 C 121.43 2.59358 -2.30977 0
M  V30 1228 C 120.384 2.5119 -3.46537 0
M  V30 1229 C 119.71 3.89926 -3.65871 0
M  V30 1230 C 121.01 2.03977 -4.80823 0
M  V30 1231 H 122.704 0.908252 -2.85291 0
M  V30 1232 H 120.25 0.435462 -1.37258 0
M  V30 1233 H 122.203 3.33011 -2.58228 0
M  V30 1234 H 120.927 2.95132 -1.39874 0
M  V30 1235 H 119.586 1.79993 -3.19371 0
M  V30 1236 H 119.234 4.23046 -2.72105 0
M  V30 1237 H 118.934 3.85336 -4.4361 0
M  V30 1238 H 120.458 4.65205 -3.95495 0
M  V30 1239 H 121.872 2.67386 -5.07127 0
M  V30 1240 H 120.269 2.10397 -5.62008 0
M  V30 1241 H 121.339 0.992861 -4.74626 0
M  V30 1242 N 122.682 1.50554 0.465978 0
M  V30 1243 C 123.612 1.72722 1.57128 0
M  V30 1244 C 124.593 0.576294 1.6004 0
M  V30 1245 O 125.778 0.81598 1.76225 0
M  V30 1246 C 122.908 1.82605 2.95419 0
M  V30 1247 C 121.862 2.97835 3.07373 0
M  V30 1248 C 121.188 2.92867 4.47363 0
M  V30 1249 C 122.488 4.38265 2.84114 0
M  V30 1250 H 124.182 2.65267 1.38829 0
M  V30 1251 H 121.728 1.2765 0.666441 0
M  V30 1252 H 123.681 1.96698 3.72677 0
M  V30 1253 H 122.405 0.866858 3.14886 0
M  V30 1254 H 121.064 2.83401 2.3255 0
M  V30 1255 H 120.712 1.94783 4.63755 0
M  V30 1256 H 120.412 3.70227 4.56296 0
M  V30 1257 H 121.936 3.09015 5.26633 0
M  V30 1258 H 123.35 4.53198 3.51118 0
M  V30 1259 H 121.747 5.17115 3.04487 0
M  V30 1260 H 122.817 4.50281 1.7993 0
M  V30 1261 N 124.16 -0.719506 1.40217 0
M  V30 1262 C 125.408 -1.47641 1.3801 0
M  V30 1263 C 125.729 -1.94992 -0.018145 0
M  V30 1264 O 124.999 -1.70073 -0.972207 0
M  V30 1265 H 123.579 -0.547744 0.507923 0
M  V30 1266 H 126.241 -0.853187 1.75233 0
M  V30 1267 H 125.337 -2.35112 2.05253 0
M  V30 1268 N 125.638 -1.25649 -0.95132 0
M  V30 1269 C 126.568 -1.08808 -2.06599 0
M  V30 1270 C 127.549 0.00382547 -1.701 0
M  V30 1271 O 128.734 -0.166325 -1.93486 0
M  V30 1272 C 125.864 -0.709542 -3.39975 0
M  V30 1273 C 124.818 -1.75206 -3.90496 0
M  V30 1274 C 124.144 -1.22811 -5.20405 0
M  V30 1275 C 125.444 -3.15153 -4.16504 0
M  V30 1276 H 127.138 -2.02048 -2.20946 0
M  V30 1277 H 124.684 -0.972835 -1.06169 0
M  V30 1278 H 126.637 -0.578649 -4.17408 0
M  V30 1279 H 125.361 0.258556 -3.25575 0
M  V30 1280 H 124.02 -1.87145 -3.15234 0
M  V30 1281 H 123.668 -0.250145 -5.02378 0
M  V30 1282 H 123.368 -1.92492 -5.55176 0
M  V30 1283 H 124.892 -1.10968 -6.00432 0
M  V30 1284 H 126.306 -3.06349 -4.84586 0
M  V30 1285 H 124.703 -3.82333 -4.62538 0
M  V30 1286 H 125.773 -3.61966 -3.22658 0
M  V30 1287 N 127.117 1.15442 -1.07289 0
M  V30 1288 C 128.364 1.86213 -0.795668 0
M  V30 1289 C 128.692 1.82291 0.678238 0
M  V30 1290 O 127.947 1.24057 1.51355 0
M  V30 1291 C 128.246 3.3489 -1.24834 0
M  V30 1292 C 127.912 3.59007 -2.72809 0
M  V30 1293 C 126.574 3.65298 -3.13227 0
M  V30 1294 C 128.926 3.68762 -3.68326 0
M  V30 1295 C 126.254 3.78854 -4.4798 0
M  V30 1296 C 128.606 3.83842 -5.0284 0
M  V30 1297 C 127.27 3.88378 -5.4288 0
M  V30 1298 H 126.54 0.681403 -0.291155 0
M  V30 1299 H 129.187 1.36435 -1.34379 0
M  V30 1300 H 127.492 3.8687 -0.619595 0
M  V30 1301 H 129.189 3.88052 -1.01076 0
M  V30 1302 H 125.779 3.5475 -2.40521 0
M  V30 1303 H 129.963 3.63202 -3.38227 0
M  V30 1304 H 125.219 3.80623 -4.78472 0
M  V30 1305 H 129.393 3.90332 -5.76727 0
M  V30 1306 H 127.02 3.98635 -6.47298 0
M  V30 1307 N 128.595 0.856903 1.32268 0
M  V30 1308 C 129.835 0.467705 1.98977 0
M  V30 1309 C 130.199 -0.959231 1.66321 0
M  V30 1310 O 131.4 -1.4531 2.26138 0
M  V30 1311 C 129.671 0.70256 3.50427 0
M  V30 1312 S 131.23 0.411269 4.36868 0
M  V30 1313 H 128.048 0.175121 0.689096 0
M  V30 1314 H 130.65 1.1101 1.60925 0
M  V30 1315 H 129.354 1.74012 3.71683 0
M  V30 1316 H 128.885 0.0466707 3.93372 0
M  V30 1317 H 130.9 -0.761799 4.90317 0
M  V30 1318 N 130.073 -1.45103 0.615059 0
M  V30 1319 C 131.319 -2.02483 0.113347 0
M  V30 1320 C 131.652 -1.48146 -1.25564 0
M  V30 1321 O 130.927 -0.659104 -1.82992 0
M  V30 1322 C 131.21 -3.60005 0.0825278 0
M  V30 1323 C 131.063 -4.2466 1.48271 0
M  V30 1324 C 132.382 -4.35972 -0.601401 0
M  V30 1325 H 129.501 -0.735764 0.0426632 0
M  V30 1326 H 132.143 -1.72868 0.788461 0
M  V30 1327 H 130.293 -3.85367 -0.492378 0
M  V30 1328 H 131.965 -4.10458 2.10527 0
M  V30 1329 H 130.208 -3.82772 2.04127 0
M  V30 1330 H 130.879 -5.336 1.41332 0
M  V30 1331 H 133.355 -4.15947 -0.112666 0
M  V30 1332 H 132.231 -5.45697 -0.592097 0
M  V30 1333 H 132.492 -4.09391 -1.66887 0
M  V30 1334 N 131.551 -0.354651 -1.53558 0
M  V30 1335 C 132.501 0.513179 -2.2215 0
M  V30 1336 C 133.485 1.05734 -1.21281 0
M  V30 1337 O 134.677 0.989202 -1.46778 0
M  V30 1338 C 131.806 1.65798 -3.00609 0
M  V30 1339 C 130.892 1.12722 -4.08845 0
M  V30 1340 N 131.283 0.318563 -5.04796 0
M  V30 1341 C 129.581 1.40307 -4.23356 0
M  V30 1342 C 130.282 0.0292224 -5.81693 0
M  V30 1343 N 129.258 0.623891 -5.40008 0
M  V30 1344 H 133.06 -0.111586 -2.93688 0
M  V30 1345 H 130.574 -0.162091 -1.61589 0
M  V30 1346 H 132.571 2.29176 -3.48258 0
M  V30 1347 H 131.231 2.28591 -2.306 0
M  V30 1348 H 132.242 -0.0413091 -5.17884 0
M  V30 1349 H 128.919 2.03458 -3.6457 0
M  V30 1350 H 130.309 -0.623808 -6.68998 0
M  V30 1351 N 133.029 1.57378 -0.0835403 0
M  V30 1352 C 134.259 1.97975 0.590713 0
M  V30 1353 C 134.667 0.961083 1.62972 0
M  V30 1354 O 134.01 -0.0590879 1.83605 0
M  V30 1355 C 134.072 3.34915 1.3066 0
M  V30 1356 C 133.736 4.55069 0.419698 0
M  V30 1357 C 134.733 5.18868 -0.32749 0
M  V30 1358 C 132.418 5.0114 0.341137 0
M  V30 1359 C 134.412 6.27098 -1.14134 0
M  V30 1360 C 132.099 6.0924 -0.476374 0
M  V30 1361 C 133.097 6.72083 -1.21627 0
M  V30 1362 O 132.785 7.781 -2.02028 0
M  V30 1363 H 132.517 0.655818 0.163947 0
M  V30 1364 H 135.071 2.04807 -0.156021 0
M  V30 1365 H 133.301 3.24733 2.09966 0
M  V30 1366 H 134.99 3.60037 1.87424 0
M  V30 1367 H 135.756 4.84211 -0.276459 0
M  V30 1368 H 131.635 4.51996 0.90668 0
M  V30 1369 H 135.179 6.7608 -1.71935 0
M  V30 1370 H 131.076 6.43329 -0.528927 0
M  V30 1371 H 131.844 7.95034 -1.94586 0
M  V30 1372 N 134.507 -0.190092 1.56449 0
M  V30 1373 C 135.754 -0.909705 1.80916 0
M  V30 1374 C 136.082 -1.83047 0.657583 0
M  V30 1375 O 135.337 -1.92428 -0.356356 0
M  V30 1376 C 135.636 -1.75382 3.1141 0
M  V30 1377 C 135.302 -0.983606 4.40041 0
M  V30 1378 C 133.964 -0.770967 4.74984 0
M  V30 1379 C 136.316 -0.442024 5.19322 0
M  V30 1380 C 133.644 -0.0053448 5.867 0
M  V30 1381 C 135.996 0.310412 6.31838 0
M  V30 1382 C 134.66 0.534023 6.6536 0
M  V30 1383 H 133.93 -0.332885 0.662019 0
M  V30 1384 H 136.577 -0.175762 1.90692 0
M  V30 1385 H 134.882 -2.55659 2.96893 0
M  V30 1386 H 136.579 -2.31331 3.27547 0
M  V30 1387 H 133.169 -1.15936 4.12622 0
M  V30 1388 H 137.353 -0.593693 4.92736 0
M  V30 1389 H 132.609 0.177825 6.11141 0
M  V30 1390 H 136.783 0.737419 6.92485 0
M  V30 1391 H 134.41 1.12918 7.51767 0
M  V30 1392 N 135.985 -1.50799 -0.457987 0
M  V30 1393 C 136.935 -1.67003 -1.55222 0
M  V30 1394 C 137.919 -0.52434 -1.52117 0
M  V30 1395 O 139.111 -0.779345 -1.58919 0
M  V30 1396 C 136.24 -1.77956 -2.93576 0
M  V30 1397 C 135.326 -2.98243 -3.01516 0
M  V30 1398 N 135.717 -4.21732 -2.79241 0
M  V30 1399 C 134.015 -2.97072 -3.32662 0
M  V30 1400 C 134.716 -5.02817 -2.92489 0
M  V30 1401 N 133.692 -4.37038 -3.23262 0
M  V30 1402 H 137.494 -2.60163 -1.36721 0
M  V30 1403 H 135.008 -1.48163 -0.664952 0
M  V30 1404 H 137.005 -1.87671 -3.72271 0
M  V30 1405 H 135.665 -0.859634 -3.13114 0
M  V30 1406 H 136.676 -4.51016 -2.54567 0
M  V30 1407 H 133.353 -2.14631 -3.58106 0
M  V30 1408 H 134.743 -6.11054 -2.79396 0
M  V30 1409 N 137.463 0.71206 -1.40597 0
M  V30 1410 C 138.879 1.02058 -1.22704 0
M  V30 1411 C 139.079 2.01228 -0.104729 0
M  V30 1412 O 138.135 2.4674 0.53624 0
M  V30 1413 C 139.448 1.56094 -2.57012 0
M  V30 1414 C 140.996 1.6806 -2.64054 0
M  V30 1415 C 141.471 2.25501 -3.9864 0
M  V30 1416 N 142.962 2.32882 -4.004 0
M  V30 1417 C 143.697 2.78317 -5.01325 0
M  V30 1418 N 143.193 3.23478 -6.12645 0
M  V30 1419 N 144.986 2.77733 -4.88693 0
M  V30 1420 H 137.137 0.0547896 -2.12329 0
M  V30 1421 H 139.4 0.0869027 -0.944008 0
M  V30 1422 H 139.106 0.906865 -3.39807 0
M  V30 1423 H 138.98 2.54564 -2.78347 0
M  V30 1424 H 141.367 2.32583 -1.81629 0
M  V30 1425 H 141.448 0.681802 -2.46546 0
M  V30 1426 H 141.092 1.61598 -4.81506 0
M  V30 1427 H 141.022 3.26102 -4.13479 0
M  V30 1428 H 143.513 2.00991 -3.20017 0
M  V30 1429 H 143.826 3.56725 -6.85542 0
M  V30 1430 H 142.171 3.21429 -6.16205 0
M  V30 1431 H 145.362 2.4179 -4.00818 0
M  V30 1432 H 145.535 3.12826 -5.67489 0
M  V30 1433 N 138.941 1.26152 0.944643 0
M  V30 1434 C 140.169 1.14259 1.72489 0
M  V30 1435 C 140.584 -0.302555 1.8636 0
M  V30 1436 O 139.941 -1.20741 1.36849 0
M  V30 1437 C 139.992 1.80266 3.13347 0
M  V30 1438 O 139.713 3.19133 3.00143 0
M  V30 1439 C 141.214 1.74283 4.07603 0
M  V30 1440 H 138.434 0.398051 0.540181 0
M  V30 1441 H 140.978 1.66706 1.18446 0
M  V30 1442 H 139.133 1.31766 3.64303 0
M  V30 1443 H 139.547 3.51744 3.89071 0
M  V30 1444 H 141.021 2.25111 5.04013 0
M  V30 1445 H 141.498 0.708631 4.33446 0
M  V30 1446 H 142.104 2.22319 3.62567 0
M  V30 1447 N 140.419 -1.14872 1.07899 0
M  V30 1448 C 141.666 -1.85789 0.805532 0
M  V30 1449 C 141.994 -1.82649 -0.668561 0
M  V30 1450 O 141.249 -1.24858 -1.50695 0
M  V30 1451 C 141.548 -3.34223 1.26609 0
M  V30 1452 C 141.214 -3.57555 2.74709 0
M  V30 1453 C 139.876 -3.63631 3.1516 0
M  V30 1454 C 142.228 -3.66803 3.70277 0
M  V30 1455 C 139.556 -3.76473 4.49983 0
M  V30 1456 C 141.908 -3.8117 5.04869 0
M  V30 1457 C 140.572 -3.85494 5.44932 0
M  V30 1458 H 139.842 -0.679849 0.294765 0
M  V30 1459 H 142.489 -1.3572 1.35101 0
M  V30 1460 H 140.794 -3.86536 0.640103 0
M  V30 1461 H 142.491 -3.87511 1.03132 0
M  V30 1462 H 139.081 -3.5347 2.42398 0
M  V30 1463 H 143.265 -3.61404 3.40149 0
M  V30 1464 H 138.521 -3.7808 4.80484 0
M  V30 1465 H 142.695 -3.87268 5.78789 0
M  V30 1466 H 140.322 -3.95197 6.49403 0
M  V30 1467 N 141.898 -0.863906 -1.31812 0
M  V30 1468 C 143.144 -0.472535 -1.97218 0
M  V30 1469 C 143.477 0.971394 -1.68159 0
M  V30 1470 O 142.752 1.68309 -0.974798 0
M  V30 1471 C 143.035 -0.723054 -3.52766 0
M  V30 1472 C 142.888 -2.21608 -3.91421 0
M  V30 1473 C 144.207 -0.185522 -4.39709 0
M  V30 1474 H 141.326 -0.173158 -0.71637 0
M  V30 1475 H 143.968 -1.08403 -1.56041 0
M  V30 1476 H 142.118 -0.202577 -3.87971 0
M  V30 1477 H 143.79 -2.80334 -3.66347 0
M  V30 1478 H 142.033 -2.691 -3.40246 0
M  V30 1479 H 142.704 -2.34203 -4.99853 0
M  V30 1480 H 145.18 -0.630726 -4.11292 0
M  V30 1481 H 144.056 -0.390306 -5.47511 0
M  V30 1482 H 144.317 0.912229 -4.32586 0
M  V30 1483 N 143.376 1.44774 -0.622745 0
M  V30 1484 C 144.606 2.06187 -0.130532 0
M  V30 1485 C 145.014 1.46547 1.19669 0
M  V30 1486 O 144.357 0.579636 1.74316 0
M  V30 1487 C 144.419 3.59437 0.0674983 0
M  V30 1488 C 144.083 4.41496 -1.18026 0
M  V30 1489 C 145.08 4.75512 -2.102 0
M  V30 1490 C 142.765 4.82007 -1.41333 0
M  V30 1491 C 144.759 5.48912 -3.23998 0
M  V30 1492 C 142.446 5.55157 -2.55429 0
M  V30 1493 C 143.444 5.88528 -3.46589 0
M  V30 1494 O 143.132 6.60191 -4.58697 0
M  V30 1495 H 142.864 0.672045 -0.0730162 0
M  V30 1496 H 145.418 1.86768 -0.854802 0
M  V30 1497 H 143.648 3.77314 0.846825 0
M  V30 1498 H 145.337 4.02642 0.513209 0
M  V30 1499 H 146.103 4.4476 -1.93425 0
M  V30 1500 H 141.982 4.55457 -0.712709 0
M  V30 1501 H 145.526 5.74877 -3.95174 0
M  V30 1502 H 141.423 5.85324 -2.72151 0
M  V30 1503 H 142.191 6.78654 -4.57571 0
M  V30 1504 N 144.854 0.36279 1.53368 0
M  V30 1505 C 146.079 -0.231226 2.06107 0
M  V30 1506 C 146.504 -1.419 1.23474 0
M  V30 1507 O 145.862 -1.79524 0.253128 0
M  V30 1508 C 145.91 -0.605523 3.5548 0
M  V30 1509 O 145.014 -1.70312 3.7559 0
M  V30 1510 H 144.355 -0.034327 0.663112 0
M  V30 1511 H 146.885 0.522584 1.97814 0
M  V30 1512 H 146.895 -0.877314 3.98456 0
M  V30 1513 H 145.57 0.263004 4.15068 0
M  V30 1514 H 144.147 -1.4271 3.44512 0
M  V30 1515 N 146.332 -1.57332 0.0918853 0
M  V30 1516 C 147.262 -2.16872 -0.865371 0
M  V30 1517 C 148.243 -1.10118 -1.29646 0
M  V30 1518 O 149.428 -1.38242 -1.36392 0
M  V30 1519 C 146.558 -2.74649 -2.12569 0
M  V30 1520 C 145.512 -3.86747 -1.83333 0
M  V30 1521 C 144.838 -4.31212 -3.16166 0
M  V30 1522 C 146.138 -5.10089 -1.1228 0
M  V30 1523 H 147.832 -2.97114 -0.369307 0
M  V30 1524 H 145.378 -1.42918 -0.176194 0
M  V30 1525 H 147.331 -3.14952 -2.7997 0
M  V30 1526 H 146.055 -1.91657 -2.64452 0
M  V30 1527 H 144.714 -3.46978 -1.18331 0
M  V30 1528 H 144.362 -3.45115 -3.6593 0
M  V30 1529 H 144.062 -5.06788 -2.97388 0
M  V30 1530 H 145.586 -4.74146 -3.84731 0
M  V30 1531 H 147 -5.47582 -1.69785 0
M  V30 1532 H 145.397 -5.91073 -1.03693 0
M  V30 1533 H 146.467 -4.84786 -0.105041 0
M  V30 1534 N 147.81 0.181792 -1.56548 0
M  V30 1535 C 148.74 1.22765 -1.98623 0
M  V30 1536 C 149.721 1.46747 -0.860189 0
M  V30 1537 O 150.906 1.58259 -1.12551 0
M  V30 1538 C 148.036 2.56894 -2.33715 0
M  V30 1539 C 146.99 2.475 -3.49182 0
M  V30 1540 C 146.316 3.86023 -3.69986 0
M  V30 1541 C 147.616 1.98866 -4.82959 0
M  V30 1542 H 149.31 0.877942 -2.86239 0
M  V30 1543 H 146.856 0.42088 -1.37712 0
M  V30 1544 H 148.809 3.30253 -2.61746 0
M  V30 1545 H 147.533 2.93632 -1.42997 0
M  V30 1546 H 146.192 1.76596 -3.21262 0
M  V30 1547 H 145.84 4.20136 -2.76576 0
M  V30 1548 H 145.54 3.80609 -4.47672 0
M  V30 1549 H 147.064 4.60984 -4.00407 0
M  V30 1550 H 148.478 2.61992 -5.09934 0
M  V30 1551 H 146.875 2.04424 -5.64208 0
M  V30 1552 H 147.945 0.942465 -4.75653 0
M  V30 1553 N 149.288 1.51039 0.449983 0
M  V30 1554 C 150.236 1.71995 1.5659 0
M  V30 1555 C 151.23 0.586029 1.5894 0
M  V30 1556 O 152.436 0.76709 1.62837 0
M  V30 1557 H 148.811 0.543233 0.520001 0
M  V30 1558 H 150.782 2.65562 1.36085 0
M  V30 1559 C 149.531 1.8506 2.9436 0
M  V30 1560 H 148.854 2.71712 2.93279 0
M  V30 1561 H 150.294 2.0374 3.71842 0
M  V30 1562 C 148.753 0.607277 3.31382 0
M  V30 1563 O 149.283 -0.243903 4.00959 0
M  V30 1564 N 147.489 0.455073 2.87015 0
M  V30 1565 H 147.036 1.14879 2.30566 0
M  V30 1566 H 146.994 -0.375611 3.12148 0
M  V30 1567 N 150.766 -0.704594 1.40972 0
M  V30 1568 C 152.182 -1.01406 1.23244 0
M  V30 1569 C 152.382 -2.01169 0.115399 0
M  V30 1570 O 151.438 -2.47021 -0.523147 0
M  V30 1571 C 152.751 -1.54728 2.57836 0
M  V30 1572 C 154.299 -1.66658 2.64942 0
M  V30 1573 C 154.774 -2.23383 3.9983 0
M  V30 1574 N 156.265 -2.30756 4.01629 0
M  V30 1575 C 157 -2.75655 5.02794 0
M  V30 1576 N 156.496 -3.20225 6.14352 0
M  V30 1577 N 158.289 -2.75138 4.90159 0
M  V30 1578 H 150.44 -0.0435285 2.12355 0
M  V30 1579 H 152.703 -0.0818951 0.944456 0
M  V30 1580 H 152.409 -0.888832 3.40283 0
M  V30 1581 H 152.283 -2.53084 2.79693 0
M  V30 1582 H 154.67 -2.31617 1.8286 0
M  V30 1583 H 154.751 -0.668717 2.46904 0
M  V30 1584 H 154.395 -1.59043 4.82357 0
M  V30 1585 H 154.325 -3.23904 4.15203 0
M  V30 1586 H 156.816 -1.99291 3.21079 0
M  V30 1587 H 157.129 -3.53084 6.87424 0
M  V30 1588 H 155.474 -3.18156 6.17901 0
M  V30 1589 H 158.665 -2.39661 4.02095 0
M  V30 1590 H 158.838 -3.09812 5.6914 0
M  V30 1591 N 152.244 -1.26651 -0.937939 0
M  V30 1592 C 153.492 -1.12165 -1.68118 0
M  V30 1593 C 153.813 0.334983 -1.92101 0
M  V30 1594 O 153.083 1.23583 -1.52 0
M  V30 1595 H 151.663 -0.412093 -0.623048 0
M  V30 1596 H 154.325 -1.59027 -1.12678 0
M  V30 1597 H 153.421 -1.64289 -2.6536 0
M  V30 1598 N 153.722 1.14298 -1.08507 0
M  V30 1599 C 155.138 1.37347 -0.812901 0
M  V30 1600 C 155.338 1.93052 0.577325 0
M  V30 1601 O 154.394 2.14389 1.33393 0
M  V30 1602 C 155.707 2.33359 -1.89642 0
M  V30 1603 C 157.255 2.46996 -1.92255 0
M  V30 1604 C 157.73 3.46309 -2.99724 0
M  V30 1605 N 159.221 3.53853 -2.98902 0
M  V30 1606 C 159.956 4.3055 -3.787 0
M  V30 1607 N 159.452 5.10482 -4.6838 0
M  V30 1608 N 161.245 4.25757 -3.66998 0
M  V30 1609 H 153.396 0.764867 -1.9815 0
M  V30 1610 H 155.659 0.398966 -0.859959 0
M  V30 1611 H 155.365 1.99565 -2.89597 0
M  V30 1612 H 155.239 3.33274 -1.76659 0
M  V30 1613 H 157.626 2.80081 -0.929445 0
M  V30 1614 H 157.707 1.47039 -2.09316 0
M  V30 1615 H 157.351 3.13957 -3.99241 0
M  V30 1616 H 157.281 4.46049 -2.79907 0
M  V30 1617 H 159.772 2.96812 -2.33904 0
M  V30 1618 H 160.085 5.66284 -5.25873 0
M  V30 1619 H 158.43 5.09747 -4.72422 0
M  V30 1620 H 161.621 3.62383 -2.96304 0
M  V30 1621 H 161.794 4.85279 -4.29427 0
M  V30 1622 N 155.201 0.870884 1.31352 0
M  V30 1623 C 156.612 0.534714 1.78879 0
M  V30 1624 C 156.963 -0.948423 1.71754 0
M  V30 1625 O 156.088 -1.74055 1.28584 0
M  V30 1626 C 156.683 0.963839 3.24801 0
M  V30 1627 C 155.242 0.679311 3.70219 0
M  V30 1628 C 154.389 1.15465 2.52117 0
M  V30 1629 H 157.34 1.05651 1.18421 0
M  V30 1630 H 157.361 0.286892 3.79417 0
M  V30 1631 H 156.873 2.04332 3.29955 0
M  V30 1632 H 154.974 -0.388769 3.70566 0
M  V30 1633 H 155.087 1.25698 4.62317 0
M  V30 1634 H 153.451 0.574383 2.48139 0
M  V30 1635 H 154.234 2.24157 2.60016 0
M  V30 1636 N 156.679 -1.44442 0.630414 0
M  V30 1637 C 157.909 -2.06115 0.141465 0
M  V30 1638 C 158.317 -1.47179 -1.1889 0
M  V30 1639 O 157.66 -0.588873 -1.74006 0
M  V30 1640 C 157.722 -3.59467 -0.0484355 0
M  V30 1641 C 157.386 -4.40864 1.20366 0
M  V30 1642 C 158.383 -4.74391 2.12719 0
M  V30 1643 C 156.068 -4.8125 1.43887 0
M  V30 1644 C 158.062 -5.47186 3.26904 0
M  V30 1645 C 155.749 -5.53795 2.5837 0
M  V30 1646 C 156.747 -5.86682 3.49705 0
M  V30 1647 O 156.435 -6.57749 4.62191 0
M  V30 1648 H 156.167 -0.671648 0.0765792 0
M  V30 1649 H 158.721 -1.86312 0.864695 0
M  V30 1650 H 156.951 -3.77758 -0.826803 0
M  V30 1651 H 158.64 -4.02909 -0.491849 0
M  V30 1652 H 159.406 -4.43728 1.95781 0
M  V30 1653 H 155.285 -4.55073 0.736853 0
M  V30 1654 H 158.829 -5.72773 3.98217 0
M  V30 1655 H 154.726 -5.83872 2.75251 0
M  V30 1656 H 155.494 -6.76217 4.61164 0
M  V30 1657 N 158.157 -0.370918 -1.53173 0
M  V30 1658 C 159.568 0.107139 -1.86392 0
M  V30 1659 C 159.919 1.47714 -1.29132 0
M  V30 1660 O 159.044 2.07464 -0.615439 0
M  V30 1661 C 159.639 0.201187 -3.38202 0
M  V30 1662 C 158.198 0.623507 -3.712 0
M  V30 1663 C 157.345 -0.225978 -2.76378 0
M  V30 1664 H 160.296 -0.58951 -1.47345 0
M  V30 1665 H 160.317 1.02377 -3.66468 0
M  V30 1666 H 159.829 -0.796058 -3.79848 0
M  V30 1667 H 157.93 1.62879 -3.35114 0
M  V30 1668 H 158.043 0.394414 -4.77474 0
M  V30 1669 H 156.407 0.305962 -2.52856 0
M  V30 1670 H 157.19 -1.22086 -3.20858 0
M  V30 1671 N 159.635 1.57281 -0.100228 0
M  V30 1672 C 160.598 2.13158 0.842398 0
M  V30 1673 C 161.598 1.06202 1.20738 0
M  V30 1674 O 162.788 1.32066 1.13597 0
M  V30 1675 C 159.92 2.65639 2.13655 0
M  V30 1676 H 161.113 2.97766 0.357114 0
M  V30 1677 H 158.666 1.5559 0.148823 0
M  V30 1678 H 159.401 1.84566 2.66657 0
M  V30 1679 H 159.186 3.43844 1.88451 0
M  V30 1680 H 160.676 3.08846 2.81077 0
M  V30 1681 N 161.113 -0.173488 1.56642 0
M  V30 1682 C 162.362 -0.888758 1.81063 0
M  V30 1683 C 162.675 -1.83506 0.67712 0
M  V30 1684 O 163.881 -2.59254 0.806206 0
M  V30 1685 C 162.337 -1.63091 3.20826 0
M  V30 1686 C 161.945 -0.728357 4.4204 0
M  V30 1687 C 163.689 -2.33454 3.54541 0
M  V30 1688 C 161.596 -1.47062 5.72823 0
M  V30 1689 H 160.526 -0.335618 0.675186 0
M  V30 1690 H 163.177 -0.141712 1.82952 0
M  V30 1691 H 161.559 -2.42263 3.13248 0
M  V30 1692 H 162.733 0.0262449 4.60793 0
M  V30 1693 H 161.048 -0.134492 4.16183 0
M  V30 1694 H 163.645 -2.89578 4.49498 0
M  V30 1695 H 163.988 -3.08687 2.79317 0
M  V30 1696 H 164.521 -1.61227 3.63663 0
M  V30 1697 H 161.26 -0.760658 6.51072 0
M  V30 1698 H 160.78 -2.1986 5.58052 0
M  V30 1699 H 162.459 -2.01868 6.14702 0
M  V30 1700 N 162.591 -1.51276 -0.441967 0
M  V30 1701 C 163.521 -1.752 -1.54361 0
M  V30 1702 C 164.502 -0.601682 -1.59103 0
M  V30 1703 O 165.687 -0.843913 -1.74905 0
M  V30 1704 C 162.817 -1.87282 -2.92477 0
M  V30 1705 C 161.771 -3.02687 -3.02596 0
M  V30 1706 C 161.097 -2.99947 -4.42647 0
M  V30 1707 C 162.397 -4.4273 -2.77106 0
M  V30 1708 H 164.091 -2.67442 -1.34592 0
M  V30 1709 H 161.637 -1.28694 -0.646048 0
M  V30 1710 H 163.59 -2.02602 -3.695 0
M  V30 1711 H 162.314 -0.916844 -3.13467 0
M  V30 1712 H 160.973 -2.87065 -2.28012 0
M  V30 1713 H 160.621 -2.02136 -4.60597 0
M  V30 1714 H 160.321 -3.77439 -4.50348 0
M  V30 1715 H 161.845 -3.17354 -5.2165 0
M  V30 1716 H 163.259 -4.58727 -3.43864 0
M  V30 1717 H 161.656 -5.21893 -2.96222 0
M  V30 1718 H 162.726 -4.53087 -1.72744 0
M  V30 1719 N 164.069 0.697108 -1.41344 0
M  V30 1720 C 165.318 1.45279 -1.39918 0
M  V30 1721 C 165.631 1.95597 -0.0109624 0
M  V30 1722 O 166.837 2.71208 0.125919 0
M  V30 1723 C 165.293 2.62695 -2.46007 0
M  V30 1724 C 164.901 2.19169 -3.90729 0
M  V30 1725 C 166.645 3.40336 -2.53715 0
M  V30 1726 C 164.552 3.33535 -4.88373 0
M  V30 1727 H 163.482 0.545692 -0.520323 0
M  V30 1728 H 166.133 0.756929 -1.67161 0
M  V30 1729 H 164.515 3.34541 -2.11892 0
M  V30 1730 H 165.689 1.54623 -4.34083 0
M  V30 1731 H 164.004 1.54525 -3.86666 0
M  V30 1732 H 166.601 4.2547 -3.2385 0
M  V30 1733 H 166.944 3.85418 -1.5735 0
M  V30 1734 H 167.477 2.75546 -2.86913 0
M  V30 1735 H 164.216 2.93468 -5.86137 0
M  V30 1736 H 163.736 3.96936 -4.49668 0
M  V30 1737 H 165.415 3.99335 -5.09059 0
M  V30 1738 N 165.547 1.27147 0.931209 0
M  V30 1739 C 166.477 1.12081 2.04842 0
M  V30 1740 C 167.458 0.0232364 1.70084 0
M  V30 1741 O 168.643 0.197085 1.93197 0
M  V30 1742 C 165.773 0.76354 3.38803 0
M  V30 1743 C 164.727 1.81396 3.87659 0
M  V30 1744 C 164.053 1.31075 5.18385 0
M  V30 1745 C 165.353 3.21739 4.11438 0
M  V30 1746 H 167.047 2.05537 2.17703 0
M  V30 1747 H 164.593 0.989603 1.04608 0
M  V30 1748 H 166.546 0.644982 4.16435 0
M  V30 1749 H 165.27 -0.206727 3.25945 0
M  V30 1750 H 163.929 1.92136 3.12217 0
M  V30 1751 H 163.577 0.330037 5.01916 0
M  V30 1752 H 163.277 2.013 5.52044 0
M  V30 1753 H 164.801 1.20506 5.98591 0
M  V30 1754 H 166.215 3.14019 4.79651 0
M  V30 1755 H 164.612 3.89644 4.56397 0
M  V30 1756 H 165.682 3.67054 3.16859 0
M  V30 1757 N 167.025 -1.13721 1.09112 0
M  V30 1758 C 168.441 -1.36914 0.820174 0
M  V30 1759 C 168.641 -1.93356 -0.567079 0
M  V30 1760 O 167.697 -2.15093 -1.32255 0
M  V30 1761 C 169.01 -2.3235 1.90877 0
M  V30 1762 C 170.558 -2.45973 1.93562 0
M  V30 1763 C 171.033 -3.44714 3.01556 0
M  V30 1764 N 172.524 -3.52263 3.00775 0
M  V30 1765 C 173.259 -4.28536 3.80978 0
M  V30 1766 N 172.755 -5.07991 4.71081 0
M  V30 1767 N 174.548 -4.23804 3.69251 0
M  V30 1768 H 166.699 -0.754348 1.98553 0
M  V30 1769 H 168.962 -0.3944 0.862063 0
M  V30 1770 H 168.668 -1.98027 2.90651 0
M  V30 1771 H 168.542 -3.32332 1.78424 0
M  V30 1772 H 170.929 -2.79584 0.944286 0
M  V30 1773 H 171.01 -1.45926 2.10093 0
M  V30 1774 H 170.654 -3.11835 4.00901 0
M  V30 1775 H 170.584 -4.44558 2.82269 0
M  V30 1776 H 173.075 -2.95567 2.35475 0
M  V30 1777 H 173.388 -5.63487 5.28869 0
M  V30 1778 H 171.733 -5.07235 4.75119 0
M  V30 1779 H 174.924 -3.60806 2.98222 0
M  V30 1780 H 175.097 -4.82995 4.31995 0
M  V30 1781 N 168.503 -0.877838 -1.30888 0
M  V30 1782 C 169.751 -0.491723 -1.96027 0
M  V30 1783 C 170.072 0.960827 -1.69685 0
M  V30 1784 O 169.342 1.67462 -1.01654 0
M  V30 1785 H 167.922 -0.17885 -0.725273 0
M  V30 1786 H 170.584 -1.11935 -1.59551 0
M  V30 1787 H 169.68 -0.656016 -3.05128 0
M  V30 1788 N 169.982 1.44106 -0.638065 0
M  V30 1789 C 171.21 2.06336 -0.152615 0
M  V30 1790 C 171.625 1.47731 1.17563 0
M  V30 1791 O 170.982 0.602806 1.72257 0
M  V30 1792 C 171.033 3.61479 -0.0391491 0
M  V30 1793 O 170.754 4.17903 -1.31487 0
M  V30 1794 C 172.255 4.40757 0.474176 0
M  V30 1795 H 169.475 0.665862 -0.0828776 0
M  V30 1796 H 172.019 1.84862 -0.87443 0
M  V30 1797 H 170.174 3.82191 0.633142 0
M  V30 1798 H 170.588 5.11416 -1.16421 0
M  V30 1799 H 172.062 5.49707 0.502562 0
M  V30 1800 H 172.539 4.12697 1.50258 0
M  V30 1801 H 173.145 4.24979 -0.165102 0
M  V30 1802 N 171.46 0.379036 1.52974 0
M  V30 1803 C 172.423 -0.448865 2.24762 0
M  V30 1804 C 173.423 -0.998689 1.26027 0
M  V30 1805 O 174.613 -0.882313 1.50203 0
M  V30 1806 C 171.745 -1.62872 2.99476 0
M  V30 1807 H 172.938 0.179491 2.99362 0
M  V30 1808 H 170.491 0.13096 1.5575 0
M  V30 1809 H 171.226 -2.29479 2.29151 0
M  V30 1810 H 171.011 -1.24128 3.71934 0
M  V30 1811 H 172.501 -2.2151 3.5401 0
M  V30 1812 N 172.938 -1.57226 0.108567 0
M  V30 1813 C 174.185 -1.94833 -0.551943 0
M  V30 1814 C 174.513 -0.991204 -1.67348 0
M  V30 1815 O 173.768 -0.0131878 -1.95696 0
M  V30 1816 C 174.067 -3.38911 -1.13463 0
M  V30 1817 C 173.733 -4.50696 -0.135509 0
M  V30 1818 C 172.395 -4.80998 0.139252 0
M  V30 1819 C 174.747 -5.18333 0.545957 0
M  V30 1820 C 172.075 -5.76259 1.10194 0
M  V30 1821 C 174.427 -6.14627 1.49721 0
M  V30 1822 C 173.091 -6.43327 1.78006 0
M  V30 1823 H 172.361 -0.712944 -0.20197 0
M  V30 1824 H 175.008 -1.90582 0.18726 0
M  V30 1825 H 173.313 -3.39805 -1.95037 0
M  V30 1826 H 175.01 -3.65317 -1.65362 0
M  V30 1827 H 171.6 -4.27087 -0.359846 0
M  V30 1828 H 175.784 -4.95087 0.346842 0
M  V30 1829 H 171.04 -5.96804 1.32795 0
M  V30 1830 H 175.214 -6.66126 2.03099 0
M  V30 1831 H 172.841 -7.1695 2.52759 0
M  V30 1832 N 174.416 0.165178 -1.56732 0
M  V30 1833 C 175.656 0.887231 -1.8414 0
M  V30 1834 C 176.02 1.79159 -0.690353 0
M  V30 1835 O 177.221 2.55172 -0.845032 0
M  V30 1836 C 175.492 1.65674 -3.16681 0
M  V30 1837 S 177.051 2.42671 -3.6559 0
M  V30 1838 H 173.869 0.297042 -0.645978 0
M  V30 1839 H 176.471 0.148439 -1.94936 0
M  V30 1840 H 175.175 0.983507 -3.98441 0
M  V30 1841 H 174.706 2.43679 -3.08843 0
M  V30 1842 H 176.721 3.67499 -3.33406 0
M  V30 1843 N 175.894 1.51508 0.433938 0
M  V30 1844 C 177.122 1.68157 1.20543 0
M  V30 1845 C 177.537 0.380362 1.84929 0
M  V30 1846 O 176.894 -0.641446 1.70856 0
M  V30 1847 C 176.945 2.79965 2.28696 0
M  V30 1848 O 176.666 4.05045 1.66943 0
M  V30 1849 C 178.167 3.07912 3.18912 0
M  V30 1850 H 175.387 0.56421 0.363191 0
M  V30 1851 H 177.931 1.97941 0.513754 0
M  V30 1852 H 176.086 2.5277 2.93574 0
M  V30 1853 H 176.5 4.67165 2.38448 0
M  V30 1854 H 177.974 3.89719 3.90926 0
M  V30 1855 H 178.451 2.20456 3.79863 0
M  V30 1856 H 179.057 3.36779 2.59731 0
M  V30 1857 N 177.372 -0.689602 1.41712 0
M  V30 1858 C 178.62 -1.4468 1.4111 0
M  V30 1859 C 178.941 -1.94986 0.0232196 0
M  V30 1860 O 178.211 -1.72097 -0.935913 0
M  V30 1861 H 176.791 -0.536847 0.519427 0
M  V30 1862 H 179.453 -0.815825 1.77004 0
M  V30 1863 H 178.549 -2.30706 2.10193 0
M  V30 1864 N 178.85 -1.27639 -0.924453 0
M  V30 1865 C 179.798 -1.10485 -2.04685 0
M  V30 1866 C 180.792 -0.0270421 -1.69378 0
M  V30 1867 O 181.998 -0.185008 -1.79047 0
M  V30 1868 H 178.373 -0.340546 -0.670472 0
M  V30 1869 H 180.344 -2.05566 -2.16298 0
M  V30 1870 C 179.093 -0.772229 -3.39016 0
M  V30 1871 H 178.416 -1.59351 -3.66671 0
M  V30 1872 H 179.856 -0.692097 -4.18313 0
M  V30 1873 C 178.315 0.523554 -3.32807 0
M  V30 1874 O 178.845 1.55702 -3.70297 0
M  V30 1875 N 177.051 0.520363 -2.85903 0
M  V30 1876 H 176.598 -0.32107 -2.55591 0
M  V30 1877 H 176.556 1.38742 -2.82131 0
M  V30 1878 N 180.328 1.1314 -1.09713 0
M  V30 1879 C 181.576 1.84119 -0.833338 0
M  V30 1880 C 181.897 1.84097 0.642904 0
M  V30 1881 O 181.167 1.29881 1.46655 0
M  V30 1882 H 179.747 0.681766 -0.305293 0
M  V30 1883 H 182.409 1.37038 -1.38588 0
M  V30 1884 H 181.505 2.88543 -1.18951 0
M  V30 1885 N 181.806 0.884767 1.30421 0
M  V30 1886 C 183.052 0.503851 1.96441 0
M  V30 1887 C 183.385 -0.944518 1.69684 0
M  V30 1888 O 182.66 -1.66737 1.00145 0
M  V30 1889 C 182.943 0.779085 3.51571 0
M  V30 1890 C 182.796 2.27807 3.87846 0
M  V30 1891 C 184.115 0.255452 4.39358 0
M  V30 1892 H 181.234 0.184533 0.713524 0
M  V30 1893 H 183.876 1.10872 1.54297 0
M  V30 1894 H 182.026 0.264274 3.876 0
M  V30 1895 H 183.698 2.86127 3.61841 0
M  V30 1896 H 181.941 2.74479 3.35922 0
M  V30 1897 H 182.612 2.42125 4.96064 0
M  V30 1898 H 185.088 0.696079 4.10236 0
M  V30 1899 H 183.964 0.477361 5.4682 0
M  V30 1900 H 184.225 -0.843293 4.33983 0
M  V30 1901 N 183.284 -1.43765 0.645699 0
M  V30 1902 C 184.214 -2.33471 -0.0370477 0
M  V30 1903 C 185.195 -1.49042 -0.819779 0
M  V30 1904 O 186.38 -1.77726 -0.782758 0
M  V30 1905 C 183.51 -3.32311 -1.0093 0
M  V30 1906 C 182.464 -4.2667 -0.337201 0
M  V30 1907 C 181.79 -5.1549 -1.42037 0
M  V30 1908 C 183.09 -5.16657 0.765706 0
M  V30 1909 H 184.784 -2.90809 0.712069 0
M  V30 1910 H 182.33 -1.39834 0.343876 0
M  V30 1911 H 184.283 -3.9396 -1.49578 0
M  V30 1912 H 183.007 -2.73213 -1.78948 0
M  V30 1913 H 181.666 -3.66374 0.128771 0
M  V30 1914 H 181.314 -4.52735 -2.1918 0
M  V30 1915 H 181.014 -5.79438 -0.975966 0
M  V30 1916 H 182.538 -5.80012 -1.90838 0
M  V30 1917 H 183.952 -5.72158 0.361702 0
M  V30 1918 H 182.349 -5.89286 1.13413 0
M  V30 1919 H 183.419 -4.56796 1.62683 0
M  V30 1920 N 184.763 -0.387143 -1.52771 0
M  V30 1921 C 185.695 0.484089 -2.2403 0
M  V30 1922 C 186.708 1.02849 -1.26198 0
M  V30 1923 O 187.897 0.931186 -1.52286 0
M  V30 1924 C 184.997 1.68337 -2.94136 0
M  V30 1925 C 184.17 1.26672 -4.18656 0
M  V30 1926 C 183.229 2.33045 -4.7178 0
M  V30 1927 O 182.255 1.94541 -5.34923 0
M  V30 1928 N 183.457 3.64929 -4.5145 0
M  V30 1929 H 186.222 -0.126404 -2.99433 0
M  V30 1930 H 183.783 -0.213392 -1.60488 0
M  V30 1931 H 185.775 2.39019 -3.26577 0
M  V30 1932 H 184.345 2.20025 -2.22053 0
M  V30 1933 H 183.565 0.388878 -3.92277 0
M  V30 1934 H 184.853 0.964964 -4.99566 0
M  V30 1935 H 184.251 3.98974 -4.01044 0
M  V30 1936 H 182.808 4.31651 -4.88386 0
M  V30 1937 N 186.241 1.57166 -0.116904 0
M  V30 1938 C 187.489 1.94737 0.540533 0
M  V30 1939 C 187.81 1.00096 1.67349 0
M  V30 1940 O 187.08 0.0568854 1.95817 0
M  V30 1941 H 185.66 0.718981 0.202669 0
M  V30 1942 H 188.322 1.94017 -0.185353 0
M  V30 1943 H 187.418 2.97719 0.936483 0
M  V30 1944 N 187.719 -0.156864 1.56817 0
M  V30 1945 C 188.949 -0.885031 1.86684 0
M  V30 1946 C 189.357 -1.75696 0.701954 0
M  V30 1947 O 188.7 -1.80569 -0.337732 0
M  V30 1948 C 188.762 -1.80092 3.11138 0
M  V30 1949 C 188.426 -1.10714 4.43386 0
M  V30 1950 C 189.423 -0.465714 5.1781 0
M  V30 1951 C 187.108 -1.09959 4.90117 0
M  V30 1952 C 189.102 0.174002 6.37162 0
M  V30 1953 C 186.789 -0.456055 6.09396 0
M  V30 1954 C 187.787 0.179622 6.82764 0
M  V30 1955 O 187.475 0.812975 7.99779 0
M  V30 1956 H 187.207 -0.261813 0.623242 0
M  V30 1957 H 189.761 -0.157383 2.04796 0
M  V30 1958 H 187.991 -2.56926 2.89009 0
M  V30 1959 H 189.68 -2.40018 3.27332 0
M  V30 1960 H 190.446 -0.463427 4.82781 0
M  V30 1961 H 186.325 -1.58378 4.3294 0
M  V30 1962 H 189.869 0.670765 6.94368 0
M  V30 1963 H 185.766 -0.455975 6.43888 0
M  V30 1964 H 186.534 0.71366 8.15383 0
M  V30 1965 N 189.197 -1.51736 -0.425897 0
M  V30 1966 C 190.427 -1.68549 -1.19476 0
M  V30 1967 C 190.835 -0.387288 -1.85194 0
M  V30 1968 O 190.178 0.645142 -1.71999 0
M  V30 1969 C 190.24 -2.75275 -2.31223 0
M  V30 1970 C 189.904 -4.17534 -1.8578 0
M  V30 1971 C 190.901 -5.01936 -1.35485 0
M  V30 1972 C 188.586 -4.6369 -1.93123 0
M  V30 1973 C 190.58 -6.30559 -0.931347 0
M  V30 1974 C 188.267 -5.92307 -1.50384 0
M  V30 1975 C 189.265 -6.75569 -1.00473 0
M  V30 1976 O 188.953 -8.0178 -0.583452 0
M  V30 1977 H 188.685 -0.568525 -0.365725 0
M  V30 1978 H 191.239 -1.98982 -0.509444 0
M  V30 1979 H 189.469 -2.40182 -3.03067 0
M  V30 1980 H 191.158 -2.80853 -2.93047 0
M  V30 1981 H 191.924 -4.67475 -1.29197 0
M  V30 1982 H 187.803 -3.98997 -2.30916 0
M  V30 1983 H 191.347 -6.95498 -0.541084 0
M  V30 1984 H 187.244 -6.2628 -1.56346 0
M  V30 1985 H 188.012 -8.1543 -0.708275 0
M  V30 1986 N 190.675 0.682077 -1.42076 0
M  V30 1987 C 191.605 1.80796 -1.47767 0
M  V30 1988 C 192.586 1.6677 -0.334954 0
M  V30 1989 O 193.771 1.863 -0.548264 0
M  V30 1990 C 190.901 3.19038 -1.37229 0
M  V30 1991 C 189.855 3.47789 -2.49453 0
M  V30 1992 C 189.181 4.8553 -2.23975 0
M  V30 1993 C 190.481 3.45411 -3.91776 0
M  V30 1994 H 192.175 1.7629 -2.41997 0
M  V30 1995 H 189.721 0.846721 -1.16476 0
M  V30 1996 H 191.674 3.97528 -1.39821 0
M  V30 1997 H 190.398 3.24204 -0.394907 0
M  V30 1998 H 189.057 2.71657 -2.46166 0
M  V30 1999 H 188.705 4.87337 -1.24547 0
M  V30 2000 H 188.405 5.0573 -2.99184 0
M  V30 2001 H 189.929 5.66312 -2.28304 0
M  V30 2002 H 191.343 4.13882 -3.96705 0
M  V30 2003 H 189.74 3.77145 -4.66778 0
M  V30 2004 H 190.81 2.44122 -4.18966 0
M  V30 2005 N 192.153 1.28127 0.917671 0
M  V30 2006 C 193.402 1.14432 1.66097 0
M  V30 2007 C 193.715 -0.307247 1.93172 0
M  V30 2008 O 194.921 -0.565259 2.65551 0
M  V30 2009 C 193.377 2.00015 2.99202 0
M  V30 2010 C 192.985 3.49889 2.79789 0
M  V30 2011 C 194.729 1.94996 3.77064 0
M  V30 2012 C 192.636 4.27636 4.08511 0
M  V30 2013 H 191.566 0.424662 0.62304 0
M  V30 2014 H 194.217 1.52628 1.01868 0
M  V30 2015 H 192.599 1.54672 3.64544 0
M  V30 2016 H 193.773 4.03162 2.23152 0
M  V30 2017 H 192.088 3.56392 2.15345 0
M  V30 2018 H 194.685 2.50354 4.72469 0
M  V30 2019 H 195.028 0.925819 4.05875 0
M  V30 2020 H 195.561 2.38287 3.18534 0
M  V30 2021 H 192.3 5.30615 3.84874 0
M  V30 2022 H 191.82 3.79137 4.64774 0
M  V30 2023 H 193.499 4.37346 4.76799 0
M  V30 2024 N 193.631 -1.12557 1.10312 0
M  V30 2025 C 194.861 -1.87592 0.865617 0
M  V30 2026 C 195.269 -1.79851 -0.587389 0
M  V30 2027 O 194.612 -1.16949 -1.41664 0
M  V30 2028 C 194.674 -3.37665 1.23381 0
M  V30 2029 C 194.338 -3.69181 2.69359 0
M  V30 2030 C 195.335 -3.67652 3.67597 0
M  V30 2031 C 193.02 -3.98555 3.05711 0
M  V30 2032 C 195.014 -3.95053 5.00212 0
M  V30 2033 C 192.701 -4.25616 4.38514 0
M  V30 2034 C 193.699 -4.23851 5.35574 0
M  V30 2035 O 193.387 -4.50242 6.65986 0
M  V30 2036 H 193.119 -0.600442 0.310557 0
M  V30 2037 H 195.673 -1.4335 1.47105 0
M  V30 2038 H 193.903 -3.82454 0.571467 0
M  V30 2039 H 195.592 -3.94041 0.973994 0
M  V30 2040 H 196.358 -3.45024 3.40857 0
M  V30 2041 H 192.237 -3.99071 2.30789 0
M  V30 2042 H 195.781 -3.93591 5.75962 0
M  V30 2043 H 191.678 -4.47718 4.64994 0
M  V30 2044 H 192.446 -4.67867 6.71597 0
M  V30 2045 N 195.109 -0.891671 -1.2995 0
M  V30 2046 C 196.349 -0.520296 -1.97667 0
M  V30 2047 C 196.713 0.914797 -1.68806 0
M  V30 2048 O 197.914 1.39263 -2.29911 0
M  V30 2049 C 196.185 -0.795222 -3.48441 0
M  V30 2050 S 197.744 -0.526953 -4.35624 0
M  V30 2051 H 194.562 -0.19333 -0.684211 0
M  V30 2052 H 197.164 -1.15238 -1.57926 0
M  V30 2053 H 195.868 -1.83805 -3.66938 0
M  V30 2054 H 195.399 -0.15095 -3.9311 0
M  V30 2055 H 197.414 0.631533 -4.92165 0
M  V30 2056 N 196.587 1.43421 -0.653314 0
M  V30 2057 C 197.55 2.29182 0.0287951 0
M  V30 2058 C 198.55 1.42213 0.750465 0
M  V30 2059 O 199.74 1.63843 0.591701 0
M  V30 2060 C 196.872 3.24278 1.05151 0
M  V30 2061 H 198.065 2.90985 -0.725786 0
M  V30 2062 H 195.618 1.50702 -0.414545 0
M  V30 2063 H 196.353 2.6737 1.83532 0
M  V30 2064 H 196.138 3.88396 0.537687 0
M  V30 2065 H 197.628 3.88647 1.52786 0
M  V30 2066 N 198.065 0.39524 1.52563 0
M  V30 2067 C 198.975 -0.444232 2.30356 0
M  V30 2068 C 199.991 -1.06615 1.37511 0
M  V30 2069 O 201.167 -1.07067 1.70583 0
M  V30 2070 C 198.232 -1.55315 3.09964 0
M  V30 2071 C 197.293 -0.955734 4.18526 0
M  V30 2072 C 196.526 -2.01181 4.9433 0
M  V30 2073 O 196.749 -3.22781 4.70285 0
M  V30 2074 O 195.683 -1.62579 5.79527 0
M  V30 2075 H 199.509 0.189667 3.03107 0
M  V30 2076 H 197.094 0.1588 1.48554 0
M  V30 2077 H 198.976 -2.19724 3.59582 0
M  V30 2078 H 197.651 -2.17191 2.4002 0
M  V30 2079 H 196.558 -0.274743 3.7309 0
M  V30 2080 H 197.891 -0.381109 4.90722 0
M  V30 2081 N 199.544 -1.57102 0.125237 0
M  V30 2082 C 200.774 -1.99472 -0.538015 0
M  V30 2083 C 201.182 -1.00395 -1.60366 0
M  V30 2084 O 200.525 0.0103875 -1.83697 0
M  V30 2085 C 200.587 -3.38262 -1.21734 0
M  V30 2086 C 200.251 -4.56021 -0.298897 0
M  V30 2087 C 201.248 -5.17817 0.464943 0
M  V30 2088 C 198.933 -5.01869 -0.208149 0
M  V30 2089 C 200.927 -6.23852 1.3072 0
M  V30 2090 C 198.614 -6.07763 0.637736 0
M  V30 2091 C 199.612 -6.68622 1.39403 0
M  V30 2092 O 199.3 -7.7247 2.22586 0
M  V30 2093 H 199.032 -0.659934 -0.146501 0
M  V30 2094 H 201.586 -2.04321 0.210267 0
M  V30 2095 H 199.816 -3.30185 -2.01282 0
M  V30 2096 H 201.505 -3.6488 -1.77813 0
M  V30 2097 H 202.271 -4.83308 0.404741 0
M  V30 2098 H 198.15 -4.54241 -0.786522 0
M  V30 2099 H 201.694 -6.71284 1.898 0
M  V30 2100 H 197.591 -6.41701 0.699309 0
M  V30 2101 H 198.359 -7.89595 2.15596 0
M  V30 2102 N 201.022 0.148545 -1.56898 0
M  V30 2103 C 202.433 0.708766 -1.72723 0
M  V30 2104 C 202.784 1.81734 -0.739395 0
M  V30 2105 O 201.909 2.16194 0.0943169 0
M  V30 2106 C 202.504 1.29245 -3.13179 0
M  V30 2107 C 201.063 1.79925 -3.30611 0
M  V30 2108 C 200.21 0.687111 -2.68652 0
M  V30 2109 H 203.161 -0.0771063 -1.58513 0
M  V30 2110 H 203.182 2.16224 -3.13093 0
M  V30 2111 H 202.694 0.485382 -3.85053 0
M  V30 2112 H 200.795 2.63203 -2.63732 0
M  V30 2113 H 200.908 1.92903 -4.38549 0
M  V30 2114 H 199.272 1.11335 -2.29078 0
M  V30 2115 H 200.055 -0.108483 -3.43129 0
M  V30 2116 N 202.5 1.5196 0.417844 0
M  V30 2117 C 203.777 1.56146 1.17803 0
M  V30 2118 C 204.157 0.337275 2.08388 0
M  V30 2119 O 203.505 -0.676447 2.18258 0
M  V30 2120 C 203.715 2.88566 1.96293 0
M  V30 2121 C 205.063 3.41244 2.52662 0
M  V30 2122 O 206.087 2.90247 2.06483 0
M  V30 2123 O 204.946 4.30273 3.36938 0
M  V30 2124 H 202.04 0.628598 0.537395 0
M  V30 2125 H 204.586 1.64283 0.425331 0
M  V30 2126 H 203.358 3.69116 1.2988 0
M  V30 2127 H 202.981 2.83681 2.78587 0
M  V30 2128 N 203.978 -0.674533 1.42435 0
M  V30 2129 C 205.226 -1.43175 1.42637 0
M  V30 2130 C 205.547 -1.94951 0.0438992 0
M  V30 2131 O 204.817 -1.7308 -0.917607 0
M  V30 2132 H 203.397 -0.531307 0.525092 0
M  V30 2133 H 206.059 -0.797006 1.77859 0
M  V30 2134 H 205.155 -2.28463 2.12629 0
M  V30 2135 N 205.456 -1.28612 -0.910864 0
M  V30 2136 C 206.702 -1.17116 -1.66299 0
M  V30 2137 C 207.057 0.276917 -1.90397 0
M  V30 2138 O 206.35 1.19795 -1.49532 0
M  V30 2139 C 206.544 -1.90624 -3.0232 0
M  V30 2140 C 206.373 -3.42431 -2.91498 0
M  V30 2141 C 205.143 -4.11773 -2.92867 0
M  V30 2142 C 207.341 -4.38124 -2.69355 0
M  V30 2143 N 205.323 -5.50025 -2.72664 0
M  V30 2144 C 206.694 -5.63759 -2.58023 0
M  V30 2145 C 208.749 -4.28016 -2.54375 0
M  V30 2146 C 207.452 -6.80436 -2.33238 0
M  V30 2147 C 209.478 -5.44433 -2.30969 0
M  V30 2148 C 208.84 -6.69034 -2.20394 0
M  V30 2149 H 204.939 -0.483506 -0.61461 0
M  V30 2150 H 207.523 -1.62299 -1.0755 0
M  V30 2151 H 205.694 -1.4787 -3.5915 0
M  V30 2152 H 207.426 -1.71488 -3.66571 0
M  V30 2153 H 204.181 -3.63378 -3.03732 0
M  V30 2154 H 204.605 -6.22705 -2.65646 0
M  V30 2155 H 209.247 -3.32388 -2.613 0
M  V30 2156 H 206.965 -7.7613 -2.25051 0
M  V30 2157 H 210.551 -5.38504 -2.20238 0
M  V30 2158 H 209.431 -7.57595 -2.02531 0
M  V30 2159 N 206.934 1.1197 -1.10907 0
M  V30 2160 C 208.164 1.8713 -0.875553 0
M  V30 2161 C 208.572 1.8016 0.577843 0
M  V30 2162 O 207.915 1.17699 1.41042 0
M  V30 2163 C 207.977 3.37005 -1.2517 0
M  V30 2164 C 207.641 3.67748 -2.71313 0
M  V30 2165 C 208.638 3.65698 -3.69542 0
M  V30 2166 C 206.323 3.96928 -3.07821 0
M  V30 2167 C 208.317 3.92395 -5.023 0
M  V30 2168 C 206.004 4.23284 -4.40765 0
M  V30 2169 C 207.002 4.21005 -5.37814 0
M  V30 2170 O 206.69 4.46704 -6.68364 0
M  V30 2171 H 206.422 0.598786 -0.313737 0
M  V30 2172 H 208.976 1.42568 -1.47863 0
M  V30 2173 H 207.206 3.82146 -0.591741 0
M  V30 2174 H 208.895 3.93519 -0.994877 0
M  V30 2175 H 209.661 3.43211 -3.42682 0
M  V30 2176 H 205.54 3.97841 -2.32902 0
M  V30 2177 H 209.084 3.90531 -5.78041 0
M  V30 2178 H 204.981 4.45246 -4.67361 0
M  V30 2179 H 205.749 4.64299 -6.74069 0
M  V30 2180 N 208.412 0.89855 1.29475 0
M  V30 2181 C 209.64 0.539261 1.99749 0
M  V30 2182 C 210.055 -0.875716 1.67262 0
M  V30 2183 O 209.412 -1.57786 0.917049 0
M  V30 2184 C 209.463 0.72061 3.54245 0
M  V30 2185 O 209.184 2.07989 3.8558 0
M  V30 2186 C 210.685 0.366118 4.41786 0
M  V30 2187 H 207.905 0.207047 0.638258 0
M  V30 2188 H 210.449 1.20758 1.65039 0
M  V30 2189 H 208.604 0.0994862 3.87272 0
M  V30 2190 H 209.018 2.10841 4.80257 0
M  V30 2191 H 210.492 0.543848 5.49314 0
M  V30 2192 H 210.969 -0.696763 4.33638 0
M  V30 2193 H 211.575 0.964135 4.14228 0
M  V30 2194 N 209.89 -1.43072 0.660911 0
M  V30 2195 C 211.167 -1.95307 0.107017 0
M  V30 2196 C 211.547 -1.60192 -1.37484 0
M  V30 2197 O 210.895 -0.890949 -2.10415 0
M  V30 2198 C 211.105 -3.47124 0.361402 0
M  V30 2199 C 212.453 -4.23738 0.270455 0
M  V30 2200 O 213.477 -3.54981 0.294382 0
M  V30 2201 O 212.336 -5.46131 0.200737 0
M  V30 2202 H 209.43 -0.826984 -0.00517729 0
M  V30 2203 H 211.976 -1.52972 0.734681 0
M  V30 2204 H 210.748 -3.65837 1.38848 0
M  V30 2205 H 210.371 -3.96475 -0.298953 0
M  V30 2206 N 211.368 -0.403325 -1.52352 0
M  V30 2207 C 212.617 0.175668 -2.00934 0
M  V30 2208 C 212.93 1.46718 -1.29356 0
M  V30 2209 O 214.136 2.12708 -1.68724 0
M  V30 2210 C 212.592 0.363612 -3.58058 0
M  V30 2211 C 212.2 -0.915472 -4.38547 0
M  V30 2212 C 213.944 0.89821 -4.14888 0
M  V30 2213 C 211.851 -0.695035 -5.87302 0
M  V30 2214 H 210.781 0.0694234 -0.750797 0
M  V30 2215 H 213.432 -0.527879 -1.75743 0
M  V30 2216 H 211.814 1.12935 -3.79555 0
M  V30 2217 H 212.988 -1.68691 -4.28812 0
M  V30 2218 H 211.303 -1.37606 -3.93006 0
M  V30 2219 H 213.9 1.07907 -5.23699 0
M  V30 2220 H 214.243 1.87126 -3.71873 0
M  V30 2221 H 214.776 0.191681 -3.97338 0
M  V30 2222 H 211.515 -1.63948 -6.34666 0
M  V30 2223 H 211.035 0.0372116 -5.99788 0
M  V30 2224 H 212.714 -0.33497 -6.46132 0
M  V30 2225 N 212.846 1.57033 -0.133567 0
M  V30 2226 C 214.262 1.58035 0.222944 0
M  V30 2227 C 214.462 1.14713 1.6566 0
M  V30 2228 O 213.518 0.841218 2.38075 0
M  V30 2229 C 214.831 3.00691 -0.0236116 0
M  V30 2230 C 216.379 3.12973 0.0411512 0
M  V30 2231 C 216.854 4.57654 -0.177899 0
M  V30 2232 N 218.345 4.63033 -0.124365 0
M  V30 2233 C 219.08 5.72771 -0.268553 0
M  V30 2234 N 218.576 6.91206 -0.46972 0
M  V30 2235 N 220.369 5.61718 -0.2071 0
M  V30 2236 H 212.52 1.8349 -1.06981 0
M  V30 2237 H 214.783 0.848677 -0.422436 0
M  V30 2238 H 214.489 3.36726 -1.0153 0
M  V30 2239 H 214.363 3.70614 0.701808 0
M  V30 2240 H 216.75 2.76787 1.02338 0
M  V30 2241 H 216.831 2.45564 -0.716383 0
M  V30 2242 H 216.475 4.94542 -1.15717 0
M  V30 2243 H 216.405 5.23173 0.599797 0
M  V30 2244 H 218.896 3.7789 0.027011 0
M  V30 2245 H 219.209 7.70693 -0.570212 0
M  V30 2246 H 217.554 6.93156 -0.505876 0
M  V30 2247 H 220.745 4.68072 -0.0507986 0
M  V30 2248 H 220.918 6.47195 -0.322909 0
M  V30 2249 N 214.325 -0.140222 1.56975 0
M  V30 2250 C 215.572 -0.851687 1.83719 0
M  V30 2251 C 215.9 -1.80862 0.715485 0
M  V30 2252 O 215.155 -1.93464 -0.294956 0
M  V30 2253 C 215.454 -1.65386 3.16832 0
M  V30 2254 C 215.12 -0.843112 4.42947 0
M  V30 2255 C 213.782 -0.619464 4.77196 0
M  V30 2256 C 216.134 -0.276582 5.20466 0
M  V30 2257 C 213.462 0.181312 5.8642 0
M  V30 2258 C 215.814 0.51127 6.30531 0
M  V30 2259 C 214.478 0.745432 6.63325 0
M  V30 2260 H 213.748 -0.311654 0.672274 0
M  V30 2261 H 216.395 -0.115006 1.91154 0
M  V30 2262 H 214.7 -2.46084 3.04877 0
M  V30 2263 H 216.397 -2.20793 3.34741 0
M  V30 2264 H 212.987 -1.0275 4.16101 0
M  V30 2265 H 217.171 -0.436632 4.94376 0
M  V30 2266 H 212.427 0.372165 6.10266 0
M  V30 2267 H 216.601 0.957354 6.89788 0
M  V30 2268 H 214.228 1.36778 7.47794 0
M  V30 2269 N 215.803 -1.52179 -0.40978 0
M  V30 2270 C 217.028 -1.70347 -1.18308 0
M  V30 2271 C 217.453 -0.411887 -1.83535 0
M  V30 2272 O 216.811 0.630587 -1.6998 0
M  V30 2273 C 216.859 -2.83977 -2.22238 0
M  V30 2274 O 215.963 -2.495 -3.28365 0
M  V30 2275 H 215.304 -0.567103 -0.345384 0
M  V30 2276 H 217.834 -1.98879 -0.480445 0
M  V30 2277 H 217.844 -3.0887 -2.66577 0
M  V30 2278 H 216.519 -3.77685 -1.74146 0
M  V30 2279 H 215.096 -2.35277 -2.89308 0
M  V30 2280 N 217.281 0.66697 -1.42791 0
M  V30 2281 C 218.211 1.79218 -1.49677 0
M  V30 2282 C 219.192 1.66405 -0.352623 0
M  V30 2283 O 220.377 1.85708 -0.567993 0
M  V30 2284 C 217.507 3.17565 -1.40605 0
M  V30 2285 C 216.461 3.45124 -2.53127 0
M  V30 2286 C 215.787 4.83127 -2.29112 0
M  V30 2287 C 217.087 3.41236 -3.95418 0
M  V30 2288 H 218.781 1.73713 -2.43853 0
M  V30 2289 H 216.327 0.83432 -1.17367 0
M  V30 2290 H 218.28 3.96022 -1.44029 0
M  V30 2291 H 217.004 3.23767 -0.429271 0
M  V30 2292 H 215.663 2.69031 -2.49034 0
M  V30 2293 H 215.311 4.85988 -1.29709 0
M  V30 2294 H 215.011 5.02528 -3.04531 0
M  V30 2295 H 216.535 5.63859 -2.34297 0
M  V30 2296 H 217.949 4.09651 -4.01073 0
M  V30 2297 H 216.346 3.72173 -4.70752 0
M  V30 2298 H 217.416 2.39665 -4.21532 0
M  V30 2299 N 218.759 1.29093 0.90403 0
M  V30 2300 C 220.007 1.16583 1.65085 0
M  V30 2301 C 220.328 -0.283933 1.92922 0
M  V30 2302 O 219.598 -1.19509 1.55224 0
M  V30 2303 H 218.178 0.428467 0.611903 0
M  V30 2304 H 220.84 1.61959 1.08422 0
M  V30 2305 H 219.936 1.71266 2.6091 0
M  V30 2306 N 220.237 -1.11381 1.11499 0
M  V30 2307 C 221.483 -1.83403 0.865512 0
M  V30 2308 C 221.816 -1.84459 -0.607329 0
M  V30 2309 O 221.091 -1.29811 -1.44842 0
M  V30 2310 C 221.374 -3.30552 1.42855 0
M  V30 2311 C 221.227 -3.37886 2.96906 0
M  V30 2312 C 222.546 -4.26643 1.08 0
M  V30 2313 H 219.665 -0.665879 0.31587 0
M  V30 2314 H 222.307 -1.30601 1.37998 0
M  V30 2315 H 220.457 -3.75648 0.990985 0
M  V30 2316 H 222.129 -3.01343 3.49271 0
M  V30 2317 H 220.372 -2.78088 3.32941 0
M  V30 2318 H 221.043 -4.41458 3.31389 0
M  V30 2319 H 223.519 -3.89729 1.45775 0
M  V30 2320 H 222.395 -5.27986 1.50072 0
M  V30 2321 H 222.656 -4.42099 -0.00915037 0
M  V30 2322 N 221.715 -0.905404 -1.28997 0
M  V30 2323 C 222.962 -0.534248 -1.95325 0
M  V30 2324 C 223.29 0.920535 -1.71337 0
M  V30 2325 O 222.545 1.66861 -1.02254 0
M  V30 2326 C 222.844 -0.779906 -3.48787 0
M  V30 2327 C 222.51 -2.21293 -3.92861 0
M  V30 2328 C 221.172 -2.60475 -4.04606 0
M  V30 2329 C 223.524 -3.14587 -4.15553 0
M  V30 2330 C 220.852 -3.9212 -4.36416 0
M  V30 2331 C 223.204 -4.45787 -4.48839 0
M  V30 2332 C 221.868 -4.84834 -4.58794 0
M  V30 2333 H 221.138 -0.195495 -0.714747 0
M  V30 2334 H 223.785 -1.14514 -1.53488 0
M  V30 2335 H 222.09 -0.0861365 -3.91705 0
M  V30 2336 H 223.787 -0.472029 -3.98212 0
M  V30 2337 H 220.377 -1.89887 -3.84241 0
M  V30 2338 H 224.561 -2.85528 -4.0594 0
M  V30 2339 H 219.817 -4.22086 -4.42327 0
M  V30 2340 H 223.991 -5.18098 -4.65346 0
M  V30 2341 H 221.618 -5.86877 -4.83197 0
M  V30 2342 N 223.193 1.4272 -0.668489 0
M  V30 2343 C 224.123 2.335 -0.000100175 0
M  V30 2344 C 225.104 1.50328 0.795964 0
M  V30 2345 O 226.289 1.78949 0.754385 0
M  V30 2346 C 223.419 3.33874 0.956302 0
M  V30 2347 C 222.373 4.27152 0.269278 0
M  V30 2348 C 221.699 5.17684 1.33818 0
M  V30 2349 C 222.999 5.15373 -0.847805 0
M  V30 2350 H 224.693 2.89639 -0.758244 0
M  V30 2351 H 222.239 1.39269 -0.366079 0
M  V30 2352 H 224.192 3.9629 1.43292 0
M  V30 2353 H 222.916 2.76025 1.74579 0
M  V30 2354 H 221.575 3.66123 -0.187042 0
M  V30 2355 H 221.223 4.56165 2.1195 0
M  V30 2356 H 220.923 5.80918 0.883659 0
M  V30 2357 H 222.447 5.82974 1.81586 0
M  V30 2358 H 223.861 5.7151 -0.452681 0
M  V30 2359 H 222.258 5.87407 -1.22773 0
M  V30 2360 H 223.328 4.5415 -1.69929 0
M  V30 2361 N 224.671 0.411399 1.52136 0
M  V30 2362 C 225.918 -0.163645 2.01838 0
M  V30 2363 C 226.246 -1.4495 1.29691 0
M  V30 2364 O 225.501 -1.91725 0.392431 0
M  V30 2365 C 225.8 -0.455872 3.54481 0
M  V30 2366 C 225.466 0.741055 4.44769 0
M  V30 2367 C 224.128 1.06936 4.69167 0
M  V30 2368 C 226.48 1.54075 4.97906 0
M  V30 2369 C 223.808 2.19851 5.43951 0
M  V30 2370 C 226.16 2.66067 5.73926 0
M  V30 2371 C 224.824 2.99381 5.96596 0
M  V30 2372 H 224.094 -0.0598821 0.738576 0
M  V30 2373 H 226.741 0.553283 1.83333 0
M  V30 2374 H 225.046 -1.2544 3.71177 0
M  V30 2375 H 226.743 -0.913802 3.90449 0
M  V30 2376 H 223.333 0.475192 4.25958 0
M  V30 2377 H 227.517 1.30033 4.78963 0
M  V30 2378 H 222.773 2.46006 5.59724 0
M  V30 2379 H 226.947 3.28419 6.14096 0
M  V30 2380 H 224.574 3.86992 6.54325 0
M  V30 2381 N 226.149 -1.5696 0.141893 0
M  V30 2382 C 227.398 -1.95135 -0.510427 0
M  V30 2383 C 227.711 -1.02896 -1.66348 0
M  V30 2384 O 228.917 -1.30629 -2.38009 0
M  V30 2385 C 227.373 -3.46876 -0.959427 0
M  V30 2386 C 226.981 -4.47691 0.166419 0
M  V30 2387 C 228.725 -3.93927 -1.58183 0
M  V30 2388 C 226.632 -5.90636 -0.300565 0
M  V30 2389 H 225.562 -0.728494 -0.194454 0
M  V30 2390 H 228.213 -1.8211 0.22542 0
M  V30 2391 H 226.595 -3.55215 -1.75038 0
M  V30 2392 H 227.769 -4.51043 0.94325 0
M  V30 2393 H 226.084 -4.10527 0.696905 0
M  V30 2394 H 228.681 -4.98158 -1.94275 0
M  V30 2395 H 229.024 -3.3519 -2.46888 0
M  V30 2396 H 229.557 -3.88484 -0.855863 0
M  V30 2397 H 226.296 -6.5318 0.550989 0
M  V30 2398 H 225.816 -5.90655 -1.04338 0
M  V30 2399 H 227.495 -6.42588 -0.754265 0
M  V30 2400 N 227.627 0.131896 -1.57047 0
M  V30 2401 C 228.557 1.16384 -2.02428 0
M  V30 2402 C 229.538 1.43936 -0.90644 0
M  V30 2403 O 230.723 1.54599 -1.17528 0
M  V30 2404 C 227.853 2.49328 -2.4177 0
M  V30 2405 C 226.807 2.36266 -3.56879 0
M  V30 2406 C 226.133 3.74057 -3.8208 0
M  V30 2407 C 227.433 1.834 -4.89042 0
M  V30 2408 H 229.127 0.786433 -2.88887 0
M  V30 2409 H 226.673 0.376855 -1.38981 0
M  V30 2410 H 228.626 3.21759 -2.7212 0
M  V30 2411 H 227.35 2.88934 -1.52266 0
M  V30 2412 H 226.009 1.66286 -3.26718 0
M  V30 2413 H 225.657 4.11125 -2.89803 0
M  V30 2414 H 225.357 3.66174 -4.59554 0
M  V30 2415 H 226.881 4.48012 -4.1487 0
M  V30 2416 H 228.295 2.45636 -5.18011 0
M  V30 2417 H 226.692 1.8637 -5.70426 0
M  V30 2418 H 227.762 0.790662 -4.7841 0
M  V30 2419 N 229.106 1.52395 0.401703 0
M  V30 2420 C 230.354 1.66488 1.14569 0
M  V30 2421 C 230.675 0.400897 1.90835 0
M  V30 2422 O 229.945 -0.584415 1.8698 0
M  V30 2423 H 228.525 0.613672 0.425929 0
M  V30 2424 H 231.187 1.89464 0.457093 0
M  V30 2425 H 230.283 2.50942 1.85566 0
M  V30 2426 N 230.584 -0.659388 1.43143 0
M  V30 2427 C 231.517 -1.78425 1.42267 0
M  V30 2428 C 232.495 -1.60085 0.284894 0
M  V30 2429 O 233.679 -1.82351 0.477527 0
M  V30 2430 C 230.806 -3.15642 1.22833 0
M  V30 2431 C 229.852 -3.52698 2.39806 0
M  V30 2432 S 230.685 -3.53372 4.02353 0
M  V30 2433 C 231.841 -4.93256 3.85291 0
M  V30 2434 H 232.074 -1.78897 2.37452 0
M  V30 2435 H 229.607 -0.831469 1.301 0
M  V30 2436 H 231.565 -3.94838 1.12308 0
M  V30 2437 H 230.226 -3.12739 0.29207 0
M  V30 2438 H 229.419 -4.52475 2.21996 0
M  V30 2439 H 229.021 -2.80899 2.46925 0
M  V30 2440 H 231.313 -5.81751 3.47235 0
M  V30 2441 H 232.256 -5.16115 4.84799 0
M  V30 2442 H 232.664 -4.665 3.17865 0
M  V30 2443 N 232.062 -1.29571 -0.897171 0
M  V30 2444 C 233.31 -1.17456 -1.64464 0
M  V30 2445 C 233.631 0.273698 -1.9307 0
M  V30 2446 O 232.901 1.18684 -1.55855 0
M  V30 2447 H 231.481 -0.431706 -0.609622 0
M  V30 2448 H 234.143 -1.62531 -1.07562 0
M  V30 2449 H 233.239 -1.72648 -2.59998 0
M  V30 2450 N 233.54 1.10788 -1.12088 0
M  V30 2451 C 234.789 1.82036 -0.868659 0
M  V30 2452 C 235.102 1.85929 0.607426 0
M  V30 2453 O 236.308 2.53346 0.97613 0
M  V30 2454 C 234.764 3.26951 -1.50435 0
M  V30 2455 C 234.372 3.31367 -3.01496 0
M  V30 2456 C 236.116 4.03053 -1.33225 0
M  V30 2457 C 234.023 4.7072 -3.58017 0
M  V30 2458 H 232.953 0.682108 -0.321318 0
M  V30 2459 H 235.604 1.24618 -1.34694 0
M  V30 2460 H 233.986 3.84343 -0.953735 0
M  V30 2461 H 235.16 2.83819 -3.6302 0
M  V30 2462 H 233.475 2.6875 -3.18061 0
M  V30 2463 H 236.072 5.05981 -1.72878 0
M  V30 2464 H 236.415 4.15387 -0.275529 0
M  V30 2465 H 236.948 3.52066 -1.85188 0
M  V30 2466 H 233.687 4.63585 -4.63432 0
M  V30 2467 H 233.207 5.1865 -3.01268 0
M  V30 2468 H 234.886 5.39685 -3.56859 0
M  V30 2469 N 235.018 0.912232 1.28515 0
M  V30 2470 C 235.966 0.389597 2.29314 0
M  V30 2471 C 236.96 -0.517915 1.61289 0
M  V30 2472 O 238.166 -0.399328 1.75515 0
M  V30 2473 H 234.541 0.107386 0.744293 0
M  V30 2474 H 236.512 1.25286 2.70825 0
M  V30 2475 C 235.261 -0.356496 3.45868 0
M  V30 2476 H 234.584 0.332608 3.98414 0
M  V30 2477 H 236.024 -0.686851 4.184 0
M  V30 2478 C 234.483 -1.56383 2.98406 0
M  V30 2479 O 235.013 -2.66294 3.00749 0
M  V30 2480 N 233.219 -1.41029 2.54085 0
M  V30 2481 H 232.766 -0.516089 2.52377 0
M  V30 2482 H 232.724 -2.21939 2.22689 0
M  V30 2483 N 236.496 -1.42363 0.676048 0
M  V30 2484 C 237.745 -2.00745 0.196037 0
M  V30 2485 C 238.058 -1.54083 -1.20489 0
M  V30 2486 O 239.264 -2.04891 -1.78134 0
M  V30 2487 C 237.72 -3.58651 0.299616 0
M  V30 2488 C 237.328 -4.143 1.70468 0
M  V30 2489 C 239.072 -4.24326 -0.121619 0
M  V30 2490 C 236.979 -5.64574 1.76096 0
M  V30 2491 H 235.909 -0.750787 0.0695301 0
M  V30 2492 H 238.56 -1.63072 0.841412 0
M  V30 2493 H 236.942 -3.93833 -0.413673 0
M  V30 2494 H 238.116 -3.90575 2.44515 0
M  V30 2495 H 236.431 -3.61081 2.07387 0
M  V30 2496 H 239.028 -5.34607 -0.0997362 0
M  V30 2497 H 239.371 -3.99897 -1.15708 0
M  V30 2498 H 239.904 -3.94108 0.540706 0
M  V30 2499 H 236.643 -5.93804 2.77628 0
M  V30 2500 H 236.163 -5.90286 1.06406 0
M  V30 2501 H 237.842 -6.29013 1.51496 0
M  V30 2502 N 237.974 -0.419461 -1.51915 0
M  V30 2503 C 238.924 0.418496 -2.24126 0
M  V30 2504 C 239.908 1.00495 -1.25656 0
M  V30 2505 O 241.1 0.926058 -1.50842 0
M  V30 2506 C 238.229 1.52899 -3.07371 0
M  V30 2507 C 237.315 0.952797 -4.13258 0
M  V30 2508 N 237.706 0.104175 -5.05693 0
M  V30 2509 C 236.004 1.22224 -4.28926 0
M  V30 2510 C 236.705 -0.21752 -5.81293 0
M  V30 2511 N 235.681 0.394293 -5.42168 0
M  V30 2512 H 239.483 -0.236048 -2.92951 0
M  V30 2513 H 236.997 -0.230481 -1.60756 0
M  V30 2514 H 238.994 2.14199 -3.57665 0
M  V30 2515 H 237.654 2.18605 -2.40088 0
M  V30 2516 H 238.665 -0.260924 -5.17242 0
M  V30 2517 H 235.342 1.87812 -3.72871 0
M  V30 2518 H 236.732 -0.906992 -6.6575 0
M  V30 2519 N 239.452 1.56882 -0.150215 0
M  V30 2520 C 240.677 2.01027 0.510184 0
M  V30 2521 C 241.102 1.02966 1.57415 0
M  V30 2522 O 240.46 0.00590158 1.81299 0
M  V30 2523 C 240.508 3.43899 1.08472 0
M  V30 2524 O 239.612 3.4885 2.19948 0
M  V30 2525 H 238.953 0.652233 0.124451 0
M  V30 2526 H 241.483 2.03093 -0.247894 0
M  V30 2527 H 241.493 3.82766 1.41259 0
M  V30 2528 H 240.168 4.14776 0.305582 0
M  V30 2529 H 238.745 3.21827 1.88366 0
M  V30 2530 N 240.93 -0.123565 1.57115 0
M  V30 2531 C 242.207 -0.862196 1.75572 0
M  V30 2532 C 242.587 -1.98279 0.724475 0
M  V30 2533 O 241.935 -2.27102 -0.252407 0
M  V30 2534 C 242.145 -1.38309 3.20424 0
M  V30 2535 C 243.493 -1.83724 3.82793 0
M  V30 2536 O 244.517 -1.47999 3.23998 0
M  V30 2537 O 243.376 -2.49685 4.86127 0
M  V30 2538 H 240.47 -0.409113 0.718718 0
M  V30 2539 H 243.016 -0.107661 1.69358 0
M  V30 2540 H 241.788 -0.578889 3.86994 0
M  V30 2541 H 241.411 -2.20046 3.31158 0
M  V30 2542 N 242.408 -1.52605 -0.393616 0
M  V30 2543 C 243.638 -1.71046 -1.15874 0
M  V30 2544 C 244.046 -0.426483 -1.84331 0
M  V30 2545 O 243.389 0.608513 -1.73329 0
M  V30 2546 C 243.451 -2.80118 -2.25332 0
M  V30 2547 C 243.115 -4.21381 -1.76881 0
M  V30 2548 C 244.112 -5.04697 -1.24808 0
M  V30 2549 C 241.797 -4.67683 -1.83244 0
M  V30 2550 C 243.791 -6.32393 -0.797387 0
M  V30 2551 C 241.478 -5.95364 -1.37787 0
M  V30 2552 C 242.476 -6.77549 -0.861208 0
M  V30 2553 O 242.164 -8.02837 -0.413252 0
M  V30 2554 H 241.896 -0.576155 -0.353583 0
M  V30 2555 H 244.45 -2.00018 -0.467123 0
M  V30 2556 H 242.68 -2.46557 -2.97904 0
M  V30 2557 H 244.369 -2.87006 -2.87023 0
M  V30 2558 H 245.135 -4.70111 -1.19252 0
M  V30 2559 H 241.014 -4.03805 -2.22401 0
M  V30 2560 H 244.558 -6.9649 -0.393437 0
M  V30 2561 H 240.455 -6.29455 -1.43026 0
M  V30 2562 H 241.223 -8.16749 -0.53515 0
M  V30 2563 N 243.887 0.651787 -1.4349 0
M  V30 2564 C 245.136 1.40754 -1.44469 0
M  V30 2565 C 245.449 1.95463 -0.0731845 0
M  V30 2566 O 246.655 2.71471 0.0395721 0
M  V30 2567 C 245.111 2.54735 -2.5424 0
M  V30 2568 C 244.719 2.06628 -3.97504 0
M  V30 2569 C 246.463 3.32092 -2.64414 0
M  V30 2570 C 244.37 3.17829 -4.98737 0
M  V30 2571 H 243.3 0.528862 -0.53742 0
M  V30 2572 H 245.951 0.703365 -1.69485 0
M  V30 2573 H 244.333 3.2763 -2.22428 0
M  V30 2574 H 245.507 1.40734 -4.38783 0
M  V30 2575 H 243.822 1.42146 -3.91387 0
M  V30 2576 H 246.419 4.14952 -3.37223 0
M  V30 2577 H 246.762 3.80217 -1.69532 0
M  V30 2578 H 247.295 2.66279 -2.95534 0
M  V30 2579 H 244.034 2.74671 -5.95177 0
M  V30 2580 H 243.554 3.82429 -4.62069 0
M  V30 2581 H 245.233 3.82937 -5.21505 0
M  V30 2582 N 245.365 1.30045 0.890287 0
M  V30 2583 C 246.295 1.18541 2.01172 0
M  V30 2584 C 247.276 0.0773356 1.69924 0
M  V30 2585 O 248.461 0.25845 1.92473 0
M  V30 2586 C 245.591 0.870941 3.36202 0
M  V30 2587 C 244.545 1.93637 3.81692 0
M  V30 2588 C 243.871 1.475 5.13953 0
M  V30 2589 C 245.171 3.34666 4.00994 0
M  V30 2590 H 246.865 2.12359 2.11054 0
M  V30 2591 H 244.411 1.02238 1.01407 0
M  V30 2592 H 246.364 0.777141 4.14172 0
M  V30 2593 H 245.088 -0.102926 3.26438 0
M  V30 2594 H 243.747 2.01972 3.05946 0
M  V30 2595 H 243.395 0.489551 5.00612 0
M  V30 2596 H 243.095 2.1876 5.4536 0
M  V30 2597 H 244.619 1.39489 5.94454 0
M  V30 2598 H 246.033 3.2912 4.69417 0
M  V30 2599 H 244.43 4.03966 4.43769 0
M  V30 2600 H 245.5 3.76949 3.05021 0
M  V30 2601 N 246.843 -1.10192 1.12674 0
M  V30 2602 C 248.259 -1.34235 0.863317 0
M  V30 2603 C 248.459 -1.95062 -0.505277 0
M  V30 2604 O 247.515 -2.19192 -1.25345 0
M  V30 2605 C 248.828 -2.2616 1.98172 0
M  V30 2606 C 250.376 -2.3969 2.0129 0
M  V30 2607 C 250.851 -3.34946 3.1237 0
M  V30 2608 N 252.342 -3.42515 3.11829 0
M  V30 2609 C 253.077 -4.16199 3.94419 0
M  V30 2610 N 252.573 -4.92747 4.87004 0
M  V30 2611 N 254.366 -4.11843 3.82547 0
M  V30 2612 H 246.517 -0.690798 2.00853 0
M  V30 2613 H 248.78 -0.366774 0.874174 0
M  V30 2614 H 248.486 -1.8868 2.96804 0
M  V30 2615 H 248.36 -3.26488 1.88906 0
M  V30 2616 H 250.747 -2.76438 1.03276 0
M  V30 2617 H 250.828 -1.39169 2.14629 0
M  V30 2618 H 250.472 -2.98923 4.10619 0
M  V30 2619 H 250.402 -4.35353 2.96269 0
M  V30 2620 H 252.893 -2.87926 2.44759 0
M  V30 2621 H 253.206 -5.46376 5.46528 0
M  V30 2622 H 251.551 -4.91862 4.91016 0
M  V30 2623 H 254.742 -3.51136 3.0955 0
M  V30 2624 H 254.915 -4.69007 4.47142 0
M  V30 2625 N 248.321 -0.919034 -1.28029 0
M  V30 2626 C 249.253 -0.368762 -2.26214 0
M  V30 2627 C 250.266 0.495716 -1.55069 0
M  V30 2628 O 251.455 0.30974 -1.75792 0
M  V30 2629 C 248.555 0.491049 -3.35324 0
M  V30 2630 C 247.728 -0.352133 -4.3598 0
M  V30 2631 C 246.787 0.443622 -5.24327 0
M  V30 2632 O 245.813 -0.14566 -5.69014 0
M  V30 2633 N 247.015 1.74545 -5.53637 0
M  V30 2634 H 249.78 -1.21273 -2.74068 0
M  V30 2635 H 247.341 -0.785541 -1.41566 0
M  V30 2636 H 249.333 1.03026 -3.91366 0
M  V30 2637 H 247.903 1.23574 -2.87138 0
M  V30 2638 H 247.123 -1.07269 -3.79324 0
M  V30 2639 H 248.411 -0.928883 -5.00249 0
M  V30 2640 H 247.809 2.24666 -5.19174 0
M  V30 2641 H 246.366 2.23138 -6.12416 0
M  V30 2642 N 249.799 1.42003 -0.683588 0
M  V30 2643 C 250.729 2.33487 -0.024866 0
M  V30 2644 C 251.71 1.51163 0.779975 0
M  V30 2645 O 252.895 1.79739 0.735362 0
M  V30 2646 C 250.025 3.3487 0.920836 0
M  V30 2647 C 248.979 4.27414 0.223958 0
M  V30 2648 C 248.305 5.19074 1.2832 0
M  V30 2649 C 249.605 5.14445 -0.90242 0
M  V30 2650 H 251.299 2.88819 -0.788921 0
M  V30 2651 H 248.845 1.38873 -0.38083 0
M  V30 2652 H 250.798 3.97787 1.39081 0
M  V30 2653 H 249.522 2.77861 1.71642 0
M  V30 2654 H 248.181 3.65904 -0.225864 0
M  V30 2655 H 247.829 4.58387 2.071 0
M  V30 2656 H 247.529 5.81822 0.821995 0
M  V30 2657 H 249.053 5.84867 1.75392 0
M  V30 2658 H 250.467 5.70998 -0.513272 0
M  V30 2659 H 248.864 5.86072 -1.28997 0
M  V30 2660 H 249.934 4.52322 -1.74737 0
M  V30 2661 N 251.277 0.427512 1.51691 0
M  V30 2662 C 252.693 0.0792977 1.59403 0
M  V30 2663 C 252.893 -1.41035 1.43914 0
M  V30 2664 O 251.949 -2.17922 1.27539 0
M  V30 2665 C 253.262 0.590636 2.94842 0
M  V30 2666 C 254.81 0.550215 3.08126 0
M  V30 2667 C 255.285 1.03836 4.46074 0
M  V30 2668 N 256.776 0.995943 4.52366 0
M  V30 2669 C 257.511 1.34463 5.57411 0
M  V30 2670 N 257.007 1.76569 6.69922 0
M  V30 2671 N 258.8 1.26343 5.47717 0
M  V30 2672 H 250.951 1.39687 1.60004 0
M  V30 2673 H 253.214 0.575003 0.753708 0
M  V30 2674 H 252.92 1.63251 3.11516 0
M  V30 2675 H 252.794 0.0102061 3.77199 0
M  V30 2676 H 255.181 -0.482654 2.91126 0
M  V30 2677 H 255.262 1.16693 2.27632 0
M  V30 2678 H 254.906 2.06965 4.63819 0
M  V30 2679 H 254.836 0.398286 5.25092 0
M  V30 2680 H 257.327 0.68661 3.7161 0
M  V30 2681 H 257.64 2.01438 7.46085 0
M  V30 2682 H 255.985 1.80488 6.71155 0
M  V30 2683 H 259.176 0.933209 4.58703 0
M  V30 2684 H 259.349 1.53846 6.29472 0
M  V30 2685 N 252.755 -1.56801 0.158532 0
M  V30 2686 C 253.702 -2.17337 -0.776729 0
M  V30 2687 C 254.672 -1.1096 -1.23601 0
M  V30 2688 O 255.857 -1.39054 -1.30647 0
M  V30 2689 C 252.997 -2.80822 -2.00582 0
M  V30 2690 C 252.11 -4.01624 -1.59129 0
M  V30 2691 C 251.245 -4.53072 -2.77306 0
M  V30 2692 C 250.284 -5.66314 -2.32282 0
M  V30 2693 N 249.421 -6.12329 -3.43508 0
M  V30 2694 H 254.261 -2.96918 -0.253701 0
M  V30 2695 H 251.798 -1.46661 -0.113504 0
M  V30 2696 H 253.756 -3.15779 -2.72652 0
M  V30 2697 H 252.386 -2.03866 -2.50277 0
M  V30 2698 H 251.438 -3.72571 -0.767806 0
M  V30 2699 H 252.75 -4.83633 -1.2207 0
M  V30 2700 H 251.904 -4.90145 -3.57551 0
M  V30 2701 H 250.643 -3.70095 -3.17617 0
M  V30 2702 H 249.648 -5.28806 -1.5048 0
M  V30 2703 H 250.873 -6.51085 -1.93043 0
M  V30 2704 H 248.819 -5.32284 -3.83418 0
M  V30 2705 H 248.736 -6.89293 -3.105 0
M  V30 2706 H 250.004 -6.5405 -4.24075 0
M  V30 2707 N 254.233 0.115231 -1.57178 0
M  V30 2708 C 255.644 0.67197 -1.74188 0
M  V30 2709 C 255.995 1.80125 -0.777777 0
M  V30 2710 O 255.12 2.16346 0.0484376 0
M  V30 2711 C 255.715 1.22573 -3.1585 0
M  V30 2712 C 254.274 1.72872 -3.34353 0
M  V30 2713 C 253.421 0.629972 -2.70049 0
M  V30 2714 H 256.372 -0.110712 -1.58313 0
M  V30 2715 H 256.393 2.09535 -3.17609 0
M  V30 2716 H 255.905 0.403598 -3.85996 0
M  V30 2717 H 254.006 2.5755 -2.69256 0
M  V30 2718 H 254.119 1.83557 -4.42542 0
M  V30 2719 H 252.483 1.0645 -2.31388 0
M  V30 2720 H 253.266 -0.181241 -3.42821 0
M  V30 2721 N 255.711 1.52812 0.385517 0
M  V30 2722 C 256.959 1.67694 1.12797 0
M  V30 2723 C 257.28 0.421115 1.90399 0
M  V30 2724 O 256.55 -0.564551 1.87589 0
M  V30 2725 H 255.13 0.618155 0.419396 0
M  V30 2726 H 257.792 1.89938 0.436972 0
M  V30 2727 H 256.888 2.52896 1.82894 0
M  V30 2728 N 257.189 -0.644168 1.43834 0
M  V30 2729 C 258.099 -1.78563 1.52159 0
M  V30 2730 C 259.115 -1.69147 0.408069 0
M  V30 2731 O 260.291 -1.90156 0.663524 0
M  V30 2732 C 257.356 -3.14888 1.45073 0
M  V30 2733 C 256.417 -3.36034 2.6717 0
M  V30 2734 C 255.65 -4.65855 2.60413 0
M  V30 2735 O 255.873 -5.45805 1.65689 0
M  V30 2736 O 254.807 -4.88918 3.5106 0
M  V30 2737 H 258.633 -1.74494 2.48567 0
M  V30 2738 H 256.218 -0.80378 1.25935 0
M  V30 2739 H 258.1 -3.96179 1.43597 0
M  V30 2740 H 256.775 -3.19528 0.518037 0
M  V30 2741 H 255.682 -2.54472 2.74217 0
M  V30 2742 H 257.015 -3.36247 3.59442 0
M  V30 2743 N 258.668 -1.30515 -0.883378 0
M  V30 2744 C 259.917 -1.18795 -1.63005 0
M  V30 2745 C 260.23 0.255923 -1.93919 0
M  V30 2746 O 261.436 0.494654 -2.66956 0
M  V30 2747 C 259.892 -2.07878 -2.93794 0
M  V30 2748 C 259.5 -3.57184 -2.70414 0
M  V30 2749 C 261.244 -2.04924 -3.71761 0
M  V30 2750 C 259.151 -4.38317 -3.97029 0
M  V30 2751 H 258.081 -0.441031 -0.611562 0
M  V30 2752 H 260.732 -1.55275 -0.977854 0
M  V30 2753 H 259.114 -1.64283 -3.60315 0
M  V30 2754 H 260.288 -4.08937 -2.12384 0
M  V30 2755 H 258.603 -3.61976 -2.0582 0
M  V30 2756 H 261.2 -2.62792 -4.65665 0
M  V30 2757 H 261.543 -1.0331 -4.03277 0
M  V30 2758 H 262.076 -2.46649 -3.12104 0
M  V30 2759 H 258.815 -5.40632 -3.70671 0
M  V30 2760 H 258.335 -3.91326 -4.54559 0
M  V30 2761 H 260.014 -4.49834 -4.65036 0
M  V30 2762 N 260.146 1.09593 -1.13257 0
M  V30 2763 C 261.371 1.8604 -0.916732 0
M  V30 2764 C 261.796 1.80504 0.529146 0
M  V30 2765 O 261.154 1.18127 1.37534 0
M  V30 2766 C 261.202 3.32017 -1.40703 0
M  V30 2767 O 260.306 4.08141 -0.591153 0
M  V30 2768 H 259.647 0.576943 -0.328683 0
M  V30 2769 H 262.177 1.38405 -1.50682 0
M  V30 2770 H 262.187 3.82865 -1.4099 0
M  V30 2771 H 260.862 3.35361 -2.45979 0
M  V30 2772 H 259.439 3.67084 -0.656005 0
M  V30 2773 N 261.624 0.925811 1.2754 0
M  V30 2774 C 262.854 0.580666 1.98272 0
M  V30 2775 C 263.262 -0.845207 1.69272 0
M  V30 2776 O 262.605 -1.57306 0.948707 0
M  V30 2777 C 262.667 0.724418 3.52126 0
M  V30 2778 C 262.331 2.12206 4.04744 0
M  V30 2779 C 263.328 3.09604 4.17662 0
M  V30 2780 C 261.013 2.4385 4.39138 0
M  V30 2781 C 263.007 4.36755 4.64246 0
M  V30 2782 C 260.694 3.71237 4.85414 0
M  V30 2783 C 261.692 4.67503 4.97926 0
M  V30 2784 O 261.38 5.92624 5.43187 0
M  V30 2785 H 261.112 0.218987 0.639547 0
M  V30 2786 H 263.666 1.24452 1.63404 0
M  V30 2787 H 261.896 0.0034663 3.867 0
M  V30 2788 H 263.585 0.384607 4.04074 0
M  V30 2789 H 264.351 2.86478 3.91351 0
M  V30 2790 H 260.23 1.69665 4.28643 0
M  V30 2791 H 263.774 5.11898 4.73927 0
M  V30 2792 H 259.671 3.94182 5.11166 0
M  V30 2793 H 260.439 5.95585 5.61445 0
M  V30 2794 N 263.102 -1.41638 0.69111 0
M  V30 2795 C 264.518 -1.55435 0.362224 0
M  V30 2796 C 264.718 -1.66754 -1.13117 0
M  V30 2797 O 263.774 -1.64348 -1.91692 0
M  V30 2798 C 265.087 -2.79588 1.10684 0
M  V30 2799 C 266.635 -2.9338 1.09075 0
M  V30 2800 C 267.11 -4.20414 1.81703 0
M  V30 2801 N 268.601 -4.27362 1.7865 0
M  V30 2802 C 269.336 -5.24507 2.31689 0
M  V30 2803 N 268.832 -6.27708 2.93179 0
M  V30 2804 N 270.625 -5.16416 2.2197 0
M  V30 2805 H 262.776 -1.32536 1.65976 0
M  V30 2806 H 265.039 -0.639115 0.700168 0
M  V30 2807 H 264.745 -2.77419 2.16175 0
M  V30 2808 H 264.619 -3.70973 0.682545 0
M  V30 2809 H 267.006 -2.95067 0.0441238 0
M  V30 2810 H 267.087 -2.0318 1.55407 0
M  V30 2811 H 266.731 -4.19488 2.86343 0
M  V30 2812 H 266.661 -5.09578 1.32808 0
M  V30 2813 H 269.152 -3.53415 1.33815 0
M  V30 2814 H 269.465 -6.98217 3.31229 0
M  V30 2815 H 267.81 -6.28223 2.97255 0
M  V30 2816 H 271.001 -4.34716 1.73607 0
M  V30 2817 H 271.174 -5.91958 2.63609 0
M  V30 2818 N 264.58 -0.43555 -1.51462 0
M  V30 2819 C 265.829 0.133007 -2.01261 0
M  V30 2820 C 266.142 1.43942 -1.32439 0
M  V30 2821 O 267.348 2.09081 -1.73198 0
M  V30 2822 C 265.804 0.287581 -3.58749 0
M  V30 2823 C 265.412 -1.00829 -4.36506 0
M  V30 2824 C 267.156 0.810004 -4.167 0
M  V30 2825 C 265.063 -0.819454 -5.85695 0
M  V30 2826 H 263.993 0.0534822 -0.752101 0
M  V30 2827 H 266.644 -0.565038 -1.74584 0
M  V30 2828 H 265.026 1.04859 -3.81865 0
M  V30 2829 H 266.2 -1.77749 -4.25138 0
M  V30 2830 H 264.515 -1.45911 -3.89999 0
M  V30 2831 H 267.112 0.967743 -5.2587 0
M  V30 2832 H 267.455 1.79196 -3.75758 0
M  V30 2833 H 267.988 0.107357 -3.97655 0
M  V30 2834 H 264.727 -1.77374 -6.31046 0
M  V30 2835 H 264.247 -0.0900208 -5.99732 0
M  V30 2836 H 265.926 -0.471949 -6.45276 0
M  V30 2837 N 266.058 1.56714 -0.166846 0
M  V30 2838 C 267.469 1.83378 0.350646 0
M  V30 2839 C 267.82 1.08646 1.63372 0
M  V30 2840 O 266.945 0.338058 2.13743 0
M  V30 2841 C 267.54 3.32643 0.642963 0
M  V30 2842 C 266.099 3.59818 1.10491 0
M  V30 2843 C 265.246 2.76954 0.138411 0
M  V30 2844 H 268.197 1.53803 -0.391193 0
M  V30 2845 H 268.218 3.49878 1.49551 0
M  V30 2846 H 267.73 3.87007 -0.291055 0
M  V30 2847 H 265.831 3.1086 2.05418 0
M  V30 2848 H 265.944 4.68178 1.01716 0
M  V30 2849 H 264.308 2.4666 0.634911 0
M  V30 2850 H 265.091 3.34097 -0.789549 0
M  V30 2851 N 267.536 -0.106894 1.57237 0
M  V30 2852 C 268.468 -1.15646 1.97885 0
M  V30 2853 C 269.481 -1.36981 0.879779 0
M  V30 2854 O 270.67 -1.35841 1.15799 0
M  V30 2855 C 267.77 -2.51425 2.27241 0
M  V30 2856 C 266.943 -2.50529 3.58545 0
M  V30 2857 C 266.002 -3.68145 3.75973 0
M  V30 2858 O 265.028 -3.51176 4.47956 0
M  V30 2859 N 266.23 -4.87177 3.15656 0
M  V30 2860 H 268.995 -0.81059 2.8853 0
M  V30 2861 H 266.556 -0.296024 1.59171 0
M  V30 2862 H 268.548 -3.28689 2.36105 0
M  V30 2863 H 267.118 -2.78147 1.42663 0
M  V30 2864 H 266.338 -1.58894 3.60758 0
M  V30 2865 H 267.626 -2.46997 4.44826 0
M  V30 2866 H 267.024 -5.03868 2.57165 0
M  V30 2867 H 265.581 -5.62075 3.30023 0
M  V30 2868 N 269.014 -1.53014 -0.377408 0
M  V30 2869 C 270.262 -1.6829 -1.11906 0
M  V30 2870 C 270.583 -0.431206 -1.90173 0
M  V30 2871 O 269.853 0.554595 -1.87886 0
M  V30 2872 H 268.433 -0.620371 -0.416112 0
M  V30 2873 H 271.095 -1.90167 -0.426893 0
M  V30 2874 H 270.191 -2.53862 -1.8155 0
M  V30 2875 N 270.492 0.636531 -1.44174 0
M  V30 2876 C 271.74 1.39343 -1.46383 0
M  V30 2877 C 272.061 1.94766 -0.0955715 0
M  V30 2878 O 271.331 1.75452 0.871395 0
M  V30 2879 H 269.911 0.517199 -0.538994 0
M  V30 2880 H 272.573 0.74957 -1.7991 0
M  V30 2881 H 271.669 2.22746 -2.18611 0
M  V30 2882 N 271.97 1.30982 0.876444 0
M  V30 2883 C 272.9 1.20668 1.99903 0
M  V30 2884 C 273.881 0.095354 1.69833 0
M  V30 2885 O 275.066 0.27885 1.92188 0
M  V30 2886 C 272.196 0.90655 3.3526 0
M  V30 2887 C 271.15 1.97675 3.79617 0
M  V30 2888 C 270.476 1.52943 5.1236 0
M  V30 2889 C 271.776 3.389 3.97422 0
M  V30 2890 H 273.47 2.14586 2.0879 0
M  V30 2891 H 271.016 1.03308 1.00317 0
M  V30 2892 H 272.969 0.821025 4.13324 0
M  V30 2893 H 271.693 -0.0682969 3.26529 0
M  V30 2894 H 270.352 2.05205 3.03787 0
M  V30 2895 H 270 0.54262 5.00065 0
M  V30 2896 H 269.7 2.24532 5.43009 0
M  V30 2897 H 271.224 1.45786 5.92941 0
M  V30 2898 H 272.638 3.34081 4.659 0
M  V30 2899 H 271.035 4.0865 4.3946 0
M  V30 2900 H 272.105 3.80163 3.01006 0
M  V30 2901 N 273.449 -1.08991 1.13837 0
M  V30 2902 C 274.696 -1.81258 0.902882 0
M  V30 2903 C 275.024 -1.85936 -0.570803 0
M  V30 2904 O 274.279 -1.3267 -1.43865 0
M  V30 2905 C 274.578 -3.27042 1.44147 0
M  V30 2906 C 274.244 -3.4249 2.93276 0
M  V30 2907 C 272.906 -3.46414 3.33992 0
M  V30 2908 C 275.258 -3.4666 3.892 0
M  V30 2909 C 272.586 -3.52091 4.69307 0
M  V30 2910 C 274.938 -3.53872 5.24364 0
M  V30 2911 C 273.602 -3.56066 5.646 0
M  V30 2912 H 272.872 -0.663268 0.330388 0
M  V30 2913 H 275.519 -1.28368 1.42105 0
M  V30 2914 H 273.824 -3.82599 0.844097 0
M  V30 2915 H 275.521 -3.81499 1.23528 0
M  V30 2916 H 272.111 -3.40124 2.60794 0
M  V30 2917 H 276.295 -3.42865 3.58828 0
M  V30 2918 H 271.551 -3.52079 4.9985 0
M  V30 2919 H 275.725 -3.56043 5.98503 0
M  V30 2920 H 273.352 -3.60218 6.69438 0
M  V30 2921 N 274.927 -0.932562 -1.27047 0
M  V30 2922 C 276.155 -0.592031 -1.98249 0
M  V30 2923 C 276.57 0.831062 -1.69525 0
M  V30 2924 O 275.927 1.55299 -0.958561 0
M  V30 2925 C 275.978 -0.814279 -3.5221 0
M  V30 2926 O 275.699 -2.18139 -3.7993 0
M  V30 2927 C 277.2 -0.483121 -4.4066 0
M  V30 2928 H 274.42 -0.223896 -0.632544 0
M  V30 2929 H 276.964 -1.25091 -1.61779 0
M  V30 2930 H 275.119 -0.20213 -3.86872 0
M  V30 2931 H 275.533 -2.235 -4.74498 0
M  V30 2932 H 277.007 -0.689298 -5.47679 0
M  V30 2933 H 277.484 0.581546 -4.35333 0
M  V30 2934 H 278.09 -1.07362 -4.11526 0
M  V30 2935 N 276.405 1.4127 -0.698611 0
M  V30 2936 C 277.635 2.05205 -0.239644 0
M  V30 2937 C 278.043 1.52684 1.11733 0
M  V30 2938 O 277.386 0.671222 1.70998 0
M  V30 2939 C 277.448 3.59289 -0.123126 0
M  V30 2940 C 277.112 4.34619 -1.41263 0
M  V30 2941 C 278.109 4.63701 -2.35111 0
M  V30 2942 C 275.794 4.73837 -1.66684 0
M  V30 2943 C 277.788 5.30966 -3.52639 0
M  V30 2944 C 275.475 5.40837 -2.84498 0
M  V30 2945 C 276.473 5.69329 -3.77298 0
M  V30 2946 O 276.161 6.34949 -4.93047 0
M  V30 2947 H 275.893 0.66723 -0.108537 0
M  V30 2948 H 278.447 1.81974 -0.952602 0
M  V30 2949 H 276.677 3.81272 0.645628 0
M  V30 2950 H 278.366 4.04797 0.299056 0
M  V30 2951 H 279.132 4.33882 -2.16729 0
M  V30 2952 H 275.011 4.51039 -0.953135 0
M  V30 2953 H 278.555 5.53121 -4.25091 0
M  V30 2954 H 274.452 5.70075 -3.02795 0
M  V30 2955 H 275.22 6.53445 -4.92902 0
M  V30 2956 N 277.883 0.443576 1.51229 0
M  V30 2957 C 279.129 -0.120975 2.02439 0
M  V30 2958 C 279.462 -1.41815 1.32674 0
M  V30 2959 O 278.737 -1.89373 0.443622 0
M  V30 2960 C 279.02 -0.333291 3.58554 0
M  V30 2961 C 278.873 0.982968 4.38928 0
M  V30 2962 C 280.192 -1.10028 4.26124 0
M  V30 2963 H 277.311 -0.0424923 0.735774 0
M  V30 2964 H 279.953 0.583794 1.80809 0
M  V30 2965 H 278.103 -0.933614 3.77115 0
M  V30 2966 H 279.775 1.61775 4.32003 0
M  V30 2967 H 278.018 1.58611 4.03763 0
M  V30 2968 H 278.689 0.788379 5.46341 0
M  V30 2969 H 281.165 -0.591711 4.11871 0
M  V30 2970 H 280.041 -1.21761 5.35225 0
M  V30 2971 H 280.302 -2.12996 3.87408 0
M  V30 2972 N 279.361 -1.56624 0.175154 0
M  V30 2973 C 280.586 -2.01813 -0.478137 0
M  V30 2974 C 281.011 -1.05457 -1.55757 0
M  V30 2975 O 280.369 -0.0347439 -1.81267 0
M  V30 2976 C 280.417 -3.45581 -1.02987 0
M  V30 2977 O 279.521 -3.52305 -2.14371 0
M  V30 2978 H 278.862 -0.65413 -0.114059 0
M  V30 2979 H 281.392 -2.02673 0.280173 0
M  V30 2980 H 281.402 -3.84965 -1.35151 0
M  V30 2981 H 280.077 -4.1521 -0.239556 0
M  V30 2982 H 278.654 -3.24783 -1.83222 0
M  V30 2983 N 280.839 0.0985539 -1.57292 0
M  V30 2984 C 282.087 0.801092 -1.85545 0
M  V30 2985 C 282.408 1.79438 -0.763353 0
M  V30 2986 O 281.678 1.94763 0.21073 0
M  V30 2987 H 280.258 0.29884 -0.684619 0
M  V30 2988 H 282.92 0.0810064 -1.94732 0
M  V30 2989 H 282.016 1.3338 -2.82163 0
M  V30 2990 N 282.317 1.53212 0.369288 0
M  V30 2991 C 283.28 1.7872 1.43498 0
M  V30 2992 C 284.28 0.657554 1.46741 0
M  V30 2993 O 285.47 0.925736 1.47566 0
M  V30 2994 C 282.602 1.90591 2.82645 0
M  V30 2995 H 283.795 2.73894 1.22156 0
M  V30 2996 H 281.348 1.44233 0.602203 0
M  V30 2997 H 282.083 0.974709 3.09306 0
M  V30 2998 H 281.868 2.72751 2.8169 0
M  V30 2999 H 283.358 2.11931 3.59826 0
M  V30 3000 N 283.795 -0.628877 1.44509 0
M  V30 3001 C 284.743 -1.76193 1.51852 0
M  V30 3002 C 285.737 -1.64849 0.390042 0
M  V30 3003 O 286.943 -1.709 0.565082 0
M  V30 3004 H 283.318 -0.581728 0.476547 0
M  V30 3005 H 285.289 -1.67123 2.47209 0
M  V30 3006 C 284.038 -3.14533 1.48204 0
M  V30 3007 H 283.361 -3.23911 2.34354 0
M  V30 3008 H 284.801 -3.93701 1.57402 0
M  V30 3009 C 283.26 -3.36287 0.203142 0
M  V30 3010 O 283.79 -3.9509 -0.725745 0
M  V30 3011 N 281.996 -2.90408 0.105563 0
M  V30 3012 H 281.543 -2.42739 0.862301 0
M  V30 3013 H 281.501 -3.05339 -0.749371 0
M  V30 3014 N 285.273 -1.31445 -0.869486 0
M  V30 3015 C 286.52 -1.21158 -1.62256 0
M  V30 3016 C 286.848 0.230155 -1.93133 0
M  V30 3017 O 286.103 1.17906 -1.56194 0
M  V30 3018 C 286.402 -2.00145 -2.96102 0
M  V30 3019 C 286.068 -3.4964 -2.84715 0
M  V30 3020 C 284.73 -3.90403 -2.81317 0
M  V30 3021 C 287.082 -4.44769 -2.71716 0
M  V30 3022 C 284.41 -5.24561 -2.62778 0
M  V30 3023 C 286.762 -5.79054 -2.54714 0
M  V30 3024 C 285.426 -6.19037 -2.49699 0
M  V30 3025 H 284.696 -0.443348 -0.593737 0
M  V30 3026 H 287.343 -1.62715 -1.00976 0
M  V30 3027 H 285.648 -1.5127 -3.6142 0
M  V30 3028 H 287.345 -1.89566 -3.53363 0
M  V30 3029 H 283.935 -3.17256 -2.88178 0
M  V30 3030 H 288.119 -4.14208 -2.73397 0
M  V30 3031 H 283.375 -5.54613 -2.57321 0
M  V30 3032 H 287.549 -6.52393 -2.43632 0
M  V30 3033 H 285.176 -7.22935 -2.35093 0
M  V30 3034 N 286.751 1.08385 -1.14413 0
M  V30 3035 C 287.681 2.17321 -0.854044 0
M  V30 3036 C 288.662 1.69024 0.191049 0
M  V30 3037 O 289.847 1.94141 0.0476779 0
M  V30 3038 C 286.977 3.45719 -0.330983 0
M  V30 3039 C 285.931 4.07409 -1.31155 0
M  V30 3040 C 285.257 5.30762 -0.64778 0
M  V30 3041 C 286.557 4.48665 -2.67388 0
M  V30 3042 H 288.251 2.41845 -1.76498 0
M  V30 3043 H 285.797 1.16233 -0.850051 0
M  V30 3044 H 287.75 4.21241 -0.115645 0
M  V30 3045 H 286.474 3.2075 0.615381 0
M  V30 3046 H 285.133 3.33919 -1.51306 0
M  V30 3047 H 284.781 5.02078 0.304398 0
M  V30 3048 H 284.481 5.72992 -1.30207 0
M  V30 3049 H 286.005 6.08998 -0.441972 0
M  V30 3050 H 287.419 5.15364 -2.51143 0
M  V30 3051 H 285.816 5.01814 -3.29093 0
M  V30 3052 H 286.886 3.60543 -3.24248 0
M  V30 3053 N 288.23 0.939286 1.26551 0
M  V30 3054 C 289.478 0.58469 1.93457 0
M  V30 3055 C 289.799 -0.878774 1.74076 0
M  V30 3056 O 289.069 -1.62421 1.09528 0
M  V30 3057 H 287.649 0.21325 0.715914 0
M  V30 3058 H 290.311 1.1942 1.54029 0
M  V30 3059 H 289.407 0.800849 3.0165 0
M  V30 3060 N 289.708 -1.40897 0.706093 0
M  V30 3061 C 290.618 -2.3455 0.0482286 0
M  V30 3062 C 291.634 -1.56796 -0.754396 0
M  V30 3063 O 292.81 -1.89228 -0.689538 0
M  V30 3064 C 289.875 -3.35625 -0.869303 0
M  V30 3065 C 288.936 -4.29261 -0.0576994 0
M  V30 3066 C 288.169 -5.25508 -0.931531 0
M  V30 3067 O 288.392 -5.27472 -2.17092 0
M  V30 3068 O 287.326 -6.00727 -0.375587 0
M  V30 3069 H 291.152 -2.92407 0.820476 0
M  V30 3070 H 288.737 -1.4193 0.4665 0
M  V30 3071 H 290.619 -3.97635 -1.39514 0
M  V30 3072 H 289.294 -2.80196 -1.62086 0
M  V30 3073 H 288.201 -3.70566 0.512988 0
M  V30 3074 H 289.534 -4.87817 0.655426 0
M  V30 3075 N 291.186 -0.45159 -1.50991 0
M  V30 3076 C 292.435 0.111653 -2.01391 0
M  V30 3077 C 292.748 1.42529 -1.33959 0
M  V30 3078 O 293.954 2.07232 -1.75405 0
M  V30 3079 C 292.41 0.249514 -3.59034 0
M  V30 3080 C 292.018 -1.05453 -4.35412 0
M  V30 3081 C 293.762 0.765762 -4.17536 0
M  V30 3082 C 291.669 -0.881529 -5.84793 0
M  V30 3083 H 290.599 0.0455022 -0.752626 0
M  V30 3084 H 293.25 -0.583524 -1.73975 0
M  V30 3085 H 291.632 1.00803 -3.82955 0
M  V30 3086 H 292.806 -1.82248 -4.23229 0
M  V30 3087 H 291.121 -1.50039 -3.88429 0
M  V30 3088 H 293.718 0.911913 -5.26866 0
M  V30 3089 H 294.061 1.75201 -3.77638 0
M  V30 3090 H 294.594 0.0651744 -3.97747 0
M  V30 3091 H 291.333 -1.84057 -6.29129 0
M  V30 3092 H 290.853 -0.153625 -5.99603 0
M  V30 3093 H 292.532 -0.540363 -6.4474 0
M  V30 3094 N 292.664 1.56529 -0.183458 0
M  V30 3095 C 293.913 1.96419 0.458511 0
M  V30 3096 C 294.226 1.0727 1.63562 0
M  V30 3097 O 295.432 1.36893 2.34462 0
M  V30 3098 C 293.888 3.49298 0.867122 0
M  V30 3099 C 293.496 4.47092 -0.285057 0
M  V30 3100 C 295.24 3.97983 1.47683 0
M  V30 3101 C 293.147 5.91225 0.143862 0
M  V30 3102 H 292.077 0.733394 0.175071 0
M  V30 3103 H 294.728 1.81448 -0.273624 0
M  V30 3104 H 293.11 3.59731 1.65559 0
M  V30 3105 H 294.284 4.48383 -1.0625 0
M  V30 3106 H 292.599 4.08535 -0.805503 0
M  V30 3107 H 295.196 5.03134 1.80999 0
M  V30 3108 H 295.539 3.41618 2.37914 0
M  V30 3109 H 296.072 3.90617 0.752562 0
M  V30 3110 H 292.811 6.5149 -0.723974 0
M  V30 3111 H 292.331 5.93214 0.886413 0
M  V30 3112 H 294.01 6.44362 0.583628 0
M  V30 3113 N 294.142 -0.090211 1.57342 0
M  V30 3114 C 295.052 -1.12735 2.05738 0
M  V30 3115 C 296.068 -1.43557 0.983231 0
M  V30 3116 O 297.244 -1.54101 1.29672 0
M  V30 3117 C 294.309 -2.42659 2.47624 0
M  V30 3118 C 293.37 -2.18975 3.69254 0
M  V30 3119 C 292.603 -3.42704 4.09133 0
M  V30 3120 O 292.826 -4.51127 3.49057 0
M  V30 3121 O 291.76 -3.32003 5.02053 0
M  V30 3122 H 295.586 -0.746279 2.94388 0
M  V30 3123 H 293.171 -0.303064 1.46294 0
M  V30 3124 H 295.053 -3.19155 2.7517 0
M  V30 3125 H 293.728 -2.80182 1.62109 0
M  V30 3126 H 292.635 -1.40244 3.46818 0
M  V30 3127 H 293.968 -1.86342 4.55563 0
M  V30 3128 N 295.62 -1.53406 -0.361157 0
M  V30 3129 C 296.866 -1.70999 -1.1014 0
M  V30 3130 C 297.221 -0.458425 -1.86859 0
M  V30 3131 O 296.514 0.548654 -1.83577 0
M  V30 3132 C 296.708 -2.90211 -2.08596 0
M  V30 3133 C 296.537 -4.26841 -1.41553 0
M  V30 3134 C 295.307 -4.91621 -1.16778 0
M  V30 3135 C 297.505 -5.07212 -0.850915 0
M  V30 3136 N 295.487 -6.12164 -0.461312 0
M  V30 3137 C 296.858 -6.19394 -0.274046 0
M  V30 3138 C 298.913 -4.92218 -0.750036 0
M  V30 3139 C 297.616 -7.18221 0.393868 0
M  V30 3140 C 299.642 -5.91322 -0.095894 0
M  V30 3141 C 299.004 -7.0283 0.470081 0
M  V30 3142 H 295.103 -0.678939 -0.388028 0
M  V30 3143 H 297.687 -1.90811 -0.38722 0
M  V30 3144 H 295.858 -2.71931 -2.77323 0
M  V30 3145 H 297.59 -2.96606 -2.7533 0
M  V30 3146 H 294.345 -4.50849 -1.45024 0
M  V30 3147 H 294.769 -6.76888 -0.123312 0
M  V30 3148 H 299.411 -4.06192 -1.17337 0
M  V30 3149 H 297.129 -8.03835 0.82914 0
M  V30 3150 H 300.715 -5.81797 -0.0187075 0
M  V30 3151 H 299.595 -7.782 0.968241 0
M  V30 3152 N 297.098 0.621204 -1.44841 0
M  V30 3153 C 298.347 1.37658 -1.47422 0
M  V30 3154 C 298.66 1.95264 -0.114629 0
M  V30 3155 O 299.866 2.71494 -0.0180199 0
M  V30 3156 C 298.322 2.49285 -2.59586 0
M  V30 3157 C 297.93 1.98149 -4.01797 0
M  V30 3158 C 299.674 3.26409 -2.71399 0
M  V30 3159 C 297.581 3.07178 -5.05367 0
M  V30 3160 H 296.511 0.517344 -0.548517 0
M  V30 3161 H 299.162 0.667257 -1.70938 0
M  V30 3162 H 297.544 3.22839 -2.29328 0
M  V30 3163 H 298.718 1.31395 -4.41669 0
M  V30 3164 H 297.033 1.33812 -3.94314 0
M  V30 3165 H 299.63 4.07706 -3.45948 0
M  V30 3166 H 299.973 3.76535 -1.77559 0
M  V30 3167 H 300.506 2.5995 -3.01116 0
M  V30 3168 H 297.245 2.61985 -6.00869 0
M  V30 3169 H 296.765 3.72542 -4.70077 0
M  V30 3170 H 298.444 3.71789 -5.29511 0
M  V30 3171 N 298.576 1.31904 0.862503 0
M  V30 3172 C 299.824 1.21776 1.61292 0
M  V30 3173 C 300.145 -0.222413 1.93727 0
M  V30 3174 O 299.415 -1.1451 1.58947 0
M  V30 3175 H 297.995 0.447717 0.597962 0
M  V30 3176 H 300.657 1.65326 1.03215 0
M  V30 3177 H 299.753 1.7948 2.5533 0
M  V30 3178 N 300.054 -1.07777 1.14986 0
M  V30 3179 C 301.284 -1.83752 0.944402 0
M  V30 3180 C 301.692 -1.8218 -0.51058 0
M  V30 3181 O 301.035 -1.22852 -1.36576 0
M  V30 3182 C 301.097 -3.32128 1.37592 0
M  V30 3183 C 300.761 -3.57425 2.84775 0
M  V30 3184 C 301.758 -3.5173 3.8286 0
M  V30 3185 C 299.443 -3.8523 3.2234 0
M  V30 3186 C 301.437 -3.73482 5.16517 0
M  V30 3187 C 299.124 -4.06634 4.56171 0
M  V30 3188 C 300.122 -4.00754 5.53069 0
M  V30 3189 O 299.81 -4.2159 6.84483 0
M  V30 3190 H 299.542 -0.58673 0.335744 0
M  V30 3191 H 302.096 -1.36982 1.53052 0
M  V30 3192 H 300.326 -3.79686 0.733165 0
M  V30 3193 H 302.015 -3.89555 1.14024 0
M  V30 3194 H 302.781 -3.30256 3.55184 0
M  V30 3195 H 298.66 -3.88923 2.47508 0
M  V30 3196 H 302.204 -3.68808 5.92137 0
M  V30 3197 H 298.101 -4.27593 4.83564 0
M  V30 3198 H 298.869 -4.38961 6.90837 0
M  V30 3199 N 301.532 -0.945985 -1.26051 0
M  V30 3200 C 302.495 -0.463897 -2.24456 0
M  V30 3201 C 303.495 0.427655 -1.55009 0
M  V30 3202 O 304.685 0.226157 -1.72726 0
M  V30 3203 C 301.817 0.330812 -3.39291 0
M  V30 3204 H 303.01 -1.33357 -2.68619 0
M  V30 3205 H 300.563 -0.728416 -1.38289 0
M  V30 3206 H 301.298 1.21852 -3.00537 0
M  V30 3207 H 301.083 -0.308679 -3.90883 0
M  V30 3208 H 302.573 0.657865 -4.12386 0
M  V30 3209 N 303.011 1.40521 -0.713556 0
M  V30 3210 C 303.941 2.33381 -0.0743864 0
M  V30 3211 C 304.922 1.52784 0.747735 0
M  V30 3212 O 306.107 1.81258 0.697071 0
M  V30 3213 C 303.237 3.36748 0.849598 0
M  V30 3214 C 302.191 4.27793 0.133247 0
M  V30 3215 C 301.517 5.21679 1.17281 0
M  V30 3216 C 302.817 5.12415 -1.01134 0
M  V30 3217 H 304.511 2.87081 -0.850007 0
M  V30 3218 H 302.057 1.38034 -0.410201 0
M  V30 3219 H 304.01 4.00648 1.30612 0
M  V30 3220 H 302.734 2.81439 1.65709 0
M  V30 3221 H 301.393 3.65342 -0.303426 0
M  V30 3222 H 301.041 4.62677 1.9733 0
M  V30 3223 H 300.741 5.83435 0.698397 0
M  V30 3224 H 302.265 5.88456 1.62947 0
M  V30 3225 H 303.679 5.69781 -0.634274 0
M  V30 3226 H 302.076 5.83203 -1.41399 0
M  V30 3227 H 303.146 4.48514 -1.84292 0
M  V30 3228 N 304.489 0.459591 1.5075 0
M  V30 3229 C 305.452 -0.329093 2.26825 0
M  V30 3230 C 306.452 -0.930481 1.31144 0
M  V30 3231 O 307.642 -0.801453 1.54669 0
M  V30 3232 C 304.774 -1.46768 3.07688 0
M  V30 3233 H 305.967 0.337924 2.9799 0
M  V30 3234 H 303.52 0.213336 1.54837 0
M  V30 3235 H 304.255 -2.17009 2.40993 0
M  V30 3236 H 304.04 -1.04238 3.77991 0
M  V30 3237 H 305.53 -2.02433 3.65254 0
M  V30 3238 N 305.967 -1.56429 0.191757 0
M  V30 3239 C 307.195 -2.01867 -0.453586 0
M  V30 3240 C 307.61 -1.07191 -1.5542 0
M  V30 3241 O 306.967 -0.0762108 -1.82341 0
M  V30 3242 C 307.018 -3.47017 -1.013 0
M  V30 3243 O 306.739 -4.38078 0.0437005 0
M  V30 3244 C 308.24 -4.07956 -1.73456 0
M  V30 3245 H 305.46 -0.661211 -0.114199 0
M  V30 3246 H 308.004 -2.02295 0.299483 0
M  V30 3247 H 306.159 -3.47298 -1.71647 0
M  V30 3248 H 306.573 -5.23178 -0.372212 0
M  V30 3249 H 308.047 -5.1138 -2.07833 0
M  V30 3250 H 308.524 -3.51222 -2.63704 0
M  V30 3251 H 309.13 -4.11437 -1.07702 0
M  V30 3252 N 307.445 0.0818655 -1.57387 0
M  V30 3253 C 308.691 0.778884 -1.87896 0
M  V30 3254 C 309.046 1.75692 -0.784229 0
M  V30 3255 O 308.339 1.90417 0.212567 0
M  V30 3256 C 308.533 1.53513 -3.22752 0
M  V30 3257 C 308.362 0.631838 -4.45239 0
M  V30 3258 C 307.132 0.272571 -5.04564 0
M  V30 3259 C 309.33 -0.0670191 -5.14256 0
M  V30 3260 N 307.312 -0.637498 -6.10581 0
M  V30 3261 C 308.683 -0.834653 -6.14356 0
M  V30 3262 C 310.738 -0.139551 -4.97704 0
M  V30 3263 C 309.441 -1.66806 -6.99691 0
M  V30 3264 C 311.467 -0.959903 -5.83558 0
M  V30 3265 C 310.829 -1.71561 -6.83188 0
M  V30 3266 H 306.928 0.260764 -0.737242 0
M  V30 3267 H 309.512 0.0408227 -1.94657 0
M  V30 3268 H 307.683 2.24398 -3.17018 0
M  V30 3269 H 309.415 2.18038 -3.40942 0
M  V30 3270 H 306.17 0.62319 -4.69482 0
M  V30 3271 H 306.594 -1.08548 -6.68241 0
M  V30 3272 H 311.236 0.430376 -4.20604 0
M  V30 3273 H 308.954 -2.249 -7.76174 0
M  V30 3274 H 312.54 -1.01887 -5.72809 0
M  V30 3275 H 311.42 -2.34017 -7.48469 0
M  V30 3276 N 308.923 1.53595 0.353017 0
M  V30 3277 C 310.148 1.7462 1.11904 0
M  V30 3278 C 310.573 0.479721 1.8188 0
M  V30 3279 O 309.931 -0.567066 1.72204 0
M  V30 3280 C 309.979 2.92029 2.11545 0
M  V30 3281 O 309.083 2.61516 3.18878 0
M  V30 3282 H 308.424 0.579531 0.324099 0
M  V30 3283 H 310.954 2.00525 0.406301 0
M  V30 3284 H 310.964 3.18551 2.5493 0
M  V30 3285 H 309.639 3.83888 1.60008 0
M  V30 3286 H 308.216 2.45852 2.80377 0
M  V30 3287 N 310.401 -0.613514 1.45168 0
M  V30 3288 C 311.331 -1.7354 1.56225 0
M  V30 3289 C 312.312 -1.64981 0.41414 0
M  V30 3290 O 313.497 -1.83472 0.636526 0
M  V30 3291 C 310.627 -3.12128 1.52295 0
M  V30 3292 C 309.581 -3.35491 2.65762 0
M  V30 3293 C 308.907 -4.74291 2.46885 0
M  V30 3294 C 310.207 -3.26325 4.0781 0
M  V30 3295 H 311.901 -1.64543 2.50132 0
M  V30 3296 H 309.447 -0.790185 1.20383 0
M  V30 3297 H 311.4 -3.90404 1.58628 0
M  V30 3298 H 310.124 -3.2195 0.549139 0
M  V30 3299 H 308.783 -2.59603 2.58847 0
M  V30 3300 H 308.431 -4.80839 1.47657 0
M  V30 3301 H 308.131 -4.9088 3.22972 0
M  V30 3302 H 309.655 -5.54775 2.55063 0
M  V30 3303 H 311.069 -3.94483 4.16 0
M  V30 3304 H 309.466 -3.54445 4.8424 0
M  V30 3305 H 310.536 -2.23855 4.30136 0
M  V30 3306 N 311.879 -1.3236 -0.855495 0
M  V30 3307 C 313.29 -1.2056 -1.42556 0
M  V30 3308 C 313.641 0.182209 -1.95352 0
M  V30 3309 O 312.766 1.08088 -1.87472 0
M  V30 3310 C 313.361 -2.1826 -2.59129 0
M  V30 3311 C 311.92 -2.10351 -3.12137 0
M  V30 3312 C 311.067 -2.06674 -1.84882 0
M  V30 3313 H 314.018 -1.442 -0.662727 0
M  V30 3314 H 314.039 -1.78064 -3.36264 0
M  V30 3315 H 313.551 -3.19257 -2.20673 0
M  V30 3316 H 311.652 -1.12599 -3.55179 0
M  V30 3317 H 311.765 -3.00135 -3.73438 0
M  V30 3318 H 310.129 -1.51901 -2.04446 0
M  V30 3319 H 310.912 -3.09451 -1.48643 0
M  V30 3320 N 313.357 1.07166 -1.15556 0
M  V30 3321 C 314.32 2.12589 -0.856644 0
M  V30 3322 C 315.32 1.6015 0.14444 0
M  V30 3323 O 316.51 1.7399 -0.0854163 0
M  V30 3324 C 313.642 3.39753 -0.279405 0
M  V30 3325 H 314.835 2.40539 -1.79112 0
M  V30 3326 H 312.388 1.23086 -0.963298 0
M  V30 3327 H 313.123 3.17447 0.663174 0
M  V30 3328 H 312.908 3.79117 -1.00063 0
M  V30 3329 H 314.398 4.17507 -0.0879113 0
M  V30 3330 N 314.835 0.952656 1.25548 0
M  V30 3331 C 315.765 0.489287 2.28316 0
M  V30 3332 C 316.746 -0.463359 1.63667 0
M  V30 3333 O 317.931 -0.36274 1.90782 0
M  V30 3334 C 315.061 -0.235603 3.465 0
M  V30 3335 C 314.015 0.631593 4.23314 0
M  V30 3336 C 313.341 -0.223923 5.34231 0
M  V30 3337 C 314.641 1.90871 4.86174 0
M  V30 3338 H 316.335 1.34822 2.67326 0
M  V30 3339 H 313.881 0.649728 1.28509 0
M  V30 3340 H 315.834 -0.570882 4.17515 0
M  V30 3341 H 314.558 -1.12877 3.06474 0
M  V30 3342 H 313.217 0.949929 3.54079 0
M  V30 3343 H 312.865 -1.11678 4.90446 0
M  V30 3344 H 312.565 0.35299 5.86539 0
M  V30 3345 H 314.089 -0.554214 6.0808 0
M  V30 3346 H 315.503 1.63997 5.49343 0
M  V30 3347 H 313.9 2.43112 5.4865 0
M  V30 3348 H 314.97 2.61304 4.08471 0
M  V30 3349 N 316.313 -1.40141 0.720998 0
M  V30 3350 C 317.276 -2.29058 0.0805834 0
M  V30 3351 C 318.276 -1.45632 -0.681758 0
M  V30 3352 O 319.466 -1.6648 -0.512856 0
M  V30 3353 C 316.598 -3.28925 -0.895593 0
M  V30 3354 H 317.791 -2.87191 0.863793 0
M  V30 3355 H 315.344 -1.48553 0.485975 0
M  V30 3356 H 316.079 -2.75822 -1.70566 0
M  V30 3357 H 315.864 -3.90519 -0.351766 0
M  V30 3358 H 317.354 -3.95494 -1.34069 0
M  V30 3359 N 317.792 -0.46758 -1.50504 0
M  V30 3360 C 319.039 0.0886219 -2.02306 0
M  V30 3361 C 319.367 1.40037 -1.34981 0
M  V30 3362 O 318.622 1.90136 -0.463318 0
M  V30 3363 C 318.921 0.323995 -3.55928 0
M  V30 3364 C 318.587 -0.905618 -4.41712 0
M  V30 3365 C 317.249 -1.24275 -4.64875 0
M  V30 3366 C 319.601 -1.72448 -4.91845 0
M  V30 3367 C 316.929 -2.39888 -5.35417 0
M  V30 3368 C 319.281 -2.87185 -5.63656 0
M  V30 3369 C 317.945 -3.21317 -5.85074 0
M  V30 3370 H 317.215 0.0324291 -0.74029 0
M  V30 3371 H 319.862 -0.620945 -1.81153 0
M  V30 3372 H 318.167 1.11577 -3.75577 0
M  V30 3373 H 319.864 0.76826 -3.93572 0
M  V30 3374 H 316.454 -0.632956 -4.239 0
M  V30 3375 H 320.638 -1.4772 -4.73806 0
M  V30 3376 H 315.894 -2.66611 -5.50208 0
M  V30 3377 H 320.068 -3.50985 -6.01484 0
M  V30 3378 H 317.695 -4.1101 -6.39511 0
M  V30 3379 N 319.27 1.56325 -0.20005 0
M  V30 3380 C 320.233 2.18084 0.705132 0
M  V30 3381 C 321.233 1.13666 1.1374 0
M  V30 3382 O 322.423 1.39023 1.04968 0
M  V30 3383 C 319.555 2.78689 1.96329 0
M  V30 3384 H 320.748 2.99435 0.167023 0
M  V30 3385 H 318.301 1.56221 0.0495725 0
M  V30 3386 H 319.036 2.0115 2.5438 0
M  V30 3387 H 318.821 3.55133 1.66202 0
M  V30 3388 H 320.311 3.26096 2.60866 0
M  V30 3389 N 320.748 -0.0735177 1.57428 0
M  V30 3390 C 321.995 -0.772999 1.87166 0
M  V30 3391 C 322.323 -1.77665 0.791551 0
M  V30 3392 O 321.578 -1.94541 -0.212636 0
M  V30 3393 C 321.877 -1.51799 3.23561 0
M  V30 3394 C 321.543 -0.654484 4.46125 0
M  V30 3395 C 320.205 -0.416511 4.79394 0
M  V30 3396 C 322.557 -0.0555862 5.2117 0
M  V30 3397 C 319.885 0.429869 5.85123 0
M  V30 3398 C 322.237 0.778239 6.27795 0
M  V30 3399 C 320.901 1.0261 6.59566 0
M  V30 3400 H 320.171 -0.282861 0.684888 0
M  V30 3401 H 322.818 -0.0338272 1.9147 0
M  V30 3402 H 321.123 -2.32932 3.1504 0
M  V30 3403 H 322.82 -2.06397 3.43804 0
M  V30 3404 H 319.41 -0.850091 4.20085 0
M  V30 3405 H 323.594 -0.226558 4.95783 0
M  V30 3406 H 318.85 0.630665 6.08139 0
M  V30 3407 H 323.024 1.24906 6.85107 0
M  V30 3408 H 320.651 1.68371 7.4132 0
M  V30 3409 N 322.226 -1.5378 -0.344866 0
M  V30 3410 C 323.473 -1.70963 -1.08526 0
M  V30 3411 C 323.801 -0.472126 -1.88683 0
M  V30 3412 O 323.056 0.546116 -1.87926 0
M  V30 3413 C 323.355 -2.92407 -2.05506 0
M  V30 3414 C 323.021 -4.28066 -1.41671 0
M  V30 3415 C 321.683 -4.64951 -1.2399 0
M  V30 3416 C 324.035 -5.12344 -0.956726 0
M  V30 3417 C 321.363 -5.83733 -0.589277 0
M  V30 3418 C 323.715 -6.3179 -0.320015 0
M  V30 3419 C 322.379 -6.67372 -0.130881 0
M  V30 3420 H 321.649 -0.625598 -0.397124 0
M  V30 3421 H 324.296 -1.87995 -0.36469 0
M  V30 3422 H 322.601 -2.69973 -2.8394 0
M  V30 3423 H 324.298 -3.02895 -2.62784 0
M  V30 3424 H 320.888 -3.99034 -1.56429 0
M  V30 3425 H 325.072 -4.8438 -1.08118 0
M  V30 3426 H 320.328 -6.09877 -0.431344 0
M  V30 3427 H 324.502 -6.96386 0.0445072 0
M  V30 3428 H 322.129 -7.59273 0.375318 0
M  V30 3429 N 323.704 0.605807 -1.45491 0
M  V30 3430 C 324.929 1.39625 -1.53361 0
M  V30 3431 C 325.354 1.87351 -0.167645 0
M  V30 3432 O 324.712 1.60243 0.848051 0
M  V30 3433 C 324.76 2.57559 -2.5238 0
M  V30 3434 O 323.864 3.58248 -2.04285 0
M  V30 3435 H 323.205 0.416771 -0.516912 0
M  V30 3436 H 325.735 0.737103 -1.90861 0
M  V30 3437 H 325.745 3.0478 -2.71244 0
M  V30 3438 H 324.42 2.22171 -3.51586 0
M  V30 3439 H 322.997 3.17664 -1.95305 0
M  V30 3440 N 325.182 1.32811 0.848464 0
M  V30 3441 C 326.112 1.24882 1.97299 0
M  V30 3442 C 327.093 0.131357 1.69592 0
M  V30 3443 O 328.278 0.319553 1.91553 0
M  V30 3444 C 325.408 0.97746 3.33261 0
M  V30 3445 C 324.362 2.05682 3.75338 0
M  V30 3446 C 323.688 1.63777 5.09 0
M  V30 3447 C 324.988 3.47254 3.90144 0
M  V30 3448 H 326.682 2.18966 2.04191 0
M  V30 3449 H 324.228 1.05413 0.981029 0
M  V30 3450 H 326.181 0.908513 4.1149 0
M  V30 3451 H 324.905 0.000980011 3.266 0
M  V30 3452 H 323.564 2.11603 2.99366 0
M  V30 3453 H 323.212 0.648569 4.98801 0
M  V30 3454 H 322.912 2.36 5.38124 0
M  V30 3455 H 324.436 1.5833 5.89715 0
M  V30 3456 H 325.85 3.43888 4.58709 0
M  V30 3457 H 324.247 4.1788 4.30693 0
M  V30 3458 H 325.317 3.86462 2.92874 0
M  V30 3459 N 326.66 -1.06551 1.16123 0
M  V30 3460 C 327.9 -1.80889 0.951766 0
M  V30 3461 C 328.264 -1.85062 -0.511465 0
M  V30 3462 O 329.465 -2.55353 -0.83954 0
M  V30 3463 C 327.736 -3.21609 1.55893 0
M  V30 3464 S 329.295 -4.12593 1.49373 0
M  V30 3465 H 326.113 -0.623156 0.342341 0
M  V30 3466 H 328.715 -1.27943 1.47821 0
M  V30 3467 H 327.419 -3.16165 2.61664 0
M  V30 3468 H 326.95 -3.79631 1.0317 0
M  V30 3469 H 328.965 -4.93753 0.492196 0
M  V30 3470 N 328.138 -0.959301 -1.25041 0
M  V30 3471 C 329.385 -0.616611 -1.92884 0
M  V30 3472 C 329.713 0.847036 -1.75087 0
M  V30 3473 O 328.968 1.62374 -1.09239 0
M  V30 3474 C 329.267 -0.927136 -3.45165 0
M  V30 3475 C 328.933 -2.37757 -3.83122 0
M  V30 3476 C 327.595 -2.77402 -3.93194 0
M  V30 3477 C 329.947 -3.31929 -4.01836 0
M  V30 3478 C 327.275 -4.10277 -4.19392 0
M  V30 3479 C 329.627 -4.64423 -4.29528 0
M  V30 3480 C 328.291 -5.03857 -4.37818 0
M  V30 3481 H 327.561 -0.225634 -0.705812 0
M  V30 3482 H 330.208 -1.20921 -1.48493 0
M  V30 3483 H 328.513 -0.252195 -3.90987 0
M  V30 3484 H 330.21 -0.6405 -3.95852 0
M  V30 3485 H 326.8 -2.06013 -3.75841 0
M  V30 3486 H 330.984 -3.02488 -3.93465 0
M  V30 3487 H 326.24 -4.40467 -4.24027 0
M  V30 3488 H 330.414 -5.37369 -4.42953 0
M  V30 3489 H 328.041 -6.06843 -4.57871 0
M  V30 3490 N 329.616 1.39756 -0.72842 0
M  V30 3491 C 330.546 2.33289 -0.0991354 0
M  V30 3492 C 331.527 1.53568 0.731489 0
M  V30 3493 O 332.712 1.81987 0.677807 0
M  V30 3494 C 329.842 3.3763 0.813834 0
M  V30 3495 C 328.796 4.2791 0.0878663 0
M  V30 3496 C 328.122 5.22894 1.11741 0
M  V30 3497 C 329.422 5.11314 -1.06563 0
M  V30 3498 H 331.116 2.86163 -0.880408 0
M  V30 3499 H 328.662 1.37591 -0.424819 0
M  V30 3500 H 330.615 4.0201 1.26355 0
M  V30 3501 H 329.339 2.83181 1.62715 0
M  V30 3502 H 327.998 3.65 -0.342159 0
M  V30 3503 H 327.646 4.64744 1.92412 0
M  V30 3504 H 327.346 5.84143 0.636477 0
M  V30 3505 H 328.87 5.90151 1.56697 0
M  V30 3506 H 330.284 5.69076 -0.694671 0
M  V30 3507 H 328.681 5.81671 -1.47577 0
M  V30 3508 H 329.751 4.46534 -1.89038 0
M  V30 3509 N 331.094 0.475555 1.50254 0
M  V30 3510 C 332.342 -0.077738 2.0195 0
M  V30 3511 C 332.663 -1.39813 1.35931 0
M  V30 3512 O 331.933 -1.89249 0.506123 0
M  V30 3513 H 330.513 -0.031719 0.746326 0
M  V30 3514 H 333.175 0.626995 1.84539 0
M  V30 3515 H 332.271 -0.225995 3.11281 0
M  V30 3516 N 332.573 -1.56217 0.208337 0
M  V30 3517 C 333.503 -2.22694 -0.702116 0
M  V30 3518 C 334.484 -1.19432 -1.2112 0
M  V30 3519 O 335.669 -1.47978 -1.25762 0
M  V30 3520 C 332.799 -2.8966 -1.9161 0
M  V30 3521 C 331.753 -3.9928 -1.5414 0
M  V30 3522 C 331.079 -4.53476 -2.83308 0
M  V30 3523 C 332.379 -5.17012 -0.741339 0
M  V30 3524 H 334.073 -2.99034 -0.147898 0
M  V30 3525 H 331.619 -1.43831 -0.0696951 0
M  V30 3526 H 333.572 -3.34852 -2.55836 0
M  V30 3527 H 332.296 -2.10746 -2.49507 0
M  V30 3528 H 330.955 -3.54799 -0.922668 0
M  V30 3529 H 330.603 -3.71308 -3.39322 0
M  V30 3530 H 330.303 -5.27451 -2.58976 0
M  V30 3531 H 331.827 -5.01378 -3.485 0
M  V30 3532 H 333.241 -5.58667 -1.28699 0
M  V30 3533 H 331.638 -5.97137 -0.595627 0
M  V30 3534 H 332.708 -4.8423 0.254851 0
M  V30 3535 N 334.051 0.0651679 -1.57465 0
M  V30 3536 C 335.467 0.420105 -1.53972 0
M  V30 3537 C 335.667 1.78782 -0.929474 0
M  V30 3538 O 334.723 2.46771 -0.534839 0
M  V30 3539 C 336.036 0.355084 -2.98596 0
M  V30 3540 C 337.584 0.434792 -3.09965 0
M  V30 3541 C 338.059 0.399609 -4.56253 0
M  V30 3542 N 339.55 0.459488 -4.60915 0
M  V30 3543 C 340.285 0.454584 -5.71595 0
M  V30 3544 N 339.781 0.404102 -6.9162 0
M  V30 3545 N 341.574 0.501635 -5.59857 0
M  V30 3546 H 333.725 -0.830328 -1.95498 0
M  V30 3547 H 335.988 -0.312244 -0.895102 0
M  V30 3548 H 335.694 -0.583357 -3.46828 0
M  V30 3549 H 335.568 1.16275 -3.58831 0
M  V30 3550 H 337.955 1.36366 -2.61703 0
M  V30 3551 H 338.036 -0.40157 -2.52628 0
M  V30 3552 H 337.68 -0.525436 -5.05175 0
M  V30 3553 H 337.61 1.25359 -5.11461 0
M  V30 3554 H 340.101 0.502482 -3.74544 0
M  V30 3555 H 340.414 0.404468 -7.71741 0
M  V30 3556 H 338.759 0.37069 -6.94011 0
M  V30 3557 H 341.95 0.538812 -4.64989 0
M  V30 3558 H 342.123 0.494345 -6.46112 0
M  V30 3559 N 335.529 1.53961 0.336706 0
M  V30 3560 C 336.492 1.81724 1.39675 0
M  V30 3561 C 337.492 0.688532 1.45313 0
M  V30 3562 O 338.682 0.956829 1.45569 0
M  V30 3563 C 335.814 1.96543 2.78538 0
M  V30 3564 H 337.007 2.76424 1.16318 0
M  V30 3565 H 334.56 1.45478 0.571474 0
M  V30 3566 H 335.295 1.0401 3.07168 0
M  V30 3567 H 335.08 2.78665 2.75841 0
M  V30 3568 H 336.57 2.19516 3.5525 0
M  V30 3569 N 337.007 -0.598083 1.45811 0
M  V30 3570 C 338.254 -1.35681 1.50323 0
M  V30 3571 C 338.582 -1.9393 0.148739 0
M  V30 3572 O 337.837 -1.76094 -0.853787 0
M  V30 3573 C 338.136 -2.51669 2.53766 0
M  V30 3574 C 337.802 -2.11508 3.98215 0
M  V30 3575 C 336.464 -2.0027 4.37545 0
M  V30 3576 C 338.816 -1.80308 4.89018 0
M  V30 3577 C 336.144 -1.56067 5.65562 0
M  V30 3578 C 338.496 -1.37589 6.17456 0
M  V30 3579 C 337.16 -1.24916 6.55708 0
M  V30 3580 H 336.43 -0.496492 0.550069 0
M  V30 3581 H 339.077 -0.675052 1.79207 0
M  V30 3582 H 337.382 -3.25225 2.18486 0
M  V30 3583 H 339.079 -3.09895 2.54492 0
M  V30 3584 H 335.669 -2.21185 3.67117 0
M  V30 3585 H 339.853 -1.87884 4.59362 0
M  V30 3586 H 335.109 -1.44886 5.93985 0
M  V30 3587 H 339.283 -1.12495 6.87254 0
M  V30 3588 H 336.91 -0.904386 7.54801 0
M  V30 3589 N 338.485 -1.33259 -0.841409 0
M  V30 3590 C 339.435 -1.19872 -1.93945 0
M  V30 3591 C 340.419 -0.102269 -1.60575 0
M  V30 3592 O 341.611 -0.330114 -1.73894 0
M  V30 3593 C 338.74 -0.937517 -3.30251 0
M  V30 3594 C 337.826 -2.07629 -3.69799 0
M  V30 3595 N 338.217 -3.32604 -3.81062 0
M  V30 3596 C 336.515 -1.98242 -3.9952 0
M  V30 3597 C 337.216 -4.07275 -4.15333 0
M  V30 3598 N 336.192 -3.35691 -4.27566 0
M  V30 3599 H 339.994 -2.14604 -2.00805 0
M  V30 3600 H 337.508 -1.2523 -1.03398 0
M  V30 3601 H 339.505 -0.822545 -4.08705 0
M  V30 3602 H 338.165 0.00128798 -3.247 0
M  V30 3603 H 339.176 -3.67382 -3.65035 0
M  V30 3604 H 335.853 -1.12005 -4.02195 0
M  V30 3605 H 337.243 -5.1511 -4.31406 0
M  V30 3606 N 339.963 1.05934 -1.16686 0
M  V30 3607 C 340.913 2.11764 -0.844978 0
M  V30 3608 C 341.897 1.59922 0.177178 0
M  V30 3609 O 343.089 1.76983 -0.0241768 0
M  V30 3610 C 340.218 3.41493 -0.351812 0
M  V30 3611 C 339.304 4.00152 -1.40496 0
M  V30 3612 N 339.695 4.32874 -2.61636 0
M  V30 3613 C 337.993 4.278 -1.26106 0
M  V30 3614 C 338.694 4.79552 -3.29249 0
M  V30 3615 N 337.67 4.79211 -2.56628 0
M  V30 3616 H 341.472 2.34916 -1.76612 0
M  V30 3617 H 338.986 1.23511 -1.05446 0
M  V30 3618 H 340.983 4.16773 -0.102796 0
M  V30 3619 H 339.643 3.19778 0.56322 0
M  V30 3620 H 340.654 4.23109 -2.98663 0
M  V30 3621 H 337.331 4.15511 -0.407081 0
M  V30 3622 H 338.721 5.14045 -4.32675 0
M  V30 3623 N 341.441 0.965919 1.2453 0
M  V30 3624 C 342.391 0.465731 2.23193 0
M  V30 3625 C 343.375 -0.451277 1.54442 0
M  V30 3626 O 344.567 -0.282489 1.74731 0
M  V30 3627 C 341.696 -0.244511 3.42428 0
M  V30 3628 C 340.782 0.691222 4.18429 0
M  V30 3629 N 341.173 1.82771 4.71623 0
M  V30 3630 C 339.471 0.501649 4.4317 0
M  V30 3631 C 340.172 2.41285 5.29298 0
M  V30 3632 N 339.148 1.69819 5.16394 0
M  V30 3633 H 342.95 1.33291 2.61937 0
M  V30 3634 H 340.464 0.824789 1.39896 0
M  V30 3635 H 342.461 -0.620056 4.12263 0
M  V30 3636 H 341.121 -1.10815 3.05205 0
M  V30 3637 H 342.132 2.20929 4.68413 0
M  V30 3638 H 338.809 -0.318177 4.16286 0
M  V30 3639 H 340.199 3.37181 5.8117 0
M  V30 3640 N 342.919 -1.39368 0.735821 0
M  V30 3641 C 344.335 -1.54204 0.411492 0
M  V30 3642 C 344.535 -1.70268 -1.07755 0
M  V30 3643 O 343.591 -1.70364 -1.86366 0
M  V30 3644 C 344.904 -2.75925 1.19523 0
M  V30 3645 C 346.452 -2.89761 1.18354 0
M  V30 3646 C 346.927 -4.14421 1.94986 0
M  V30 3647 N 348.418 -4.21462 1.92156 0
M  V30 3648 C 349.153 -5.16871 2.48258 0
M  V30 3649 N 348.649 -6.18063 3.13001 0
M  V30 3650 N 350.442 -5.09093 2.38287 0
M  V30 3651 H 342.593 -1.27189 1.70108 0
M  V30 3652 H 344.856 -0.616517 0.720147 0
M  V30 3653 H 344.562 -2.70401 2.24892 0
M  V30 3654 H 344.436 -3.68614 0.800222 0
M  V30 3655 H 346.823 -2.94777 0.137975 0
M  V30 3656 H 346.904 -1.98133 1.61793 0
M  V30 3657 H 346.548 -4.10166 2.99543 0
M  V30 3658 H 346.478 -5.05095 1.48953 0
M  V30 3659 H 348.969 -3.48979 1.44991 0
M  V30 3660 H 349.282 -6.87326 3.53275 0
M  V30 3661 H 347.627 -6.18448 3.17091 0
M  V30 3662 H 350.818 -4.28973 1.8735 0
M  V30 3663 H 350.991 -5.83272 2.82308 0
M  V30 3664 N 344.397 -0.483516 -1.5 0
M  V30 3665 C 345.644 0.0671597 -2.02389 0
M  V30 3666 C 345.972 1.38597 -1.36459 0
M  V30 3667 O 345.227 1.89634 -0.483458 0
M  V30 3668 C 345.526 0.286226 -3.56252 0
M  V30 3669 C 345.192 -0.952416 -4.40726 0
M  V30 3670 C 343.854 -1.29199 -4.63531 0
M  V30 3671 C 346.206 -1.77655 -4.89988 0
M  V30 3672 C 343.534 -2.45553 -5.32842 0
M  V30 3673 C 345.886 -2.93147 -5.60578 0
M  V30 3674 C 344.55 -3.27505 -5.81633 0
M  V30 3675 H 343.82 0.0245755 -0.740592 0
M  V30 3676 H 346.467 -0.640124 -1.80485 0
M  V30 3677 H 344.772 1.07587 -3.76739 0
M  V30 3678 H 346.469 0.726473 -3.94365 0
M  V30 3679 H 343.059 -0.677881 -4.23205 0
M  V30 3680 H 347.243 -1.52737 -4.72213 0
M  V30 3681 H 342.499 -2.72431 -5.47349 0
M  V30 3682 H 346.673 -3.57344 -5.97727 0
M  V30 3683 H 344.3 -4.1777 -6.35116 0
M  V30 3684 N 345.875 1.56104 -0.216619 0
M  V30 3685 C 347.105 2.02269 0.420802 0
M  V30 3686 C 347.513 1.09575 1.5424 0
M  V30 3687 O 346.856 0.0967308 1.83445 0
M  V30 3688 C 346.918 3.44784 1.01806 0
M  V30 3689 C 346.582 4.56988 0.0325154 0
M  V30 3690 C 347.579 5.14225 -0.766055 0
M  V30 3691 C 345.264 5.02228 -0.0848092 0
M  V30 3692 C 347.258 6.15169 -1.6687 0
M  V30 3693 C 344.945 6.03011 -0.990994 0
M  V30 3694 C 345.943 6.59357 -1.78149 0
M  V30 3695 O 345.631 7.58179 -2.67245 0
M  V30 3696 H 345.363 0.667353 0.107776 0
M  V30 3697 H 347.917 2.02747 -0.329034 0
M  V30 3698 H 346.147 3.41359 1.81689 0
M  V30 3699 H 347.836 3.74626 1.56237 0
M  V30 3700 H 348.602 4.80126 -0.685836 0
M  V30 3701 H 344.481 4.58054 0.520349 0
M  V30 3702 H 348.025 6.59076 -2.28615 0
M  V30 3703 H 343.922 6.36532 -1.07225 0
M  V30 3704 H 344.69 7.75682 -2.61265 0
M  V30 3705 N 347.353 -0.0568162 1.57498 0
M  V30 3706 C 348.283 -1.06593 2.0775 0
M  V30 3707 C 349.264 -1.39448 0.974082 0
M  V30 3708 O 350.449 -1.48815 1.24771 0
M  V30 3709 C 347.579 -2.37509 2.5339 0
M  V30 3710 C 346.533 -2.1897 3.67745 0
M  V30 3711 C 345.859 -3.55402 3.99492 0
M  V30 3712 C 347.159 -1.59859 4.97235 0
M  V30 3713 H 348.853 -0.647706 2.9231 0
M  V30 3714 H 346.399 -0.310116 1.40621 0
M  V30 3715 H 348.352 -3.08409 2.87162 0
M  V30 3716 H 347.076 -2.8134 1.65878 0
M  V30 3717 H 345.735 -1.50508 3.3428 0
M  V30 3718 H 345.383 -3.9683 3.09088 0
M  V30 3719 H 345.083 -3.43831 4.76502 0
M  V30 3720 H 346.607 -4.27708 4.35773 0
M  V30 3721 H 348.021 -2.20642 5.29141 0
M  V30 3722 H 346.418 -1.58942 5.78669 0
M  V30 3723 H 347.488 -0.561506 4.81638 0
M  V30 3724 N 348.832 -1.54138 -0.328536 0
M  V30 3725 C 349.779 -1.83176 -1.40411 0
M  V30 3726 C 350.749 -0.678494 -1.5161 0
M  V30 3727 O 351.934 -0.92443 -1.6691 0
M  V30 3728 C 349.074 -2.06035 -2.76846 0
M  V30 3729 C 348.187 -3.33727 -2.74318 0
M  V30 3730 C 347.322 -3.46574 -4.02567 0
M  V30 3731 C 346.361 -4.68159 -3.94327 0
M  V30 3732 N 345.498 -4.77959 -5.14296 0
M  V30 3733 H 350.338 -2.74938 -1.14948 0
M  V30 3734 H 347.875 -1.36166 -0.556538 0
M  V30 3735 H 349.833 -2.1728 -3.56153 0
M  V30 3736 H 348.463 -1.1757 -3.00628 0
M  V30 3737 H 347.515 -3.31246 -1.8703 0
M  V30 3738 H 348.827 -4.23139 -2.64111 0
M  V30 3739 H 347.981 -3.57333 -4.90304 0
M  V30 3740 H 346.72 -2.55245 -4.15574 0
M  V30 3741 H 345.725 -4.57461 -3.04974 0
M  V30 3742 H 346.95 -5.60868 -3.82889 0
M  V30 3743 H 344.896 -3.89544 -5.27818 0
M  V30 3744 H 344.813 -5.6133 -5.06404 0
M  V30 3745 H 346.081 -4.93044 -6.03761 0
M  V30 3746 N 350.31 0.590341 -1.46126 0
M  V30 3747 C 351.243 1.71434 -1.50617 0
M  V30 3748 C 352.221 1.58543 -0.360948 0
M  V30 3749 O 353.405 1.79865 -0.563985 0
M  V30 3750 C 350.532 3.09422 -1.37753 0
M  V30 3751 C 349.578 3.40854 -2.5636 0
M  V30 3752 S 350.411 3.33773 -4.18755 0
M  V30 3753 C 351.567 4.74312 -4.08386 0
M  V30 3754 H 351.8 1.67364 -2.45717 0
M  V30 3755 H 349.333 0.76845 -1.33919 0
M  V30 3756 H 351.291 3.8903 -1.31018 0
M  V30 3757 H 349.952 3.10989 -0.440949 0
M  V30 3758 H 349.145 4.41368 -2.43332 0
M  V30 3759 H 348.747 2.68798 -2.60046 0
M  V30 3760 H 351.039 5.64522 -3.74595 0
M  V30 3761 H 351.982 4.92397 -5.08872 0
M  V30 3762 H 352.39 4.50803 -3.3976 0
M  V30 3763 N 351.788 1.33704 0.83433 0
M  V30 3764 C 353.035 1.25417 1.58987 0
M  V30 3765 C 353.363 -0.178869 1.93676 0
M  V30 3766 O 352.618 -1.13723 1.59265 0
M  V30 3767 C 352.917 2.07926 2.90692 0
M  V30 3768 C 352.583 3.57066 2.75345 0
M  V30 3769 C 351.245 3.97724 2.70867 0
M  V30 3770 C 353.597 4.51817 2.59828 0
M  V30 3771 C 350.925 5.31344 2.48778 0
M  V30 3772 C 353.277 5.85604 2.39272 0
M  V30 3773 C 351.941 6.25439 2.33199 0
M  V30 3774 H 351.211 0.458934 0.581774 0
M  V30 3775 H 353.858 1.65335 0.966261 0
M  V30 3776 H 352.163 1.608 3.57282 0
M  V30 3777 H 353.86 1.98868 3.48213 0
M  V30 3778 H 350.45 3.24785 2.79665 0
M  V30 3779 H 354.634 4.21311 2.62319 0
M  V30 3780 H 349.89 5.61241 2.42526 0
M  V30 3781 H 354.064 6.58623 2.2625 0
M  V30 3782 H 351.691 7.28914 2.15843 0
M  V30 3783 N 353.266 -1.05314 1.17247 0
M  V30 3784 C 354.176 -2.16538 0.90268 0
M  V30 3785 C 355.192 -1.73523 -0.128707 0
M  V30 3786 O 356.368 -2.01337 0.0502701 0
M  V30 3787 C 353.433 -3.44167 0.418356 0
M  V30 3788 C 352.494 -4.01635 1.51618 0
M  V30 3789 C 351.727 -5.23171 1.05487 0
M  V30 3790 O 351.95 -5.70327 -0.0914715 0
M  V30 3791 O 350.884 -5.72848 1.8474 0
M  V30 3792 H 354.71 -2.42145 1.83302 0
M  V30 3793 H 352.295 -1.15037 0.953246 0
M  V30 3794 H 354.177 -4.21112 0.155726 0
M  V30 3795 H 352.852 -3.20063 -0.48385 0
M  V30 3796 H 351.759 -3.26135 1.83268 0
M  V30 3797 H 353.092 -4.30053 2.39405 0
M  V30 3798 N 354.744 -0.972509 -1.24016 0
M  V30 3799 C 356.021 -0.553733 -1.87598 0
M  V30 3800 C 356.401 0.969158 -1.87538 0
M  V30 3801 O 355.749 1.84255 -1.35139 0
M  V30 3802 C 355.959 -1.15076 -3.29482 0
M  V30 3803 C 357.307 -1.23862 -4.06132 0
M  V30 3804 O 358.331 -1.10363 -3.38672 0
M  V30 3805 O 357.19 -1.45252 -5.26844 0
M  V30 3806 H 354.284 -0.185331 -0.805966 0
M  V30 3807 H 356.83 -1.06709 -1.31952 0
M  V30 3808 H 355.602 -2.19333 -3.2405 0
M  V30 3809 H 355.225 -0.621746 -3.92709 0
M  V30 3810 N 356.222 1.38976 -0.743202 0
M  V30 3811 C 357.452 2.04339 -0.304807 0
M  V30 3812 C 357.86 1.56162 1.06819 0
M  V30 3813 O 357.203 0.725284 1.68776 0
M  V30 3814 C 357.265 3.58716 -0.237369 0
M  V30 3815 C 356.929 4.29905 -1.55018 0
M  V30 3816 C 357.926 4.55987 -2.49744 0
M  V30 3817 C 355.611 4.68294 -1.81675 0
M  V30 3818 C 357.605 5.19478 -3.69353 0
M  V30 3819 C 355.292 5.31512 -3.0156 0
M  V30 3820 C 356.29 5.57037 -3.9522 0
M  V30 3821 O 355.978 6.18941 -5.12998 0
M  V30 3822 H 355.71 0.663439 -0.12971 0
M  V30 3823 H 358.264 1.78852 -1.01001 0
M  V30 3824 H 356.494 3.83133 0.524003 0
M  V30 3825 H 358.183 4.05543 0.170121 0
M  V30 3826 H 358.949 4.26767 -2.30423 0
M  V30 3827 H 354.828 4.47779 -1.09615 0
M  V30 3828 H 358.372 5.39318 -4.42473 0
M  V30 3829 H 354.269 5.60153 -3.20778 0
M  V30 3830 H 355.037 6.37433 -5.13441 0
M  V30 3831 N 357.7 0.491464 1.49741 0
M  V30 3832 C 359.111 0.0413169 1.86654 0
M  V30 3833 C 359.462 -1.36985 1.40462 0
M  V30 3834 O 358.587 -2.01917 0.778354 0
M  V30 3835 C 359.182 0.0682023 3.38731 0
M  V30 3836 C 357.741 -0.32656 3.74981 0
M  V30 3837 C 356.888 0.444888 2.73708 0
M  V30 3838 H 359.839 0.704733 1.42194 0
M  V30 3839 H 359.86 -0.729322 3.73445 0
M  V30 3840 H 359.372 1.09539 3.72321 0
M  V30 3841 H 357.473 -1.35734 3.46997 0
M  V30 3842 H 357.586 -0.013741 4.79098 0
M  V30 3843 H 355.95 -0.104062 2.54487 0
M  V30 3844 H 356.733 1.47197 3.10142 0
M  V30 3845 N 359.178 -1.55987 0.224894 0
M  V30 3846 C 360.125 -2.20436 -0.68385 0
M  V30 3847 C 361.095 -1.16102 -1.18783 0
M  V30 3848 O 362.28 -1.4447 -1.24632 0
M  V30 3849 C 359.42 -2.89076 -1.88491 0
M  V30 3850 C 358.533 -4.08012 -1.41951 0
M  V30 3851 C 357.668 -4.64426 -2.5784 0
M  V30 3852 C 356.707 -5.75656 -2.08053 0
M  V30 3853 N 355.844 -6.26347 -3.17227 0
M  V30 3854 H 360.684 -2.97727 -0.12754 0
M  V30 3855 H 358.221 -1.47011 -0.0511978 0
M  V30 3856 H 360.179 -3.27059 -2.59014 0
M  V30 3857 H 358.809 -2.14298 -2.41405 0
M  V30 3858 H 357.861 -3.75492 -0.609095 0
M  V30 3859 H 359.173 -4.88375 -1.01447 0
M  V30 3860 H 358.327 -5.04869 -3.3644 0
M  V30 3861 H 357.066 -3.83233 -3.01635 0
M  V30 3862 H 356.071 -5.34712 -1.27916 0
M  V30 3863 H 357.296 -6.58686 -1.65255 0
M  V30 3864 H 355.242 -5.48067 -3.60497 0
M  V30 3865 H 355.159 -7.01843 -2.80986 0
M  V30 3866 H 356.427 -6.71447 -3.95953 0
M  V30 3867 N 360.656 0.0484629 -1.57525 0
M  V30 3868 C 361.881 0.759177 -1.93006 0
M  V30 3869 C 362.306 1.69125 -0.823317 0
M  V30 3870 O 361.664 1.79931 0.222364 0
M  V30 3871 C 361.712 1.50899 -3.27509 0
M  V30 3872 O 360.816 2.62112 -3.18388 0
M  V30 3873 H 360.157 0.205564 -0.631379 0
M  V30 3874 H 362.687 0.00972959 -2.04598 0
M  V30 3875 H 362.697 1.88317 -3.6194 0
M  V30 3876 H 361.372 0.825269 -4.0763 0
M  V30 3877 H 359.949 2.27379 -2.95556 0
M  V30 3878 N 362.134 1.5431 0.320358 0
M  V30 3879 C 363.55 1.45091 0.664889 0
M  V30 3880 C 363.75 0.626382 1.91517 0
M  V30 3881 O 362.806 0.126443 2.52183 0
M  V30 3882 C 364.119 2.88848 0.83591 0
M  V30 3883 C 365.667 2.9877 0.933046 0
M  V30 3884 C 366.142 4.43683 1.13621 0
M  V30 3885 N 367.633 4.47309 1.20287 0
M  V30 3886 C 368.368 5.56595 1.37801 0
M  V30 3887 N 367.864 6.75844 1.52338 0
M  V30 3888 N 369.657 5.44248 1.40535 0
M  V30 3889 H 361.808 2.06398 -0.501374 0
M  V30 3890 H 364.071 0.933963 -0.162534 0
M  V30 3891 H 363.777 3.51698 -0.0116092 0
M  V30 3892 H 363.651 3.35148 1.73078 0
M  V30 3893 H 366.038 2.36045 1.77107 0
M  V30 3894 H 366.119 2.55796 0.0145782 0
M  V30 3895 H 365.763 5.06995 0.303032 0
M  V30 3896 H 365.693 4.84269 2.0686 0
M  V30 3897 H 368.184 3.61388 1.10485 0
M  V30 3898 H 368.497 7.54892 1.65403 0
M  V30 3899 H 366.842 6.78746 1.4943 0
M  V30 3900 H 370.033 4.50038 1.28777 0
M  V30 3901 H 370.206 6.29473 1.53842 0
M  V30 3902 N 363.613 -0.582584 1.46437 0
M  V30 3903 C 364.56 -1.69164 1.5701 0
M  V30 3904 C 365.53 -1.60847 0.414403 0
M  V30 3905 O 366.715 -1.80058 0.631171 0
M  V30 3906 C 363.855 -3.075 1.56646 0
M  V30 3907 C 362.968 -3.2644 2.82951 0
M  V30 3908 C 362.103 -4.55026 2.7409 0
M  V30 3909 C 361.142 -4.6731 3.95333 0
M  V30 3910 N 360.279 -5.87221 3.84858 0
M  V30 3911 H 365.119 -1.59464 2.51744 0
M  V30 3912 H 362.656 -0.777186 1.24893 0
M  V30 3913 H 364.614 -3.8757 1.5442 0
M  V30 3914 H 363.244 -3.16096 0.654439 0
M  V30 3915 H 362.296 -2.39974 2.95155 0
M  V30 3916 H 363.608 -3.31385 3.72808 0
M  V30 3917 H 362.762 -5.43324 2.6997 0
M  V30 3918 H 361.501 -4.52519 1.81873 0
M  V30 3919 H 360.506 -3.77429 3.99784 0
M  V30 3920 H 361.731 -4.71595 4.88646 0
M  V30 3921 H 359.677 -5.85712 2.95427 0
M  V30 3922 H 359.594 -5.93435 4.6837 0
M  V30 3923 H 360.862 -6.7795 3.84713 0
M  V30 3924 N 365.091 -1.34144 -0.827227 0
M  V30 3925 C 366.054 -1.25264 -1.91942 0
M  V30 3926 C 367.054 -0.168866 -1.59911 0
M  V30 3927 O 368.244 -0.421198 -1.69031 0
M  V30 3928 C 365.376 -0.932952 -3.27885 0
M  V30 3929 H 366.569 -2.22357 -2.0124 0
M  V30 3930 H 364.122 -1.1837 -1.0207 0
M  V30 3931 H 364.857 0.0349917 -3.24281 0
M  V30 3932 H 364.642 -1.71682 -3.52516 0
M  V30 3933 H 366.132 -0.895874 -4.07877 0
M  V30 3934 N 366.569 1.04691 -1.17803 0
M  V30 3935 C 367.499 2.14494 -0.92275 0
M  V30 3936 C 368.48 1.69546 0.137179 0
M  V30 3937 O 369.665 1.94195 -0.0141108 0
M  V30 3938 C 366.795 3.44491 -0.440803 0
M  V30 3939 C 365.749 4.03031 -1.4405 0
M  V30 3940 C 365.075 5.28432 -0.81631 0
M  V30 3941 C 366.375 4.39932 -2.81527 0
M  V30 3942 H 368.069 2.36107 -1.84103 0
M  V30 3943 H 365.615 1.1347 -0.886599 0
M  V30 3944 H 367.568 4.2066 -0.249602 0
M  V30 3945 H 366.292 3.22546 0.513025 0
M  V30 3946 H 364.951 3.28937 -1.61853 0
M  V30 3947 H 364.599 5.02792 0.144511 0
M  V30 3948 H 364.299 5.68559 -1.48371 0
M  V30 3949 H 365.823 6.07284 -0.635496 0
M  V30 3950 H 367.237 5.07113 -2.67412 0
M  V30 3951 H 365.634 4.9109 -3.44892 0
M  V30 3952 H 366.704 3.50045 -3.35554 0
M  V30 3953 N 368.047 0.979072 1.23499 0
M  V30 3954 C 369.296 0.642751 1.91185 0
M  V30 3955 C 369.609 -0.827253 1.77245 0
M  V30 3956 O 370.815 -1.27458 2.39722 0
M  V30 3957 C 369.271 1.09901 3.42709 0
M  V30 3958 C 368.879 2.59327 3.65313 0
M  V30 3959 C 370.623 0.836371 4.16179 0
M  V30 3960 C 368.53 2.98627 5.10467 0
M  V30 3961 H 367.46 0.236698 0.715884 0
M  V30 3962 H 370.111 1.1868 1.39955 0
M  V30 3963 H 368.493 0.48319 3.93041 0
M  V30 3964 H 369.667 3.26136 3.25533 0
M  V30 3965 H 367.982 2.83323 3.05151 0
M  V30 3966 H 370.579 1.10586 5.23139 0
M  V30 3967 H 370.922 -0.227509 4.15678 0
M  V30 3968 H 371.455 1.41371 3.71832 0
M  V30 3969 H 368.194 4.04133 5.16098 0
M  V30 3970 H 367.714 2.3651 5.51201 0
M  V30 3971 H 369.393 2.89159 5.78788 0
M  V30 3972 N 369.525 -1.3858 0.750561 0
M  V30 3973 C 370.936 -1.82927 0.373438 0
M  V30 3974 C 371.287 -1.62634 -1.09748 0
M  V30 3975 O 370.412 -1.12588 -1.84805 0
M  V30 3976 C 371.007 -3.32088 0.671029 0
M  V30 3977 C 369.566 -3.74795 0.34722 0
M  V30 3978 C 368.713 -2.61391 0.92575 0
M  V30 3979 H 371.664 -1.27351 0.946958 0
M  V30 3980 H 371.685 -3.80465 -0.0518269 0
M  V30 3981 H 371.197 -3.46826 1.74164 0
M  V30 3982 H 369.298 -3.65638 -0.716933 0
M  V30 3983 H 369.411 -4.71667 0.840656 0
M  V30 3984 H 367.775 -2.52265 0.351327 0
M  V30 3985 H 368.558 -2.78929 2.00133 0
M  V30 3986 N 371.003 -0.499398 -1.49478 0
M  V30 3987 C 372.25 0.0456899 -2.02448 0
M  V30 3988 C 372.578 1.37142 -1.37921 0
M  V30 3989 O 371.833 1.89111 -0.503544 0
M  V30 3990 C 372.132 0.248424 -3.56536 0
M  V30 3991 C 371.798 -0.999107 -4.39692 0
M  V30 3992 C 370.46 -1.34108 -4.62135 0
M  V30 3993 C 372.812 -1.82842 -4.88076 0
M  V30 3994 C 370.14 -2.51191 -5.30208 0
M  V30 3995 C 372.492 -2.99076 -5.57437 0
M  V30 3996 C 371.156 -3.33655 -5.78127 0
M  V30 3997 H 370.426 0.0167191 -0.740811 0
M  V30 3998 H 373.073 -0.65923 -1.79795 0
M  V30 3999 H 371.378 1.03586 -3.77859 0
M  V30 4000 H 373.075 0.684605 -3.95113 0
M  V30 4001 H 369.665 -0.722729 -4.22463 0
M  V30 4002 H 373.849 -1.57737 -4.70566 0
M  V30 4003 H 369.105 -2.78221 -5.44429 0
M  V30 4004 H 373.279 -3.63664 -5.93904 0
M  V30 4005 H 370.906 -4.24483 -6.30649 0
M  V30 4006 N 372.481 1.55866 -0.233164 0
M  V30 4007 C 373.73 1.97779 0.39579 0
M  V30 4008 C 374.043 1.12419 1.60066 0
M  V30 4009 O 375.249 1.44283 2.29988 0
M  V30 4010 C 373.705 3.5188 0.755556 0
M  V30 4011 C 373.313 4.45959 -0.427152 0
M  V30 4012 C 375.057 4.02479 1.34946 0
M  V30 4013 C 372.964 5.91383 -0.0443043 0
M  V30 4014 H 371.894 0.738592 0.15165 0
M  V30 4015 H 374.545 1.80486 -0.331212 0
M  V30 4016 H 372.927 3.64816 1.5403 0
M  V30 4017 H 374.101 4.44776 -1.20462 0
M  V30 4018 H 372.416 4.05765 -0.935068 0
M  V30 4019 H 375.013 5.08637 1.649 0
M  V30 4020 H 375.356 3.49014 2.26925 0
M  V30 4021 H 375.889 3.92813 0.62791 0
M  V30 4022 H 372.628 6.48857 -0.930874 0
M  V30 4023 H 372.148 5.95734 0.697238 0
M  V30 4024 H 373.827 6.45893 0.378334 0
M  V30 4025 N 373.959 -0.0401083 1.57549 0
M  V30 4026 C 375.206 -0.733125 1.88763 0
M  V30 4027 C 375.534 -1.75946 0.829058 0
M  V30 4028 O 374.789 -1.94949 -0.171323 0
M  V30 4029 C 375.088 -1.44902 3.26708 0
M  V30 4030 C 374.754 -0.559707 4.47413 0
M  V30 4031 C 373.416 -0.314731 4.8017 0
M  V30 4032 C 375.768 0.0549743 5.21171 0
M  V30 4033 C 373.096 0.553886 5.8408 0
M  V30 4034 C 375.448 0.911229 6.26003 0
M  V30 4035 C 374.112 1.16577 6.57241 0
M  V30 4036 H 373.382 -0.268269 0.690733 0
M  V30 4037 H 376.029 0.00679408 1.91499 0
M  V30 4038 H 374.334 -2.26197 3.1991 0
M  V30 4039 H 376.031 -1.99058 3.48105 0
M  V30 4040 H 372.621 -0.760793 4.21794 0
M  V30 4041 H 376.805 -0.121344 4.96152 0
M  V30 4042 H 372.061 0.759518 6.06664 0
M  V30 4043 H 376.235 1.3941 6.82303 0
M  V30 4044 H 373.862 1.84058 7.37582 0
M  V30 4045 O 375.476 -1.60458 -0.183159 0
M  V30 4046 H 376.167 -1.75443 -0.820934 0
M  V30 END ATOM
M  V30 BEGIN BOND
M  V30 END BOND
M  V30 END CTAB
M  END
$$$$
